data_ACOLIP_clean_PM
_symmetry_space_group_name_H-M	'P1'
_cell_length_a	11.567000
_cell_length_b	11.839300
_cell_length_c	14.227000
_cell_angle_alpha	112.496999
_cell_angle_beta	90.000000
_cell_angle_gamma	119.241999
_symmetry_Int_Tables_number 1

loop_
_symmetry_equiv_pos_as_xyz
'x,y,z'

loop_
_atom_site_label
_atom_site_type_symbol
_atom_site_fract_x
_atom_site_fract_y
_atom_site_fract_z
_atom_site_charge
Zn1	Zn	0.345140	0.716260	0.756240	1.103805
Zn2	Zn	0.371120	0.716260	0.256240	1.103805
H1	H	0.530800	0.421800	0.146100	0.122091
H2	H	0.160800	0.186400	0.968300	0.115049
H3	H	0.189700	0.006800	0.870100	0.105904
H4	H	0.418500	0.553800	0.547700	0.097133
H5	H	0.550000	0.973800	0.708300	0.095355
H6	H	0.656700	0.941600	0.553500	0.083423
H7	H	0.613500	0.703200	0.381500	0.127127
H8	H	0.536900	0.557400	0.390800	0.096260
H9	H	0.665900	0.528600	0.519300	0.094124
H10	H	0.878800	0.580200	0.583800	0.096346
H11	H	0.055900	0.905200	0.501200	0.090816
H12	H	0.843000	0.853600	0.436700	0.093497
H13	H	0.135900	0.763000	0.646600	0.128997
H14	H	0.195500	0.896600	0.620400	0.092749
H15	H	0.315000	0.885800	0.462200	0.105683
H16	H	0.174800	0.456600	0.317800	0.094809
H17	H	0.071200	0.497400	0.473600	0.086648
H18	H	0.639700	0.209400	0.996000	0.278508
H19	H	0.678700	0.342600	0.092300	0.220062
H20	H	0.891000	0.421800	0.646100	0.122091
H21	H	0.025600	0.186400	0.468300	0.115049
H22	H	0.817100	0.006800	0.370100	0.105904
H23	H	0.135300	0.553800	0.047700	0.097133
H24	H	0.423800	0.973800	0.208300	0.095355
H25	H	0.284900	0.941600	0.053500	0.083423
H26	H	0.089700	0.703200	0.881500	0.127127
H27	H	0.020500	0.557400	0.890800	0.096260
H28	H	0.862700	0.528600	0.019300	0.094124
H29	H	0.701400	0.580200	0.083800	0.096346
H30	H	0.849300	0.905200	0.001200	0.090816
H31	H	0.010600	0.853600	0.936700	0.093497
H32	H	0.627100	0.763000	0.146600	0.128997
H33	H	0.701100	0.896600	0.120400	0.092750
H34	H	0.570800	0.885800	0.962200	0.105683
H35	H	0.281800	0.456600	0.817800	0.094809
H36	H	0.426200	0.497400	0.973600	0.086648
H37	H	0.569700	0.209400	0.496000	0.278508
H38	H	0.663900	0.342600	0.592300	0.220063
C1	C	0.404100	0.983400	0.882000	0.416585
C2	C	0.389600	0.110000	0.946000	0.034480
C3	C	0.496200	0.232800	0.027900	0.169467
C4	C	0.464300	0.339000	0.089100	-0.123043
C5	C	0.339800	0.323000	0.067000	0.059523
C6	C	0.244900	0.197800	0.984200	-0.152149
C7	C	0.260300	0.090400	0.924000	-0.065495
C8	C	0.304900	0.431600	0.129800	0.385501
C9	C	0.460400	0.651600	0.566300	0.156045
C10	C	0.534800	0.887200	0.657100	0.075448
C11	C	0.594700	0.868800	0.570200	0.055778
C12	C	0.601100	0.660200	0.429600	-0.064656
C13	C	0.733400	0.686000	0.471600	0.042675
C14	C	0.744100	0.604000	0.515600	-0.093854
C15	C	0.871700	0.635000	0.554300	-0.087437
C16	C	0.988500	0.747800	0.548900	0.046345
C17	C	0.977800	0.829800	0.504800	-0.082309
C18	C	0.850200	0.798800	0.466200	-0.108324
C19	C	0.133600	0.793200	0.592500	-0.078273
C20	C	0.265500	0.787400	0.443400	0.142312
C21	C	0.186900	0.544400	0.363900	0.077947
C22	C	0.126400	0.566000	0.451100	0.047748
C23	C	0.579300	0.983400	0.382000	0.416585
C24	C	0.720400	0.110000	0.446000	0.034481
C25	C	0.736600	0.232800	0.527900	0.169467
C26	C	0.874700	0.339000	0.589100	-0.123043
C27	C	0.983200	0.323000	0.567000	0.059523
C28	C	0.952900	0.197800	0.484200	-0.152149
C29	C	0.830100	0.090400	0.424000	-0.065496
C30	C	0.126700	0.431600	0.629800	0.385502
C31	C	0.191200	0.651600	0.066300	0.156045
C32	C	0.352400	0.887200	0.157100	0.075448
C33	C	0.274100	0.868800	0.070200	0.055778
C34	C	0.059100	0.660200	0.929600	-0.064657
C35	C	0.952600	0.686000	0.971600	0.042675
C36	C	0.859900	0.604000	0.015600	-0.093855
C37	C	0.763300	0.635000	0.054300	-0.087437
C38	C	0.759300	0.747800	0.048900	0.046345
C39	C	0.852000	0.829800	0.004800	-0.082309
C40	C	0.948600	0.798800	0.966200	-0.108324
C41	C	0.659600	0.793200	0.092500	-0.078273
C42	C	0.521900	0.787400	0.943400	0.142312
C43	C	0.357500	0.544400	0.863900	0.077947
C44	C	0.439600	0.566000	0.951100	0.047748
N1	N	0.448200	0.749800	0.651200	-0.458161
N2	N	0.544200	0.722000	0.514000	-0.241540
N3	N	0.270100	0.679600	0.357900	-0.450394
N4	N	0.167500	0.714600	0.497400	-0.228759
N5	N	0.617600	0.265000	0.040000	-0.608127
N6	N	0.301600	0.749800	0.151200	-0.458161
N7	N	0.177800	0.722000	0.014000	-0.241540
N8	N	0.409500	0.679600	0.857900	-0.450394
N9	N	0.547100	0.714600	0.997400	-0.228759
N10	N	0.647400	0.265000	0.540000	-0.608127
O1	O	0.525400	0.011400	0.896100	-0.474013
O2	O	0.302000	0.866200	0.822000	-0.678178
O3	O	0.406700	0.548000	0.190700	-0.608887
O4	O	0.188000	0.417600	0.120600	-0.434641
O5	O	0.486000	0.011400	0.396100	-0.474013
O6	O	0.564200	0.866200	0.322000	-0.678177
O7	O	0.141300	0.548000	0.690700	-0.608887
O8	O	0.229600	0.417600	0.620600	-0.434641
