data_ADAXEK_clean_PM
_symmetry_space_group_name_H-M	'P1'
_cell_length_a	7.166801
_cell_length_b	9.852400
_cell_length_c	12.372200
_cell_angle_alpha	88.714599
_cell_angle_beta	73.163997
_cell_angle_gamma	85.557898
_symmetry_Int_Tables_number 1

loop_
_symmetry_equiv_pos_as_xyz
'x,y,z'

loop_
_atom_site_label
_atom_site_type_symbol
_atom_site_fract_x
_atom_site_fract_y
_atom_site_fract_z
_atom_site_charge
Co1	Co	0.500000	0.500000	0.500000	1.428672
Co2	Co	0.000000	0.500000	0.500000	1.428638
H1	H	0.547800	0.143200	0.365800	0.113385
H2	H	0.104300	0.087700	0.369600	0.108987
H3	H	0.501900	0.302300	0.913400	0.089059
H4	H	0.596900	0.304800	0.719600	0.115345
H5	H	0.086400	0.856800	0.365800	0.113422
H6	H	0.526100	0.912300	0.369600	0.109053
H7	H	0.584700	0.697700	0.913400	0.089319
H8	H	0.683500	0.695200	0.719600	0.115381
H9	H	0.452200	0.856800	0.634200	0.113385
H10	H	0.895700	0.912300	0.630400	0.108987
H11	H	0.498100	0.697700	0.086600	0.089059
H12	H	0.403100	0.695200	0.280400	0.115345
H13	H	0.913600	0.143200	0.634200	0.113422
H14	H	0.473900	0.087700	0.630400	0.109053
H15	H	0.415300	0.302300	0.086600	0.089319
H16	H	0.316500	0.304800	0.280400	0.115381
C1	C	0.826270	0.141500	0.371460	0.055568
C2	C	0.655500	0.085800	0.368600	-0.070416
C3	C	0.987200	0.052900	0.369800	-0.100876
C4	C	0.828040	0.291700	0.388920	0.448116
C5	C	0.537500	0.383100	0.875400	-0.133616
C6	C	0.594790	0.384000	0.759620	0.080227
C7	C	0.802270	0.858500	0.371460	0.055540
C8	C	0.975900	0.914200	0.368600	-0.070429
C9	C	0.643000	0.947100	0.369800	-0.100728
C10	C	0.783040	0.708300	0.388920	0.447926
C11	C	0.587100	0.616900	0.875400	-0.134869
C12	C	0.645590	0.616000	0.759620	0.080654
C13	C	0.173730	0.858500	0.628540	0.055568
C14	C	0.344500	0.914200	0.631400	-0.070416
C15	C	0.012800	0.947100	0.630200	-0.100876
C16	C	0.171960	0.708300	0.611080	0.448116
C17	C	0.462500	0.616900	0.124600	-0.133616
C18	C	0.405210	0.616000	0.240380	0.080227
C19	C	0.197730	0.141500	0.628540	0.055540
C20	C	0.024100	0.085800	0.631400	-0.070429
C21	C	0.357000	0.052900	0.630200	-0.100728
C22	C	0.216960	0.291700	0.611080	0.447926
C23	C	0.412900	0.383100	0.124600	-0.134869
C24	C	0.354410	0.384000	0.240380	0.080654
C25	C	0.531400	0.500000	0.937200	0.052193
C26	C	0.468600	0.500000	0.062800	0.052193
N1	N	0.647700	0.500000	0.704600	0.036616
N2	N	0.352300	0.500000	0.295400	0.036616
O1	O	0.682540	0.366400	0.380720	-0.547314
O2	O	0.974990	0.330000	0.412820	-0.596932
O3	O	0.936740	0.633600	0.380720	-0.547226
O4	O	0.612190	0.670000	0.412820	-0.596692
O5	O	0.317460	0.633600	0.619280	-0.547314
O6	O	0.025010	0.670000	0.587180	-0.596932
O7	O	0.063260	0.366400	0.619280	-0.547226
O8	O	0.387810	0.330000	0.587180	-0.596692
O9	O	0.704140	0.500000	0.591720	-0.640349
O10	O	0.295860	0.500000	0.408280	-0.640349
