data_APEBED_clean_PM
_symmetry_space_group_name_H-M	'P1'
_cell_length_a	10.215100
_cell_length_b	13.117000
_cell_length_c	14.136000
_cell_angle_alpha	90.000000
_cell_angle_beta	90.000000
_cell_angle_gamma	90.000000
_symmetry_Int_Tables_number 1

loop_
_symmetry_equiv_pos_as_xyz
'x,y,z'

loop_
_atom_site_label
_atom_site_type_symbol
_atom_site_fract_x
_atom_site_fract_y
_atom_site_fract_z
_atom_site_charge
Zn1	Zn	0.114090	0.930770	0.285640	1.183617
Zn2	Zn	0.092060	0.233570	0.279640	1.147641
Zn3	Zn	0.385910	0.069230	0.785640	1.183617
Zn4	Zn	0.407940	0.766430	0.779640	1.147641
Zn5	Zn	0.885910	0.430770	0.214360	1.183617
Zn6	Zn	0.907940	0.733570	0.220360	1.147641
Zn7	Zn	0.614090	0.569230	0.714360	1.183617
Zn8	Zn	0.592060	0.266430	0.720360	1.147641
H1	H	0.523600	0.954900	0.300600	0.126276
H2	H	0.750000	0.010400	0.291500	0.139677
H3	H	0.673500	0.782900	0.450700	0.146329
H4	H	0.518000	0.863700	0.553600	0.143321
H5	H	0.976400	0.045100	0.800600	0.126276
H6	H	0.750000	0.989600	0.791500	0.139677
H7	H	0.826500	0.217100	0.950700	0.146329
H8	H	0.982000	0.136300	0.053600	0.143321
H9	H	0.476400	0.454900	0.199400	0.126276
H10	H	0.250000	0.510400	0.208500	0.139677
H11	H	0.326500	0.282900	0.049300	0.146329
H12	H	0.482000	0.363700	0.946400	0.143321
H13	H	0.023600	0.545100	0.699400	0.126276
H14	H	0.250000	0.489600	0.708500	0.139677
H15	H	0.173500	0.717100	0.549300	0.146329
H16	H	0.018000	0.636300	0.446400	0.143321
C1	C	0.463100	0.095100	0.261900	0.047402
C2	C	0.548600	0.020500	0.283700	-0.064447
C3	C	0.679100	0.052500	0.278000	-0.072558
C4	C	0.691400	0.150900	0.250900	0.044777
C5	C	0.318100	0.093100	0.266100	0.489583
C6	C	0.810900	0.212600	0.243800	0.488461
C7	C	0.795100	0.904400	0.461300	0.040299
C8	C	0.686300	0.847100	0.477100	-0.106840
C9	C	0.597100	0.893400	0.536300	-0.001972
C10	C	0.635900	0.986500	0.566700	0.033560
C11	C	0.904500	0.884300	0.396800	0.444582
C12	C	0.572000	0.057000	0.634300	0.490465
C13	C	0.036900	0.904900	0.761900	0.047402
C14	C	0.951400	0.979500	0.783700	-0.064447
C15	C	0.820900	0.947500	0.778000	-0.072558
C16	C	0.808600	0.849100	0.750900	0.044777
C17	C	0.181900	0.906900	0.766100	0.489583
C18	C	0.689100	0.787400	0.743800	0.488461
C19	C	0.704900	0.095600	0.961300	0.040299
C20	C	0.813700	0.152900	0.977100	-0.106840
C21	C	0.902900	0.106600	0.036300	-0.001972
C22	C	0.864100	0.013500	0.066700	0.033560
C23	C	0.595500	0.115700	0.896800	0.444582
C24	C	0.928000	0.943000	0.134300	0.490465
C25	C	0.536900	0.595100	0.238100	0.047402
C26	C	0.451400	0.520500	0.216300	-0.064447
C27	C	0.320900	0.552500	0.222000	-0.072558
C28	C	0.308600	0.650900	0.249100	0.044777
C29	C	0.681900	0.593100	0.233900	0.489583
C30	C	0.189100	0.712600	0.256200	0.488461
C31	C	0.204900	0.404400	0.038700	0.040299
C32	C	0.313700	0.347100	0.022900	-0.106840
C33	C	0.402900	0.393400	0.963700	-0.001972
C34	C	0.364100	0.486500	0.933300	0.033560
C35	C	0.095500	0.384300	0.103200	0.444582
C36	C	0.428000	0.557000	0.865700	0.490465
C37	C	0.963100	0.404900	0.738100	0.047402
C38	C	0.048600	0.479500	0.716300	-0.064447
C39	C	0.179100	0.447500	0.722000	-0.072558
C40	C	0.191400	0.349100	0.749100	0.044777
C41	C	0.818100	0.406900	0.733900	0.489583
C42	C	0.310900	0.287400	0.756200	0.488461
C43	C	0.295100	0.595600	0.538700	0.040299
C44	C	0.186300	0.652900	0.522900	-0.106840
C45	C	0.097100	0.606600	0.463700	-0.001972
C46	C	0.135900	0.513500	0.433300	0.033560
C47	C	0.404500	0.615700	0.603200	0.444582
C48	C	0.072000	0.443000	0.365700	0.490465
S1	S	0.541480	0.206390	0.231300	0.100251
S2	S	0.786310	0.017230	0.522150	0.103404
S3	S	0.958520	0.793610	0.731300	0.100251
S4	S	0.713690	0.982770	0.022150	0.103404
S5	S	0.458520	0.706390	0.268700	0.100251
S6	S	0.213690	0.517230	0.977850	0.103404
S7	S	0.041480	0.293610	0.768700	0.100251
S8	S	0.286310	0.482770	0.477850	0.103404
O1	O	0.270400	0.010800	0.296900	-0.609090
O2	O	0.794400	0.302500	0.213900	-0.624412
O3	O	0.989000	0.954400	0.386400	-0.603066
O4	O	0.462900	0.030400	0.665500	-0.609993
O5	O	0.258100	0.170600	0.242400	-0.612338
O6	O	0.909500	0.800500	0.355800	-0.555622
O7	O	0.632100	0.137200	0.655800	-0.666772
O8	O	0.917000	0.174300	0.269400	-0.642536
O9	O	0.229600	0.989200	0.796900	-0.609090
O10	O	0.705600	0.697500	0.713900	-0.624412
O11	O	0.511000	0.045600	0.886400	-0.603066
O12	O	0.037100	0.969600	0.165500	-0.609993
O13	O	0.241900	0.829400	0.742400	-0.612338
O14	O	0.590500	0.199500	0.855800	-0.555622
O15	O	0.867900	0.862800	0.155800	-0.666772
O16	O	0.583000	0.825700	0.769400	-0.642536
O17	O	0.729600	0.510800	0.203100	-0.609090
O18	O	0.205600	0.802500	0.286100	-0.624412
O19	O	0.011000	0.454400	0.113600	-0.603066
O20	O	0.537100	0.530400	0.834500	-0.609993
O21	O	0.741900	0.670600	0.257600	-0.612338
O22	O	0.090500	0.300500	0.144200	-0.555622
O23	O	0.367900	0.637200	0.844200	-0.666772
O24	O	0.083000	0.674300	0.230600	-0.642536
O25	O	0.770400	0.489200	0.703100	-0.609090
O26	O	0.294400	0.197500	0.786100	-0.624412
O27	O	0.489000	0.545600	0.613600	-0.603066
O28	O	0.962900	0.469600	0.334500	-0.609993
O29	O	0.758100	0.329400	0.757600	-0.612338
O30	O	0.409500	0.699500	0.644200	-0.555622
O31	O	0.132100	0.362800	0.344200	-0.666772
O32	O	0.417000	0.325700	0.730600	-0.642536
