data_ATIBAG_clean_PM
_symmetry_space_group_name_H-M	'P1'
_cell_length_a	10.127900
_cell_length_b	11.649500
_cell_length_c	14.860800
_cell_angle_alpha	91.670001
_cell_angle_beta	90.000000
_cell_angle_gamma	90.000000
_symmetry_Int_Tables_number 1

loop_
_symmetry_equiv_pos_as_xyz
'x,y,z'

loop_
_atom_site_label
_atom_site_type_symbol
_atom_site_fract_x
_atom_site_fract_y
_atom_site_fract_z
_atom_site_charge
Mn1	Mn	0.915590	0.756830	0.131150	-2.861409
Mn2	Mn	0.100290	0.739550	0.315080	-2.519618
Mn3	Mn	0.415590	0.743170	0.368850	-2.861409
Mn4	Mn	0.600290	0.760450	0.184920	-2.519618
Mn5	Mn	0.084410	0.243170	0.868850	-2.861409
Mn6	Mn	0.899710	0.260450	0.684920	-2.519618
Mn7	Mn	0.584410	0.256830	0.631150	-2.861409
Mn8	Mn	0.399710	0.239550	0.815080	-2.519618
Mn9	Mn	0.000000	0.500000	0.000000	-2.417397
Mn10	Mn	0.500000	-0.000000	0.500000	-2.417397
Mn11	Mn	0.000000	0.000000	0.000000	-2.480802
Mn12	Mn	0.500000	0.500000	0.500000	-2.480802
H1	H	0.749400	0.863900	0.364600	0.216258
H2	H	0.023400	0.478500	0.265000	0.124568
H3	H	0.618800	0.554000	0.042600	0.118761
H4	H	0.187700	0.975500	0.232300	0.162282
H5	H	0.157600	0.698900	0.928800	0.127552
H6	H	0.702100	0.994200	0.013000	0.147096
H7	H	0.249400	0.636100	0.135400	0.216258
H8	H	0.523400	0.021500	0.235000	0.124568
H9	H	0.118800	0.946000	0.457400	0.118761
H10	H	0.687700	0.524500	0.267700	0.162282
H11	H	0.657600	0.801100	0.571200	0.127552
H12	H	0.202100	0.505800	0.487000	0.147096
H13	H	0.250600	0.136100	0.635400	0.216258
H14	H	0.976600	0.521500	0.735000	0.124568
H15	H	0.381200	0.446000	0.957400	0.118761
H16	H	0.812300	0.024500	0.767700	0.162282
H17	H	0.842400	0.301100	0.071200	0.127552
H18	H	0.297900	0.005800	0.987000	0.147096
H19	H	0.750600	0.363900	0.864600	0.216258
H20	H	0.476600	0.978500	0.765000	0.124568
H21	H	0.881200	0.054000	0.542600	0.118761
H22	H	0.312300	0.475500	0.732300	0.162282
H23	H	0.342400	0.198900	0.428800	0.127552
H24	H	0.797900	0.494200	0.513000	0.147096
C1	C	0.818600	0.831150	0.329150	0.378275
C2	C	0.007300	0.519000	0.211500	0.343118
C3	C	0.709300	0.573780	0.049080	0.335025
C4	C	0.127400	0.949470	0.187170	0.361088
C5	C	0.101700	0.742690	0.968090	0.370459
C6	C	0.718400	0.932820	0.052220	0.379365
C7	C	0.318600	0.668850	0.170850	0.378275
C8	C	0.507300	0.981000	0.288500	0.343118
C9	C	0.209300	0.926220	0.450920	0.335025
C10	C	0.627400	0.550530	0.312830	0.361088
C11	C	0.601700	0.757310	0.531910	0.370459
C12	C	0.218400	0.567180	0.447780	0.379365
C13	C	0.181400	0.168850	0.670850	0.378275
C14	C	0.992700	0.481000	0.788500	0.343118
C15	C	0.290700	0.426220	0.950920	0.335025
C16	C	0.872600	0.050530	0.812830	0.361088
C17	C	0.898300	0.257310	0.031910	0.370459
C18	C	0.281600	0.067180	0.947780	0.379365
C19	C	0.681400	0.331150	0.829150	0.378275
C20	C	0.492700	0.019000	0.711500	0.343118
C21	C	0.790700	0.073780	0.549080	0.335025
C22	C	0.372600	0.449470	0.687170	0.361088
C23	C	0.398300	0.242690	0.468090	0.370459
C24	C	0.781600	0.432820	0.552220	0.379365
O1	O	0.792720	0.808110	0.247280	0.568294
O2	O	0.925480	0.814930	0.367670	0.221611
O3	O	0.999500	0.627370	0.219300	0.567199
O4	O	0.996270	0.461690	0.141750	0.207355
O5	O	0.737320	0.653640	0.106090	0.565355
O6	O	0.789080	0.519690	0.001440	0.209639
O7	O	0.076010	0.851560	0.197470	0.559447
O8	O	0.107240	0.013970	0.124880	0.233751
O9	O	0.028820	0.686460	0.021150	0.568084
O10	O	0.106950	0.846400	0.962610	0.245494
O11	O	0.837680	0.900780	0.059820	0.584767
O12	O	0.621730	0.892580	0.090460	0.235285
O13	O	0.292720	0.691890	0.252720	0.568294
O14	O	0.425480	0.685070	0.132330	0.221611
O15	O	0.499500	0.872630	0.280700	0.567199
O16	O	0.496270	0.038310	0.358250	0.207355
O17	O	0.237320	0.846360	0.393910	0.565355
O18	O	0.289080	0.980310	0.498560	0.209639
O19	O	0.576010	0.648440	0.302530	0.559447
O20	O	0.607240	0.486030	0.375120	0.233751
O21	O	0.528820	0.813540	0.478850	0.568084
O22	O	0.606950	0.653600	0.537390	0.245494
O23	O	0.337680	0.599220	0.440180	0.584767
O24	O	0.121730	0.607420	0.409540	0.235285
O25	O	0.207280	0.191890	0.752720	0.568294
O26	O	0.074520	0.185070	0.632330	0.221611
O27	O	0.000500	0.372630	0.780700	0.567199
O28	O	0.003730	0.538310	0.858250	0.207355
O29	O	0.262680	0.346360	0.893910	0.565355
O30	O	0.210920	0.480310	0.998560	0.209639
O31	O	0.923990	0.148440	0.802530	0.559447
O32	O	0.892760	0.986030	0.875120	0.233751
O33	O	0.971180	0.313540	0.978850	0.568084
O34	O	0.893050	0.153600	0.037390	0.245494
O35	O	0.162320	0.099220	0.940180	0.584767
O36	O	0.378270	0.107420	0.909540	0.235285
O37	O	0.707280	0.308110	0.747280	0.568294
O38	O	0.574520	0.314930	0.867670	0.221611
O39	O	0.500500	0.127370	0.719300	0.567199
O40	O	0.503730	0.961690	0.641750	0.207355
O41	O	0.762680	0.153640	0.606090	0.565355
O42	O	0.710920	0.019690	0.501440	0.209639
O43	O	0.423990	0.351560	0.697470	0.559447
O44	O	0.392760	0.513970	0.624880	0.233751
O45	O	0.471180	0.186460	0.521150	0.568084
O46	O	0.393050	0.346400	0.462610	0.245494
O47	O	0.662320	0.400780	0.559820	0.584767
O48	O	0.878270	0.392580	0.590460	0.235285
