data_AVIPAX_clean_PM
_symmetry_space_group_name_H-M	'P1'
_cell_length_a	11.192900
_cell_length_b	12.347500
_cell_length_c	28.673400
_cell_angle_alpha	98.816000
_cell_angle_beta	90.000000
_cell_angle_gamma	90.000000
_symmetry_Int_Tables_number 1

loop_
_symmetry_equiv_pos_as_xyz
'x,y,z'

loop_
_atom_site_label
_atom_site_type_symbol
_atom_site_fract_x
_atom_site_fract_y
_atom_site_fract_z
_atom_site_charge
Mg1	Mg	0.173270	0.337070	0.859880	1.063792
Mg2	Mg	0.457750	0.553410	0.833910	1.104547
Mg3	Mg	0.289800	0.272600	0.141580	1.076499
Mg4	Mg	0.673270	0.162930	0.640120	1.063792
Mg5	Mg	0.957750	0.946590	0.666090	1.104547
Mg6	Mg	0.789800	0.227400	0.358420	1.076499
Mg7	Mg	0.826730	0.662930	0.140120	1.063792
Mg8	Mg	0.542250	0.446590	0.166090	1.104547
Mg9	Mg	0.710200	0.727400	0.858420	1.076499
Mg10	Mg	0.326730	0.837070	0.359880	1.063792
Mg11	Mg	0.042250	0.053410	0.333910	1.104547
Mg12	Mg	0.210200	0.772600	0.641580	1.076499
H1	H	0.516000	0.332000	0.715900	0.094345
H2	H	0.194100	0.195600	0.733600	0.122727
H3	H	0.432700	0.050800	0.638700	0.111163
H4	H	0.343600	0.315600	0.985400	0.130783
H5	H	0.649600	0.424900	0.935200	0.113941
H6	H	0.644900	0.352000	0.063500	0.138752
H7	H	0.966100	0.647600	0.883800	0.111947
H8	H	0.200500	0.680100	0.780200	0.134399
H9	H	0.872000	0.817500	0.784300	0.113158
H10	H	0.016000	0.168000	0.784100	0.094345
H11	H	0.694100	0.304400	0.766400	0.122727
H12	H	0.932700	0.449200	0.861300	0.111163
H13	H	0.843600	0.184400	0.514600	0.130783
H14	H	0.149600	0.075100	0.564800	0.113941
H15	H	0.144900	0.148000	0.436500	0.138752
H16	H	0.466100	0.852400	0.616200	0.111947
H17	H	0.700500	0.819900	0.719800	0.134399
H18	H	0.372000	0.682500	0.715700	0.113158
H19	H	0.484000	0.668000	0.284100	0.094345
H20	H	0.805900	0.804400	0.266400	0.122727
H21	H	0.567300	0.949200	0.361300	0.111163
H22	H	0.656400	0.684400	0.014600	0.130783
H23	H	0.350400	0.575100	0.064800	0.113941
H24	H	0.355100	0.648000	0.936500	0.138752
H25	H	0.033900	0.352400	0.116200	0.111947
H26	H	0.799500	0.319900	0.219800	0.134399
H27	H	0.128000	0.182500	0.215700	0.113158
H28	H	0.984000	0.832000	0.215900	0.094345
H29	H	0.305900	0.695600	0.233600	0.122727
H30	H	0.067300	0.550800	0.138700	0.111163
H31	H	0.156400	0.815600	0.485400	0.130783
H32	H	0.850400	0.924900	0.435200	0.113941
H33	H	0.855100	0.852000	0.563500	0.138752
H34	H	0.533900	0.147600	0.383800	0.111947
H35	H	0.299500	0.180100	0.280200	0.134399
H36	H	0.628000	0.317500	0.284300	0.113158
C1	C	0.460700	0.273900	0.707620	0.075662
C2	C	0.350600	0.278900	0.730910	0.021558
C3	C	0.269700	0.194400	0.718470	-0.067893
C4	C	0.300410	0.107780	0.683580	0.021682
C5	C	0.411900	0.109900	0.662550	0.083626
C6	C	0.324400	0.369140	0.771290	0.456743
C7	C	0.184360	0.582440	0.857370	0.455759
C8	C	0.424600	0.390960	0.907620	0.471909
C9	C	0.414600	0.302600	0.073100	0.434330
C10	C	0.483700	0.331200	0.031540	0.022004
C11	C	0.425000	0.336790	0.989280	-0.058523
C12	C	0.486500	0.373590	0.952750	0.020556
C13	C	0.607100	0.398900	0.959900	0.057242
C14	C	0.604500	0.357100	0.034740	0.073839
C15	C	0.218460	0.011250	0.671100	0.439153
C16	C	0.055490	0.789450	0.727030	0.462297
C17	C	0.037680	0.752310	0.774250	0.019807
C18	C	0.985190	0.676480	0.855890	0.082676
C19	C	0.096620	0.653700	0.835950	0.019192
C20	C	0.124230	0.693190	0.794450	-0.041886
C21	C	0.929300	0.774290	0.797570	0.081678
C22	C	0.960700	0.226100	0.792380	0.075662
C23	C	0.850600	0.221100	0.769090	0.021558
C24	C	0.769700	0.305600	0.781530	-0.067893
C25	C	0.800410	0.392220	0.816420	0.021682
C26	C	0.911900	0.390100	0.837450	0.083626
C27	C	0.824400	0.130860	0.728710	0.456743
C28	C	0.684360	0.917560	0.642630	0.455759
C29	C	0.924600	0.109040	0.592380	0.471909
C30	C	0.914600	0.197400	0.426900	0.434330
C31	C	0.983700	0.168800	0.468460	0.022004
C32	C	0.925000	0.163210	0.510720	-0.058523
C33	C	0.986500	0.126410	0.547250	0.020556
C34	C	0.107100	0.101100	0.540100	0.057242
C35	C	0.104500	0.142900	0.465260	0.073839
C36	C	0.718460	0.488750	0.828900	0.439153
C37	C	0.555490	0.710550	0.772970	0.462297
C38	C	0.537680	0.747690	0.725750	0.019807
C39	C	0.485190	0.823520	0.644110	0.082676
C40	C	0.596620	0.846300	0.664050	0.019192
C41	C	0.624230	0.806810	0.705550	-0.041886
C42	C	0.429300	0.725710	0.702430	0.081678
C43	C	0.539300	0.726100	0.292380	0.075662
C44	C	0.649400	0.721100	0.269090	0.021558
C45	C	0.730300	0.805600	0.281530	-0.067893
C46	C	0.699590	0.892220	0.316420	0.021682
C47	C	0.588100	0.890100	0.337450	0.083626
C48	C	0.675600	0.630860	0.228710	0.456743
C49	C	0.815640	0.417560	0.142630	0.455759
C50	C	0.575400	0.609040	0.092380	0.471909
C51	C	0.585400	0.697400	0.926900	0.434330
C52	C	0.516300	0.668800	0.968460	0.022004
C53	C	0.575000	0.663210	0.010720	-0.058523
C54	C	0.513500	0.626410	0.047250	0.020556
C55	C	0.392900	0.601100	0.040100	0.057242
C56	C	0.395500	0.642900	0.965260	0.073839
C57	C	0.781540	0.988750	0.328900	0.439153
C58	C	0.944510	0.210550	0.272970	0.462297
C59	C	0.962320	0.247690	0.225750	0.019807
C60	C	0.014810	0.323520	0.144110	0.082676
C61	C	0.903380	0.346300	0.164050	0.019192
C62	C	0.875770	0.306810	0.205550	-0.041886
C63	C	0.070700	0.225710	0.202430	0.081678
C64	C	0.039300	0.773900	0.207620	0.075662
C65	C	0.149400	0.778900	0.230910	0.021558
C66	C	0.230300	0.694400	0.218470	-0.067893
C67	C	0.199590	0.607780	0.183580	0.021682
C68	C	0.088100	0.609900	0.162550	0.083626
C69	C	0.175600	0.869140	0.271290	0.456743
C70	C	0.315640	0.082440	0.357370	0.455759
C71	C	0.075400	0.890960	0.407620	0.471909
C72	C	0.085400	0.802600	0.573100	0.434330
C73	C	0.016300	0.831200	0.531540	0.022004
C74	C	0.075000	0.836790	0.489280	-0.058523
C75	C	0.013500	0.873590	0.452750	0.020556
C76	C	0.892900	0.898900	0.459900	0.057242
C77	C	0.895500	0.857100	0.534740	0.073839
C78	C	0.281540	0.511250	0.171100	0.439153
C79	C	0.444510	0.289450	0.227030	0.462297
C80	C	0.462320	0.252310	0.274250	0.019807
C81	C	0.514810	0.176480	0.355890	0.082676
C82	C	0.403380	0.153700	0.335950	0.019192
C83	C	0.375770	0.193190	0.294450	-0.041886
C84	C	0.570700	0.274290	0.297570	0.081678
N1	N	0.491840	0.190500	0.674000	-0.400458
N2	N	0.902130	0.737410	0.837800	-0.364156
N3	N	0.666790	0.388800	0.999500	-0.263582
N4	N	0.991840	0.309500	0.826000	-0.400458
N5	N	0.402130	0.762590	0.662200	-0.364156
N6	N	0.166790	0.111200	0.500500	-0.263582
N7	N	0.508160	0.809500	0.326000	-0.400458
N8	N	0.097870	0.262590	0.162200	-0.364156
N9	N	0.333210	0.611200	0.000500	-0.263582
N10	N	0.008160	0.690500	0.174000	-0.400458
N11	N	0.597870	0.237410	0.337800	-0.364156
N12	N	0.833210	0.888800	0.499500	-0.263582
O1	O	0.292010	0.607350	0.854420	-0.478048
O2	O	0.142250	0.505470	0.876350	-0.563759
O3	O	0.476390	0.451880	0.883170	-0.495815
O4	O	0.327010	0.342420	0.898900	-0.611070
O5	O	0.394410	0.447970	0.777340	-0.470217
O6	O	0.234610	0.355400	0.795800	-0.591655
O7	O	0.462110	0.316830	0.114060	-0.563198
O8	O	0.310390	0.265210	0.066980	-0.547963
O9	O	0.258950	0.932020	0.642550	-0.545026
O10	O	0.119300	0.014990	0.690770	-0.458171
O11	O	0.156930	0.771960	0.708250	-0.611976
O12	O	0.968010	0.832060	0.710310	-0.482371
O13	O	0.792010	0.892650	0.645580	-0.478048
O14	O	0.642250	0.994530	0.623650	-0.563759
O15	O	0.976390	0.048120	0.616830	-0.495815
O16	O	0.827010	0.157580	0.601100	-0.611070
O17	O	0.894410	0.052030	0.722660	-0.470217
O18	O	0.734610	0.144600	0.704200	-0.591655
O19	O	0.962110	0.183170	0.385940	-0.563198
O20	O	0.810390	0.234790	0.433020	-0.547963
O21	O	0.758950	0.567980	0.857450	-0.545026
O22	O	0.619300	0.485010	0.809230	-0.458171
O23	O	0.656930	0.728040	0.791750	-0.611976
O24	O	0.468010	0.667940	0.789690	-0.482371
O25	O	0.707990	0.392650	0.145580	-0.478048
O26	O	0.857750	0.494530	0.123650	-0.563759
O27	O	0.523610	0.548120	0.116830	-0.495815
O28	O	0.672990	0.657580	0.101100	-0.611070
O29	O	0.605590	0.552030	0.222660	-0.470217
O30	O	0.765390	0.644600	0.204200	-0.591655
O31	O	0.537890	0.683170	0.885940	-0.563198
O32	O	0.689610	0.734790	0.933020	-0.547963
O33	O	0.741050	0.067980	0.357450	-0.545026
O34	O	0.880700	0.985010	0.309230	-0.458171
O35	O	0.843070	0.228040	0.291750	-0.611976
O36	O	0.031990	0.167940	0.289690	-0.482371
O37	O	0.207990	0.107350	0.354420	-0.478048
O38	O	0.357750	0.005470	0.376350	-0.563759
O39	O	0.023610	0.951880	0.383170	-0.495815
O40	O	0.172990	0.842420	0.398900	-0.611070
O41	O	0.105590	0.947970	0.277340	-0.470217
O42	O	0.265390	0.855400	0.295800	-0.591655
O43	O	0.037890	0.816830	0.614060	-0.563198
O44	O	0.189610	0.765210	0.566980	-0.547963
O45	O	0.241050	0.432020	0.142550	-0.545026
O46	O	0.380700	0.514990	0.190770	-0.458171
O47	O	0.343070	0.271960	0.208250	-0.611976
O48	O	0.531990	0.332060	0.210310	-0.482371
