data_BEXSAA_clean_PM
_symmetry_space_group_name_H-M	'P1'
_cell_length_a	12.552800
_cell_length_b	12.663000
_cell_length_c	18.189000
_cell_angle_alpha	90.000000
_cell_angle_beta	90.000000
_cell_angle_gamma	113.388001
_symmetry_Int_Tables_number 1

loop_
_symmetry_equiv_pos_as_xyz
'x,y,z'

loop_
_atom_site_label
_atom_site_type_symbol
_atom_site_fract_x
_atom_site_fract_y
_atom_site_fract_z
_atom_site_charge
Mn1	Mn	0.677340	0.072900	0.209090	1.018793
Mn2	Mn	0.822660	0.927100	0.709090	1.018793
Mn3	Mn	0.322660	0.927100	0.790910	1.018793
Mn4	Mn	0.177340	0.072900	0.290910	1.018793
Mn5	Mn	0.500000	0.500000	0.000000	1.099835
Mn6	Mn	0.000000	0.500000	0.500000	1.099835
H1	H	0.259100	0.391400	0.182500	0.141570
H2	H	0.166800	0.653600	0.127800	0.127768
H3	H	0.984100	0.421100	0.282300	0.127411
H4	H	0.025100	0.691600	0.203000	0.087584
H5	H	0.949900	0.599000	0.263300	0.093229
H6	H	0.874500	0.741200	0.223400	0.119890
H7	H	0.595700	0.723000	0.103900	0.117862
H8	H	0.725800	0.489800	0.072600	0.124014
H9	H	0.240900	0.608600	0.682500	0.141570
H10	H	0.333200	0.346400	0.627800	0.127768
H11	H	0.515900	0.578900	0.782300	0.127411
H12	H	0.474900	0.308400	0.703000	0.087584
H13	H	0.550100	0.401000	0.763300	0.093229
H14	H	0.625500	0.258800	0.723400	0.119890
H15	H	0.904300	0.277000	0.603900	0.117862
H16	H	0.774200	0.510200	0.572600	0.124014
H17	H	0.740900	0.608600	0.817500	0.141570
H18	H	0.833200	0.346400	0.872200	0.127768
H19	H	0.015900	0.578900	0.717700	0.127411
H20	H	0.974900	0.308400	0.797000	0.087584
H21	H	0.050100	0.401000	0.736700	0.093229
H22	H	0.125500	0.258800	0.776600	0.119890
H23	H	0.404300	0.277000	0.896100	0.117862
H24	H	0.274200	0.510200	0.927400	0.124014
H25	H	0.759100	0.391400	0.317500	0.141570
H26	H	0.666800	0.653600	0.372200	0.127768
H27	H	0.484100	0.421100	0.217700	0.127411
H28	H	0.525100	0.691600	0.297000	0.087584
H29	H	0.449900	0.599000	0.236700	0.093229
H30	H	0.374500	0.741200	0.276600	0.119890
H31	H	0.095700	0.723000	0.396100	0.117862
H32	H	0.225800	0.489800	0.427400	0.124014
C1	C	0.102500	0.283400	0.282730	0.418882
C2	C	0.118800	0.390300	0.238790	0.040152
C3	C	0.209000	0.430700	0.188320	-0.023188
C4	C	0.226900	0.528000	0.146100	0.036530
C5	C	0.321700	0.566300	0.088840	0.402580
C6	C	0.153900	0.586100	0.155650	-0.087995
C7	C	0.062400	0.546200	0.205560	0.045594
C8	C	0.045700	0.448200	0.247580	-0.093264
C9	C	0.982700	0.608500	0.213030	0.049267
C10	C	0.815300	0.608500	0.149710	0.172243
C11	C	0.817800	0.705600	0.186630	-0.121475
C12	C	0.735500	0.749800	0.168690	0.035380
C13	C	0.738600	0.857500	0.205670	0.408473
C14	C	0.651900	0.693000	0.115900	0.081756
C15	C	0.728000	0.556600	0.097490	0.092503
C16	C	0.397500	0.716600	0.782730	0.418882
C17	C	0.381200	0.609700	0.738790	0.040152
C18	C	0.291000	0.569300	0.688320	-0.023188
C19	C	0.273100	0.472000	0.646100	0.036530
C20	C	0.178300	0.433700	0.588840	0.402580
C21	C	0.346100	0.413900	0.655650	-0.087995
C22	C	0.437600	0.453800	0.705560	0.045594
C23	C	0.454300	0.551800	0.747580	-0.093264
C24	C	0.517300	0.391500	0.713030	0.049267
C25	C	0.684700	0.391500	0.649710	0.172243
C26	C	0.682200	0.294400	0.686630	-0.121475
C27	C	0.764500	0.250200	0.668690	0.035380
C28	C	0.761400	0.142500	0.705670	0.408473
C29	C	0.848100	0.307000	0.615900	0.081756
C30	C	0.772000	0.443400	0.597490	0.092503
C31	C	0.897500	0.716600	0.717270	0.418882
C32	C	0.881200	0.609700	0.761210	0.040152
C33	C	0.791000	0.569300	0.811680	-0.023188
C34	C	0.773100	0.472000	0.853900	0.036530
C35	C	0.678300	0.433700	0.911160	0.402580
C36	C	0.846100	0.413900	0.844350	-0.087995
C37	C	0.937600	0.453800	0.794440	0.045594
C38	C	0.954300	0.551800	0.752420	-0.093264
C39	C	0.017300	0.391500	0.786970	0.049267
C40	C	0.184700	0.391500	0.850290	0.172243
C41	C	0.182200	0.294400	0.813370	-0.121475
C42	C	0.264500	0.250200	0.831310	0.035380
C43	C	0.261400	0.142500	0.794330	0.408473
C44	C	0.348100	0.307000	0.884100	0.081756
C45	C	0.272000	0.443400	0.902510	0.092503
C46	C	0.602500	0.283400	0.217270	0.418882
C47	C	0.618800	0.390300	0.261210	0.040152
C48	C	0.709000	0.430700	0.311680	-0.023188
C49	C	0.726900	0.528000	0.353900	0.036530
C50	C	0.821700	0.566300	0.411160	0.402580
C51	C	0.653900	0.586100	0.344350	-0.087995
C52	C	0.562400	0.546200	0.294440	0.045594
C53	C	0.545700	0.448200	0.252420	-0.093264
C54	C	0.482700	0.608500	0.286970	0.049267
C55	C	0.315300	0.608500	0.350290	0.172243
C56	C	0.317800	0.705600	0.313370	-0.121475
C57	C	0.235500	0.749800	0.331310	0.035380
C58	C	0.238600	0.857500	0.294330	0.408473
C59	C	0.151900	0.693000	0.384100	0.081756
C60	C	0.228000	0.556600	0.402510	0.092503
N1	N	0.647520	0.597700	0.081270	-0.416121
N2	N	0.852480	0.402300	0.581270	-0.416121
N3	N	0.352480	0.402300	0.918730	-0.416121
N4	N	0.147520	0.597700	0.418730	-0.416121
O1	O	0.173400	0.238630	0.270770	-0.677110
O2	O	0.019970	0.245920	0.328490	-0.368610
O3	O	0.334600	0.654580	0.050750	-0.350568
O4	O	0.379000	0.505650	0.081640	-0.665754
O5	O	0.891060	0.556700	0.159150	-0.407688
O6	O	0.671500	0.901500	0.183590	-0.674825
O7	O	0.809000	0.896100	0.258360	-0.404801
O8	O	0.326600	0.761370	0.770770	-0.677110
O9	O	0.480030	0.754080	0.828490	-0.368610
O10	O	0.165400	0.345420	0.550750	-0.350568
O11	O	0.121000	0.494350	0.581640	-0.665754
O12	O	0.608940	0.443300	0.659150	-0.407688
O13	O	0.828500	0.098500	0.683590	-0.674825
O14	O	0.691000	0.103900	0.758360	-0.404801
O15	O	0.826600	0.761370	0.729230	-0.677110
O16	O	0.980030	0.754080	0.671510	-0.368610
O17	O	0.665400	0.345420	0.949250	-0.350568
O18	O	0.621000	0.494350	0.918360	-0.665754
O19	O	0.108940	0.443300	0.840850	-0.407688
O20	O	0.328500	0.098500	0.816410	-0.674825
O21	O	0.191000	0.103900	0.741640	-0.404801
O22	O	0.673400	0.238630	0.229230	-0.677110
O23	O	0.519970	0.245920	0.171510	-0.368610
O24	O	0.834600	0.654580	0.449250	-0.350568
O25	O	0.879000	0.505650	0.418360	-0.665754
O26	O	0.391060	0.556700	0.340850	-0.407688
O27	O	0.171500	0.901500	0.316410	-0.674825
O28	O	0.309000	0.896100	0.241640	-0.404801
