data_BIBXUH_clean_PM
_symmetry_space_group_name_H-M	'P1'
_cell_length_a	17.946500
_cell_length_b	17.946500
_cell_length_c	17.946500
_cell_angle_alpha	60.000000
_cell_angle_beta	60.000000
_cell_angle_gamma	60.000001
_symmetry_Int_Tables_number 1

loop_
_symmetry_equiv_pos_as_xyz
'x,y,z'

loop_
_atom_site_label
_atom_site_type_symbol
_atom_site_fract_x
_atom_site_fract_y
_atom_site_fract_z
_atom_site_charge
Ni1	Ni	0.828730	0.057090	0.057090	1.259649
Ni2	Ni	0.057090	0.828730	0.057090	1.259649
Ni3	Ni	0.057090	0.057090	0.828730	1.259649
Ni4	Ni	0.057090	0.057090	0.057090	1.259649
Ni5	Ni	0.942910	0.171270	0.942910	1.259649
Ni6	Ni	0.171270	0.942910	0.942910	1.259649
Ni7	Ni	0.942910	0.942910	0.171270	1.259649
Ni8	Ni	0.942910	0.942910	0.942910	1.259649
H1	H	0.875640	0.124360	0.124360	0.494573
H2	H	0.124360	0.875640	0.875640	0.494573
H3	H	0.875640	0.124360	0.875640	0.494573
H4	H	0.124360	0.875640	0.124360	0.494573
H5	H	0.875640	0.875640	0.124360	0.494573
H6	H	0.124360	0.124360	0.875640	0.494573
H7	H	0.514650	0.645050	0.920150	0.076384
H8	H	0.392510	0.765390	0.921050	0.055608
H9	H	0.645050	0.514650	0.920150	0.076384
H10	H	0.765390	0.392510	0.921050	0.055608
H11	H	0.920150	0.920150	0.514650	0.076386
H12	H	0.921050	0.921050	0.392510	0.055607
H13	H	0.920150	0.920150	0.645050	0.076383
H14	H	0.921050	0.921050	0.765390	0.055607
H15	H	0.514650	0.920150	0.920150	0.076385
H16	H	0.392510	0.921050	0.921050	0.055607
H17	H	0.645050	0.920150	0.920150	0.076383
H18	H	0.765390	0.921050	0.921050	0.055607
H19	H	0.920150	0.514650	0.645050	0.076384
H20	H	0.921050	0.392510	0.765390	0.055607
H21	H	0.920150	0.645050	0.514650	0.076384
H22	H	0.921050	0.765390	0.392510	0.055608
H23	H	0.514650	0.920150	0.645050	0.076384
H24	H	0.392510	0.921050	0.765390	0.055607
H25	H	0.645050	0.920150	0.514650	0.076384
H26	H	0.765390	0.921050	0.392510	0.055608
H27	H	0.920150	0.645050	0.920150	0.076383
H28	H	0.921050	0.765390	0.921050	0.055607
H29	H	0.920150	0.514650	0.920150	0.076385
H30	H	0.921050	0.392510	0.921050	0.055607
H31	H	0.354950	0.485350	0.079850	0.076384
H32	H	0.234610	0.607490	0.078950	0.055608
H33	H	0.485350	0.354950	0.079850	0.076384
H34	H	0.607490	0.234610	0.078950	0.055608
H35	H	0.079850	0.079850	0.485350	0.076386
H36	H	0.078950	0.078950	0.607490	0.055607
H37	H	0.079850	0.079850	0.354950	0.076383
H38	H	0.078950	0.078950	0.234610	0.055607
H39	H	0.079850	0.485350	0.079850	0.076385
H40	H	0.078950	0.607490	0.078950	0.055607
H41	H	0.079850	0.354950	0.079850	0.076383
H42	H	0.078950	0.234610	0.078950	0.055607
H43	H	0.485350	0.079850	0.354950	0.076384
H44	H	0.607490	0.078950	0.234610	0.055608
H45	H	0.354950	0.079850	0.485350	0.076384
H46	H	0.234610	0.078950	0.607490	0.055608
H47	H	0.079850	0.485350	0.354950	0.076384
H48	H	0.078950	0.607490	0.234610	0.055608
H49	H	0.079850	0.354950	0.485350	0.076384
H50	H	0.078950	0.234610	0.607490	0.055608
H51	H	0.354950	0.079850	0.079850	0.076383
H52	H	0.234610	0.078950	0.078950	0.055607
H53	H	0.485350	0.079850	0.079850	0.076385
H54	H	0.607490	0.078950	0.078950	0.055607
C1	C	0.422540	0.577460	0.000000	0.029442
C2	C	0.341760	0.658240	0.000000	0.009318
C3	C	0.577460	0.422540	0.000000	0.029442
C4	C	0.658240	0.341760	-0.000000	0.009318
C5	C	0.000000	0.000000	0.422540	0.029442
C6	C	0.000000	0.000000	0.341760	0.009318
C7	C	0.000000	0.000000	0.577460	0.029442
C8	C	0.000000	0.000000	0.658240	0.009318
C9	C	0.422540	0.000000	-0.000000	0.029442
C10	C	0.341760	0.000000	0.000000	0.009318
C11	C	0.577460	-0.000000	-0.000000	0.029442
C12	C	0.658240	-0.000000	-0.000000	0.009318
C13	C	0.000000	0.422540	0.577460	0.029442
C14	C	0.000000	0.341760	0.658240	0.009318
C15	C	0.000000	0.577460	0.422540	0.029442
C16	C	0.000000	0.658240	0.341760	0.009318
C17	C	0.422540	0.000000	0.577460	0.029442
C18	C	0.341760	0.000000	0.658240	0.009318
C19	C	0.577460	-0.000000	0.422540	0.029442
C20	C	0.658240	-0.000000	0.341760	0.009318
C21	C	0.000000	0.577460	0.000000	0.029442
C22	C	0.000000	0.658240	0.000000	0.009318
C23	C	0.000000	0.422540	0.000000	0.029442
C24	C	0.000000	0.341760	0.000000	0.009318
C25	C	0.508710	0.586150	0.952570	-0.099847
C26	C	0.340550	0.746150	0.956650	0.046545
C27	C	0.586150	0.508710	0.952570	-0.099847
C28	C	0.746150	0.340550	0.956650	0.046545
C29	C	0.952570	0.952570	0.508710	-0.099854
C30	C	0.956650	0.956650	0.340550	0.046545
C31	C	0.952570	0.952570	0.586150	-0.099840
C32	C	0.956650	0.956650	0.746150	0.046544
C33	C	0.508710	0.952570	0.952570	-0.099853
C34	C	0.340550	0.956650	0.956650	0.046545
C35	C	0.586150	0.952570	0.952570	-0.099841
C36	C	0.746150	0.956650	0.956650	0.046544
C37	C	0.952570	0.508710	0.586150	-0.099846
C38	C	0.956650	0.340550	0.746150	0.046545
C39	C	0.952570	0.586150	0.508710	-0.099847
C40	C	0.956650	0.746150	0.340550	0.046545
C41	C	0.508710	0.952570	0.586150	-0.099846
C42	C	0.340550	0.956650	0.746150	0.046545
C43	C	0.586150	0.952570	0.508710	-0.099847
C44	C	0.746150	0.956650	0.340550	0.046545
C45	C	0.952570	0.586150	0.952570	-0.099841
C46	C	0.956650	0.746150	0.956650	0.046544
C47	C	0.952570	0.508710	0.952570	-0.099853
C48	C	0.956650	0.340550	0.956650	0.046545
C49	C	0.413850	0.491290	0.047430	-0.099847
C50	C	0.253850	0.659450	0.043350	0.046545
C51	C	0.491290	0.413850	0.047430	-0.099847
C52	C	0.659450	0.253850	0.043350	0.046545
C53	C	0.047430	0.047430	0.491290	-0.099854
C54	C	0.043350	0.043350	0.659450	0.046545
C55	C	0.047430	0.047430	0.413850	-0.099840
C56	C	0.043350	0.043350	0.253850	0.046544
C57	C	0.047430	0.491290	0.047430	-0.099853
C58	C	0.043350	0.659450	0.043350	0.046545
C59	C	0.047430	0.413850	0.047430	-0.099841
C60	C	0.043350	0.253850	0.043350	0.046544
C61	C	0.491290	0.047430	0.413850	-0.099846
C62	C	0.659450	0.043350	0.253850	0.046545
C63	C	0.413850	0.047430	0.491290	-0.099847
C64	C	0.253850	0.043350	0.659450	0.046545
C65	C	0.047430	0.491290	0.413850	-0.099846
C66	C	0.043350	0.659450	0.253850	0.046545
C67	C	0.047430	0.413850	0.491290	-0.099847
C68	C	0.043350	0.253850	0.659450	0.046545
C69	C	0.413850	0.047430	0.047430	-0.099841
C70	C	0.253850	0.043350	0.043350	0.046544
C71	C	0.491290	0.047430	0.047430	-0.099853
C72	C	0.659450	0.043350	0.043350	0.046545
N1	N	0.251930	0.801650	0.973210	-0.262626
N2	N	0.801650	0.251930	0.973210	-0.262626
N3	N	0.973210	0.973210	0.251930	-0.262627
N4	N	0.973210	0.973210	0.801650	-0.262626
N5	N	0.251930	0.973210	0.973210	-0.262627
N6	N	0.801650	0.973210	0.973210	-0.262626
N7	N	0.973210	0.251930	0.801650	-0.262626
N8	N	0.973210	0.801650	0.251930	-0.262626
N9	N	0.251930	0.973210	0.801650	-0.262626
N10	N	0.801650	0.973210	0.251930	-0.262626
N11	N	0.973210	0.801650	0.973210	-0.262626
N12	N	0.973210	0.251930	0.973210	-0.262627
N13	N	0.198350	0.748070	0.026790	-0.262626
N14	N	0.748070	0.198350	0.026790	-0.262626
N15	N	0.026790	0.026790	0.748070	-0.262627
N16	N	0.026790	0.026790	0.198350	-0.262626
N17	N	0.026790	0.748070	0.026790	-0.262627
N18	N	0.026790	0.198350	0.026790	-0.262626
N19	N	0.748070	0.026790	0.198350	-0.262626
N20	N	0.198350	0.026790	0.748070	-0.262626
N21	N	0.026790	0.748070	0.198350	-0.262626
N22	N	0.026790	0.198350	0.748070	-0.262626
N23	N	0.198350	0.026790	0.026790	-0.262626
N24	N	0.748070	0.026790	0.026790	-0.262627
O1	O	0.913070	0.086930	0.086930	-1.515878
O2	O	0.086930	0.913070	0.913070	-1.515878
O3	O	0.913070	0.086930	0.913070	-1.515878
O4	O	0.086930	0.913070	0.086930	-1.515878
O5	O	0.913070	0.913070	0.086930	-1.515878
O6	O	0.086930	0.086930	0.913070	-1.515878
