data_BONWAD_clean_PM
_symmetry_space_group_name_H-M	'P1'
_cell_length_a	9.029000
_cell_length_b	10.934000
_cell_length_c	13.146000
_cell_angle_alpha	90.031001
_cell_angle_beta	90.000000
_cell_angle_gamma	90.000000
_symmetry_Int_Tables_number 1

loop_
_symmetry_equiv_pos_as_xyz
'x,y,z'

loop_
_atom_site_label
_atom_site_type_symbol
_atom_site_fract_x
_atom_site_fract_y
_atom_site_fract_z
_atom_site_charge
Zn1	Zn	0.805830	0.105520	0.803060	1.179152
Zn2	Zn	0.486940	0.265470	0.071470	1.074719
Zn3	Zn	0.305830	0.394480	0.696940	1.179152
Zn4	Zn	0.986940	0.234530	0.428530	1.074719
Zn5	Zn	0.194170	0.894480	0.196940	1.179152
Zn6	Zn	0.513060	0.734530	0.928530	1.074719
Zn7	Zn	0.694170	0.605520	0.303060	1.179152
Zn8	Zn	0.013060	0.765470	0.571470	1.074719
H1	H	0.649500	0.937200	0.124100	0.132234
H2	H	0.607200	0.087300	0.297700	0.151418
H3	H	0.897800	0.984900	0.111600	0.132492
H4	H	0.859400	0.216900	0.126800	0.138118
H5	H	0.149500	0.562800	0.375900	0.132234
H6	H	0.107200	0.412700	0.202300	0.151418
H7	H	0.397800	0.515100	0.388400	0.132492
H8	H	0.359400	0.283100	0.373200	0.138118
H9	H	0.350500	0.062800	0.875900	0.132234
H10	H	0.392800	0.912700	0.702300	0.151418
H11	H	0.102200	0.015100	0.888400	0.132492
H12	H	0.140600	0.783100	0.873200	0.138118
H13	H	0.850500	0.437200	0.624100	0.132234
H14	H	0.892800	0.587300	0.797700	0.151418
H15	H	0.602200	0.484900	0.611600	0.132492
H16	H	0.640600	0.716900	0.626800	0.138118
C1	C	0.749100	0.140780	0.003370	0.443429
C2	C	0.692100	0.968700	0.187430	0.001132
C3	C	0.435500	0.052900	0.196480	0.438814
C4	C	0.596900	0.076730	0.224020	0.145630
C5	C	0.842000	0.032000	0.162130	-0.037635
C6	C	0.785400	0.152500	0.116750	0.138153
C7	C	0.698700	0.864700	0.264450	0.394444
C8	C	0.934700	0.054600	0.257230	0.472613
C9	C	0.249100	0.359220	0.496630	0.443429
C10	C	0.192100	0.531300	0.312570	0.001132
C11	C	0.935500	0.447100	0.303520	0.438814
C12	C	0.096900	0.423270	0.275980	0.145630
C13	C	0.342000	0.468000	0.337870	-0.037635
C14	C	0.285400	0.347500	0.383250	0.138153
C15	C	0.198700	0.635300	0.235550	0.394444
C16	C	0.434700	0.445400	0.242770	0.472613
C17	C	0.250900	0.859220	0.996630	0.443429
C18	C	0.307900	0.031300	0.812570	0.001132
C19	C	0.564500	0.947100	0.803520	0.438814
C20	C	0.403100	0.923270	0.775980	0.145630
C21	C	0.158000	0.968000	0.837870	-0.037635
C22	C	0.214600	0.847500	0.883250	0.138153
C23	C	0.301300	0.135300	0.735550	0.394444
C24	C	0.065300	0.945400	0.742770	0.472613
C25	C	0.750900	0.640780	0.503370	0.443429
C26	C	0.807900	0.468700	0.687430	0.001132
C27	C	0.064500	0.552900	0.696480	0.438814
C28	C	0.903100	0.576730	0.724020	0.145630
C29	C	0.658000	0.532000	0.662130	-0.037635
C30	C	0.714600	0.652500	0.616750	0.138153
C31	C	0.801300	0.364700	0.764450	0.394444
C32	C	0.565300	0.554600	0.757230	0.472613
O1	O	0.652360	0.182710	0.171550	-0.550119
O2	O	0.893640	0.138900	0.313900	-0.570281
O3	O	0.622400	0.161720	0.971470	-0.572465
O4	O	0.858290	0.110660	0.946860	-0.615493
O5	O	0.687300	0.758360	0.226570	-0.559201
O6	O	0.374260	0.111860	0.127410	-0.511377
O7	O	0.045500	0.987230	0.274630	-0.588008
O8	O	0.712700	0.886570	0.355210	-0.289719
O9	O	0.378450	0.966260	0.245960	-0.548051
O10	O	0.152360	0.317290	0.328450	-0.550119
O11	O	0.393640	0.361100	0.186100	-0.570281
O12	O	0.122400	0.338280	0.528530	-0.572465
O13	O	0.358290	0.389340	0.553140	-0.615493
O14	O	0.187300	0.741640	0.273430	-0.559201
O15	O	0.874260	0.388140	0.372590	-0.511377
O16	O	0.545500	0.512770	0.225370	-0.588008
O17	O	0.212700	0.613430	0.144790	-0.289719
O18	O	0.878450	0.533740	0.254040	-0.548051
O19	O	0.347640	0.817290	0.828450	-0.550119
O20	O	0.106360	0.861100	0.686100	-0.570281
O21	O	0.377600	0.838280	0.028530	-0.572465
O22	O	0.141710	0.889340	0.053140	-0.615493
O23	O	0.312700	0.241640	0.773430	-0.559201
O24	O	0.625740	0.888140	0.872590	-0.511377
O25	O	0.954500	0.012770	0.725370	-0.588008
O26	O	0.287300	0.113430	0.644790	-0.289719
O27	O	0.621550	0.033740	0.754040	-0.548051
O28	O	0.847640	0.682710	0.671550	-0.550119
O29	O	0.606360	0.638900	0.813900	-0.570281
O30	O	0.877600	0.661720	0.471470	-0.572465
O31	O	0.641710	0.610660	0.446860	-0.615493
O32	O	0.812700	0.258360	0.726570	-0.559201
O33	O	0.125740	0.611860	0.627410	-0.511377
O34	O	0.454500	0.487230	0.774630	-0.588008
O35	O	0.787300	0.386570	0.855210	-0.289719
O36	O	0.121550	0.466260	0.745960	-0.548051
