data_CAXVII_clean_PM
_symmetry_space_group_name_H-M	'P1'
_cell_length_a	6.894500
_cell_length_b	15.240300
_cell_length_c	15.240300
_cell_angle_alpha	117.767899
_cell_angle_beta	98.672999
_cell_angle_gamma	98.672999
_symmetry_Int_Tables_number 1

loop_
_symmetry_equiv_pos_as_xyz
'x,y,z'

loop_
_atom_site_label
_atom_site_type_symbol
_atom_site_fract_x
_atom_site_fract_y
_atom_site_fract_z
_atom_site_charge
Fe1	Fe	0.889000	0.679200	0.412600	1.347398
Fe2	Fe	0.476400	0.587400	0.266600	1.347398
Fe3	Fe	0.209800	0.733400	0.320800	1.347397
Fe4	Fe	0.111000	0.320800	0.587400	1.347398
Fe5	Fe	0.523600	0.412600	0.733400	1.347398
Fe6	Fe	0.790200	0.266600	0.679200	1.347397
H1	H	0.658300	0.030700	0.462200	0.160317
H2	H	0.196100	0.537800	0.568500	0.160317
H3	H	0.627600	0.431500	0.969300	0.160317
H4	H	0.341700	0.969300	0.537800	0.160317
H5	H	0.803900	0.462200	0.431500	0.160317
H6	H	0.372400	0.568500	0.030700	0.160317
C1	C	0.628600	0.829200	0.382600	0.627624
C2	C	0.838100	0.910600	0.448800	0.031705
C3	C	0.045800	0.900800	0.464600	0.292695
C4	C	0.797600	0.003300	0.472500	-0.053217
C5	C	0.246000	0.617400	0.446600	0.627625
C6	C	0.389300	0.551200	0.461800	0.031705
C7	C	0.581200	0.535400	0.436200	0.292695
C8	C	0.325100	0.527500	0.530800	-0.053217
C9	C	0.799400	0.553400	0.170800	0.627624
C10	C	0.927500	0.538200	0.089400	0.031705
C11	C	0.145000	0.563800	0.099200	0.292695
C12	C	0.794300	0.469200	0.996700	-0.053217
C13	C	0.371400	0.170800	0.617400	0.627624
C14	C	0.161900	0.089400	0.551200	0.031705
C15	C	0.954200	0.099200	0.535400	0.292695
C16	C	0.202400	0.996700	0.527500	-0.053217
C17	C	0.754000	0.382600	0.553400	0.627625
C18	C	0.610700	0.448800	0.538200	0.031705
C19	C	0.418800	0.464600	0.563800	0.292695
C20	C	0.674900	0.472500	0.469200	-0.053217
C21	C	0.200600	0.446600	0.829200	0.627624
C22	C	0.072500	0.461800	0.910600	0.031705
C23	C	0.855000	0.436200	0.900800	0.292695
C24	C	0.205700	0.530800	0.003300	-0.053217
O1	O	0.668000	0.748500	0.353500	-0.799793
O2	O	0.473600	0.844800	0.376000	-0.738547
O3	O	0.077000	0.817000	0.444000	-0.868181
O4	O	0.314500	0.646500	0.395000	-0.799794
O5	O	0.097600	0.624000	0.468800	-0.738547
O6	O	0.633000	0.556000	0.373000	-0.868181
O7	O	0.919500	0.605000	0.251500	-0.799792
O8	O	0.628800	0.531200	0.155200	-0.738547
O9	O	0.260000	0.627000	0.183000	-0.868181
O10	O	0.332000	0.251500	0.646500	-0.799793
O11	O	0.526400	0.155200	0.624000	-0.738547
O12	O	0.923000	0.183000	0.556000	-0.868181
O13	O	0.685500	0.353500	0.605000	-0.799794
O14	O	0.902400	0.376000	0.531200	-0.738547
O15	O	0.367000	0.444000	0.627000	-0.868181
O16	O	0.080500	0.395000	0.748500	-0.799792
O17	O	0.371200	0.468800	0.844800	-0.738547
O18	O	0.740000	0.373000	0.817000	-0.868181
