data_CAYBAH_PM
_symmetry_space_group_name_H-M	'P1'
_cell_length_a	11.844700
_cell_length_b	11.844700
_cell_length_c	18.978200
_cell_angle_alpha	90.000000
_cell_angle_beta	90.000000
_cell_angle_gamma	90.000000
_symmetry_Int_Tables_number 1

loop_
_symmetry_equiv_pos_as_xyz
'x,y,z'

loop_
_atom_site_label
_atom_site_type_symbol
_atom_site_fract_x
_atom_site_fract_y
_atom_site_fract_z
_atom_site_charge
Cu1	Cu	0.000000	0.750000	0.125000	1.010885
Cu2	Cu	0.500000	0.250000	0.625000	1.010885
Cu3	Cu	0.500000	0.750000	0.375000	1.010885
Cu4	Cu	0.000000	0.250000	0.875000	1.010885
Cu5	Cu	0.750000	0.750000	0.250000	1.048705
Cu6	Cu	0.750000	0.250000	0.750000	1.048705
Cu7	Cu	0.500000	0.500000	0.500000	1.048705
Cu8	Cu	0.000000	0.500000	0.000000	1.048705
Cu9	Cu	0.250000	0.250000	0.750000	1.048705
Cu10	Cu	0.250000	0.750000	0.250000	1.048705
Cu11	Cu	0.000000	0.000000	0.000000	1.048705
Cu12	Cu	0.500000	0.000000	0.500000	1.048705
H1	H	0.896700	0.750000	0.395800	0.073307
H2	H	0.603300	0.250000	0.895800	0.073307
H3	H	0.500000	0.646700	0.645800	0.073307
H4	H	0.000000	0.353300	0.145800	0.073307
H5	H	0.603300	0.750000	0.104200	0.073307
H6	H	0.896700	0.250000	0.604200	0.073307
H7	H	0.000000	0.646700	0.854200	0.073307
H8	H	0.500000	0.353300	0.354200	0.073307
H9	H	0.396700	0.250000	0.895800	0.073307
H10	H	0.103300	0.750000	0.395800	0.073307
H11	H	0.000000	0.146700	0.145800	0.073307
H12	H	0.500000	0.853300	0.645800	0.073307
H13	H	0.103300	0.250000	0.604200	0.073307
H14	H	0.396700	0.750000	0.104200	0.073307
H15	H	0.500000	0.146700	0.354200	0.073307
H16	H	0.000000	0.853300	0.854200	0.073307
H17	H	0.669600	0.995500	0.177200	0.066897
H18	H	0.830400	0.004500	0.677200	0.066897
H19	H	0.254500	0.419600	0.427200	0.066897
H20	H	0.245500	0.580400	0.927200	0.066897
H21	H	0.830400	0.995500	0.322800	0.066897
H22	H	0.669600	0.004500	0.822800	0.066897
H23	H	0.245500	0.419600	0.072800	0.066897
H24	H	0.254500	0.580400	0.572800	0.066897
H25	H	0.169600	0.495500	0.677200	0.066897
H26	H	0.330400	0.504500	0.177200	0.066897
H27	H	0.754500	0.919600	0.927200	0.066897
H28	H	0.745500	0.080400	0.427200	0.066897
H29	H	0.330400	0.495500	0.822800	0.066897
H30	H	0.169600	0.504500	0.322800	0.066897
H31	H	0.745500	0.919600	0.572800	0.066897
H32	H	0.754500	0.080400	0.072800	0.066897
H33	H	0.330400	0.004500	0.822800	0.066897
H34	H	0.169600	0.995500	0.322800	0.066897
H35	H	0.745500	0.580400	0.572800	0.066897
H36	H	0.754500	0.419600	0.072800	0.066897
H37	H	0.169600	0.004500	0.677200	0.066897
H38	H	0.330400	0.995500	0.177200	0.066897
H39	H	0.754500	0.580400	0.927200	0.066897
H40	H	0.745500	0.419600	0.427200	0.066897
H41	H	0.830400	0.504500	0.322800	0.066897
H42	H	0.669600	0.495500	0.822800	0.066897
H43	H	0.245500	0.080400	0.072800	0.066897
H44	H	0.254500	0.919600	0.572800	0.066897
H45	H	0.669600	0.504500	0.177200	0.066897
H46	H	0.830400	0.495500	0.677200	0.066897
H47	H	0.254500	0.080400	0.427200	0.066897
H48	H	0.245500	0.919600	0.927200	0.066897
C1	C	0.943000	0.750000	0.356200	0.069111
C2	C	0.557000	0.250000	0.856200	0.069111
C3	C	0.500000	0.693000	0.606200	0.069111
C4	C	0.000000	0.307000	0.106200	0.069111
C5	C	0.557000	0.750000	0.143800	0.069111
C6	C	0.943000	0.250000	0.643800	0.069111
C7	C	0.000000	0.693000	0.893800	0.069111
C8	C	0.500000	0.307000	0.393800	0.069111
C9	C	0.443000	0.250000	0.856200	0.069111
C10	C	0.057000	0.750000	0.356200	0.069111
C11	C	0.000000	0.193000	0.106200	0.069111
C12	C	0.500000	0.807000	0.606200	0.069111
C13	C	0.057000	0.250000	0.643800	0.069111
C14	C	0.443000	0.750000	0.143800	0.069111
C15	C	0.500000	0.193000	0.393800	0.069111
C16	C	0.000000	0.807000	0.893800	0.069111
C17	C	0.733500	0.969400	0.153900	0.057156
C18	C	0.766500	0.030600	0.653900	0.057156
C19	C	0.280600	0.483500	0.403900	0.057156
C20	C	0.219400	0.516500	0.903900	0.057156
C21	C	0.766500	0.969400	0.346100	0.057156
C22	C	0.733500	0.030600	0.846100	0.057156
C23	C	0.219400	0.483500	0.096100	0.057156
C24	C	0.280600	0.516500	0.596100	0.057156
C25	C	0.233500	0.469400	0.653900	0.057156
C26	C	0.266500	0.530600	0.153900	0.057156
C27	C	0.780600	0.983500	0.903900	0.057156
C28	C	0.719400	0.016500	0.403900	0.057156
C29	C	0.266500	0.469400	0.846100	0.057156
C30	C	0.233500	0.530600	0.346100	0.057156
C31	C	0.719400	0.983500	0.596100	0.057156
C32	C	0.780600	0.016500	0.096100	0.057156
C33	C	0.266500	0.030600	0.846100	0.057156
C34	C	0.233500	0.969400	0.346100	0.057156
C35	C	0.719400	0.516500	0.596100	0.057156
C36	C	0.780600	0.483500	0.096100	0.057156
C37	C	0.233500	0.030600	0.653900	0.057156
C38	C	0.266500	0.969400	0.153900	0.057156
C39	C	0.780600	0.516500	0.903900	0.057156
C40	C	0.719400	0.483500	0.403900	0.057156
C41	C	0.766500	0.530600	0.346100	0.057156
C42	C	0.733500	0.469400	0.846100	0.057156
C43	C	0.219400	0.016500	0.096100	0.057156
C44	C	0.280600	0.983500	0.596100	0.057156
C45	C	0.733500	0.530600	0.153900	0.057156
C46	C	0.766500	0.469400	0.653900	0.057156
C47	C	0.280600	0.016500	0.403900	0.057156
C48	C	0.219400	0.983500	0.903900	0.057156
N1	N	0.000000	0.750000	0.248700	-0.079937
N2	N	0.500000	0.250000	0.748700	-0.079937
N3	N	0.500000	0.750000	0.498700	-0.079937
N4	N	0.000000	0.250000	0.998700	-0.079937
N5	N	0.500000	0.750000	0.251300	-0.079937
N6	N	0.000000	0.250000	0.751300	-0.079937
N7	N	0.000000	0.750000	0.001300	-0.079937
N8	N	0.500000	0.250000	0.501300	-0.079937
N9	N	0.878200	0.871800	0.125000	-0.178512
N10	N	0.621800	0.128200	0.625000	-0.178512
N11	N	0.378200	0.628200	0.375000	-0.178512
N12	N	0.121800	0.371800	0.875000	-0.178512
N13	N	0.621800	0.871800	0.375000	-0.178512
N14	N	0.878200	0.128200	0.875000	-0.178512
N15	N	0.121800	0.628200	0.125000	-0.178512
N16	N	0.378200	0.371800	0.625000	-0.178512
N17	N	0.121800	0.128200	0.875000	-0.178512
N18	N	0.378200	0.871800	0.375000	-0.178512
N19	N	0.621800	0.371800	0.625000	-0.178512
N20	N	0.878200	0.628200	0.125000	-0.178512
N21	N	0.378200	0.128200	0.625000	-0.178512
N22	N	0.121800	0.871800	0.125000	-0.178512
N23	N	0.878200	0.371800	0.875000	-0.178512
N24	N	0.621800	0.628200	0.375000	-0.178512
N25	N	0.908500	0.750000	0.289400	-0.360116
N26	N	0.591500	0.250000	0.789400	-0.360116
N27	N	0.500000	0.658500	0.539400	-0.360116
N28	N	0.000000	0.341500	0.039400	-0.360116
N29	N	0.591500	0.750000	0.210600	-0.360116
N30	N	0.908500	0.250000	0.710600	-0.360116
N31	N	0.000000	0.658500	0.960600	-0.360116
N32	N	0.500000	0.341500	0.460600	-0.360116
N33	N	0.408500	0.250000	0.789400	-0.360116
N34	N	0.091500	0.750000	0.289400	-0.360116
N35	N	0.000000	0.158500	0.039400	-0.360116
N36	N	0.500000	0.841500	0.539400	-0.360116
N37	N	0.091500	0.250000	0.710600	-0.360116
N38	N	0.408500	0.750000	0.210600	-0.360116
N39	N	0.500000	0.158500	0.460600	-0.360116
N40	N	0.000000	0.841500	0.960600	-0.360116
N41	N	0.794700	0.878400	0.172100	-0.294501
N42	N	0.705300	0.121600	0.672100	-0.294501
N43	N	0.371600	0.544700	0.422100	-0.294501
N44	N	0.128400	0.455300	0.922100	-0.294501
N45	N	0.705300	0.878400	0.327900	-0.294501
N46	N	0.794700	0.121600	0.827900	-0.294501
N47	N	0.128400	0.544700	0.077900	-0.294501
N48	N	0.371600	0.455300	0.577900	-0.294501
N49	N	0.294700	0.378400	0.672100	-0.294501
N50	N	0.205300	0.621600	0.172100	-0.294501
N51	N	0.871600	0.044700	0.922100	-0.294501
N52	N	0.628400	0.955300	0.422100	-0.294501
N53	N	0.205300	0.378400	0.827900	-0.294501
N54	N	0.294700	0.621600	0.327900	-0.294501
N55	N	0.628400	0.044700	0.577900	-0.294501
N56	N	0.871600	0.955300	0.077900	-0.294501
N57	N	0.205300	0.121600	0.827900	-0.294501
N58	N	0.294700	0.878400	0.327900	-0.294501
N59	N	0.628400	0.455300	0.577900	-0.294501
N60	N	0.871600	0.544700	0.077900	-0.294501
N61	N	0.294700	0.121600	0.672100	-0.294501
N62	N	0.205300	0.878400	0.172100	-0.294501
N63	N	0.871600	0.455300	0.922100	-0.294501
N64	N	0.628400	0.544700	0.422100	-0.294501
N65	N	0.705300	0.621600	0.327900	-0.294501
N66	N	0.794700	0.378400	0.827900	-0.294501
N67	N	0.128400	0.955300	0.077900	-0.294501
N68	N	0.371600	0.044700	0.577900	-0.294501
N69	N	0.794700	0.621600	0.172100	-0.294501
N70	N	0.705300	0.378400	0.672100	-0.294501
N71	N	0.371600	0.955300	0.422100	-0.294501
N72	N	0.128400	0.044700	0.922100	-0.294501
