data_CEYPUT_clean_PM
_symmetry_space_group_name_H-M	'P1'
_cell_length_a	6.307000
_cell_length_b	10.491900
_cell_length_c	12.611000
_cell_angle_alpha	90.000000
_cell_angle_beta	90.000000
_cell_angle_gamma	91.227001
_symmetry_Int_Tables_number 1

loop_
_symmetry_equiv_pos_as_xyz
'x,y,z'

loop_
_atom_site_label
_atom_site_type_symbol
_atom_site_fract_x
_atom_site_fract_y
_atom_site_fract_z
_atom_site_charge
Co1	Co	0.372000	0.259950	0.246260	1.279843
Co2	Co	0.872000	0.759950	0.753740	1.279843
H1	H	0.764500	0.986800	0.629800	0.076145
H2	H	0.886600	0.113600	0.491300	0.118723
H3	H	0.424800	0.916600	0.492400	0.119259
H4	H	0.291100	0.800200	0.633500	0.119584
H5	H	0.946800	0.319500	0.150600	0.123928
H6	H	0.803400	0.440900	0.021800	0.122994
H7	H	0.353300	0.641600	0.013300	0.120714
H8	H	0.477800	0.515100	0.143600	0.077285
H9	H	0.264500	0.486800	0.370200	0.076145
H10	H	0.386600	0.613600	0.508700	0.118723
H11	H	0.924800	0.416600	0.507600	0.119259
H12	H	0.791100	0.300200	0.366500	0.119584
H13	H	0.446800	0.819500	0.849400	0.123928
H14	H	0.303400	0.940900	0.978200	0.122994
H15	H	0.853300	0.141600	0.986700	0.120714
H16	H	0.977800	0.015100	0.856400	0.077285
C1	C	0.207300	0.862200	0.603900	0.099041
C2	C	0.976700	0.634700	0.912000	0.393852
C3	C	0.898900	0.973500	0.602100	0.074326
C4	C	0.971100	0.049900	0.518600	-0.049091
C5	C	0.172400	0.029200	0.476700	0.066534
C6	C	0.291100	0.933600	0.519300	-0.085411
C7	C	0.257600	0.109500	0.385200	0.395769
C8	C	0.030700	0.384200	0.120900	0.099984
C9	C	0.941300	0.457400	0.044800	-0.077371
C10	C	0.063700	0.559200	0.001600	0.061730
C11	C	0.267000	0.576200	0.040100	-0.044199
C12	C	0.342500	0.498500	0.116900	0.076096
C13	C	0.707300	0.362200	0.396100	0.099041
C14	C	0.476700	0.134700	0.088000	0.393852
C15	C	0.398900	0.473500	0.397900	0.074326
C16	C	0.471100	0.549900	0.481400	-0.049091
C17	C	0.672400	0.529200	0.523300	0.066534
C18	C	0.791100	0.433600	0.480700	-0.085411
C19	C	0.757600	0.609500	0.614800	0.395769
C20	C	0.530700	0.884200	0.879100	0.099984
C21	C	0.441300	0.957400	0.955200	-0.077371
C22	C	0.563700	0.059200	0.998400	0.061730
C23	C	0.767000	0.076200	0.959900	-0.044199
C24	C	0.842500	0.998500	0.883100	0.076096
N1	N	0.017700	0.881000	0.643800	-0.466091
N2	N	0.229200	0.397600	0.156300	-0.467329
N3	N	0.517700	0.381000	0.356200	-0.466091
N4	N	0.729200	0.897600	0.843700	-0.467329
O1	O	0.440800	0.098700	0.356800	-0.511138
O2	O	0.134200	0.195200	0.347600	-0.613390
O3	O	0.788600	0.623300	0.884700	-0.496015
O4	O	0.100200	0.715500	0.865500	-0.615771
O5	O	0.940800	0.598700	0.643200	-0.511138
O6	O	0.634200	0.695200	0.652400	-0.613390
O7	O	0.288600	0.123300	0.115300	-0.496015
O8	O	0.600200	0.215500	0.134500	-0.615771
