data_COMDOY_clean_PM
_symmetry_space_group_name_H-M	'P1'
_cell_length_a	6.734000
_cell_length_b	11.062000
_cell_length_c	11.180873
_cell_angle_alpha	119.648761
_cell_angle_beta	107.526043
_cell_angle_gamma	89.999998
_symmetry_Int_Tables_number 1

loop_
_symmetry_equiv_pos_as_xyz
'x,y,z'

loop_
_atom_site_label
_atom_site_type_symbol
_atom_site_fract_x
_atom_site_fract_y
_atom_site_fract_z
_atom_site_charge
Ga1	Ga	0.000000	0.500000	0.000000	-1.972534
Ga2	Ga	0.500000	0.500000	0.000000	-1.972534
H1	H	0.233700	0.897400	0.385200	0.103815
H2	H	0.266300	0.512200	0.614800	0.103803
H3	H	0.348500	0.102600	0.614800	0.108573
H4	H	0.151500	0.487800	0.385200	0.108562
H5	H	0.766300	0.102600	0.614800	0.103815
H6	H	0.733700	0.487800	0.385200	0.103803
H7	H	0.651500	0.897400	0.385200	0.108573
H8	H	0.848500	0.512200	0.614800	0.108562
H9	H	0.750000	0.347000	0.000000	0.319590
H10	H	0.250000	0.653000	0.000000	0.319590
C1	C	0.136200	0.937700	0.430600	-0.087186
C2	C	0.363800	0.507100	0.569400	-0.087130
C3	C	0.205600	0.062300	0.569400	-0.105259
C4	C	0.294400	0.492900	0.430600	-0.105203
C5	C	0.863800	0.062300	0.569400	-0.087186
C6	C	0.636200	0.492900	0.430600	-0.087130
C7	C	0.794400	0.937700	0.430600	-0.105259
C8	C	0.705600	0.507100	0.569400	-0.105203
C9	C	0.931300	0.876100	0.362600	0.018973
C10	C	0.855800	0.739700	0.211600	0.247776
C11	C	0.568700	0.513500	0.637400	0.018857
C12	C	0.644200	0.528100	0.788400	0.247807
C13	C	0.068700	0.123900	0.637400	0.018973
C14	C	0.144200	0.260300	0.788400	0.247776
C15	C	0.431300	0.486500	0.362600	0.018857
C16	C	0.355800	0.471900	0.211600	0.247807
O1	O	0.989800	0.690500	0.158000	0.169312
O2	O	0.510200	0.532500	0.842000	0.169313
O3	O	0.331800	0.309500	0.842000	0.169398
O4	O	0.168200	0.467500	0.158000	0.169399
O5	O	0.010200	0.309500	0.842000	0.169312
O6	O	0.489800	0.467500	0.158000	0.169313
O7	O	0.668200	0.690500	0.158000	0.169398
O8	O	0.831800	0.532500	0.842000	0.169399
O9	O	0.750000	0.420800	0.000000	0.402133
O10	O	0.250000	0.579200	0.000000	0.402133
