data_DAVYEG_clean_PM
_symmetry_space_group_name_H-M	'P1'
_cell_length_a	7.277000
_cell_length_b	14.162900
_cell_length_c	24.644000
_cell_angle_alpha	105.680998
_cell_angle_beta	90.000000
_cell_angle_gamma	104.886002
_symmetry_Int_Tables_number 1

loop_
_symmetry_equiv_pos_as_xyz
'x,y,z'

loop_
_atom_site_label
_atom_site_type_symbol
_atom_site_fract_x
_atom_site_fract_y
_atom_site_fract_z
_atom_site_charge
Co1	Co	0.812400	0.932380	0.988640	1.332878
Co2	Co	0.880020	0.067620	0.511360	1.332869
Co3	Co	0.187600	0.067620	0.011360	1.332878
Co4	Co	0.119980	0.932380	0.488640	1.332869
H1	H	0.509500	0.085200	0.132400	0.134267
H2	H	0.294800	0.340600	0.342100	0.173032
H3	H	0.436700	0.178800	0.218000	0.114248
H4	H	0.678400	0.177800	0.326400	0.110451
H5	H	0.683200	0.712600	0.890200	0.134293
H6	H	0.377800	0.840200	0.003300	0.123694
H7	H	0.120600	0.243800	0.396100	0.150526
H8	H	0.984100	0.341600	0.251200	0.209419
H9	H	0.045900	0.722800	0.971000	0.111527
H10	H	0.023800	0.643400	0.911600	0.147386
H11	H	0.357000	0.601800	0.872500	0.182361
H12	H	0.796700	0.601600	0.000800	0.110623
H13	H	0.059200	0.242800	0.167900	0.146655
H14	H	0.289700	0.534000	0.960700	0.117911
H15	H	0.511200	0.085200	0.383100	0.129819
H16	H	0.424300	0.914800	0.367600	0.134272
H17	H	0.954200	0.659400	0.157900	0.173027
H18	H	0.257900	0.821200	0.282000	0.114242
H19	H	0.500600	0.822200	0.173600	0.110444
H20	H	0.970600	0.287400	0.609800	0.134290
H21	H	0.537600	0.159800	0.496700	0.123697
H22	H	0.876800	0.756200	0.103900	0.150530
H23	H	0.642500	0.658400	0.248800	0.209417
H24	H	0.323100	0.277200	0.529000	0.111527
H25	H	0.380400	0.356600	0.588400	0.147388
H26	H	0.755200	0.398200	0.627500	0.182356
H27	H	0.195100	0.398400	0.499200	0.110605
H28	H	0.816400	0.757200	0.332100	0.146661
H29	H	0.755700	0.466000	0.539300	0.117909
H30	H	0.426000	0.914800	0.116900	0.129839
H31	H	0.490500	0.914800	0.867600	0.134267
H32	H	0.705200	0.659400	0.657900	0.173032
H33	H	0.563300	0.821200	0.782000	0.114248
H34	H	0.321600	0.822200	0.673600	0.110451
H35	H	0.316800	0.287400	0.109800	0.134293
H36	H	0.622200	0.159800	0.996700	0.123694
H37	H	0.879400	0.756200	0.603900	0.150526
H38	H	0.015900	0.658400	0.748800	0.209419
H39	H	0.954100	0.277200	0.029000	0.111527
H40	H	0.976200	0.356600	0.088400	0.147386
H41	H	0.643000	0.398200	0.127500	0.182361
H42	H	0.203300	0.398400	0.999200	0.110623
H43	H	0.940800	0.757200	0.832100	0.146655
H44	H	0.710300	0.466000	0.039300	0.117911
H45	H	0.488800	0.914800	0.616900	0.129819
H46	H	0.575700	0.085200	0.632400	0.134272
H47	H	0.045800	0.340600	0.842100	0.173027
H48	H	0.742100	0.178800	0.718000	0.114242
H49	H	0.499400	0.177800	0.826400	0.110444
H50	H	0.029400	0.712600	0.390200	0.134290
H51	H	0.462400	0.840200	0.503300	0.123697
H52	H	0.123200	0.243800	0.896100	0.150530
H53	H	0.357500	0.341600	0.751200	0.209417
H54	H	0.676900	0.722800	0.471000	0.111527
H55	H	0.619600	0.643400	0.411600	0.147389
H56	H	0.244800	0.601800	0.372500	0.182356
H57	H	0.804900	0.601600	0.500800	0.110605
H58	H	0.183600	0.242800	0.667900	0.146661
H59	H	0.244300	0.534000	0.460700	0.117909
H60	H	0.574000	0.085200	0.883100	0.129838
C1	C	0.843720	0.092440	0.086050	0.474304
C2	C	0.605380	0.135760	0.156480	-0.041256
C3	C	0.808820	0.404440	0.339980	0.681361
C4	C	0.639030	0.337060	0.297150	0.044715
C5	C	0.338290	0.289180	0.350120	0.010471
C6	C	0.561550	0.192900	0.207570	-0.111259
C7	C	0.568110	0.192420	0.341190	-0.069574
C8	C	0.702230	0.271260	0.243550	0.043782
C9	C	0.506720	0.270640	0.329240	0.035689
C10	C	0.792620	0.154040	0.141100	0.043059
C11	C	0.580530	0.724460	0.910830	0.107487
C12	C	0.414110	0.794820	0.973170	0.187277
C13	C	0.051630	0.581860	0.976260	0.026818
C14	C	0.234380	0.231560	0.382880	-0.089931
C15	C	0.888810	0.289620	0.227810	0.028059
C16	C	0.545110	0.409220	0.277070	0.695211
C17	C	0.093220	0.667640	0.948430	0.010903
C18	C	0.400580	0.662560	0.900910	0.093719
C19	C	0.878950	0.560900	0.000280	-0.015577
C20	C	0.933410	0.230820	0.177490	-0.045297
C21	C	0.172750	0.520500	0.976400	0.001610
C22	C	0.299530	0.155860	0.396010	0.049513
C23	C	0.190770	0.097740	0.434100	0.473513
C24	C	0.467060	0.136120	0.374750	-0.074995
C25	C	0.751280	0.907560	0.413950	0.474301
C26	C	0.469620	0.864240	0.343520	-0.041263
C27	C	0.404380	0.595560	0.160020	0.681380
C28	C	0.301970	0.662940	0.202850	0.044694
C29	C	0.049110	0.710820	0.149880	0.010484
C30	C	0.368650	0.807100	0.292430	-0.111249
C31	C	0.375690	0.807580	0.158810	-0.069495
C32	C	0.430970	0.728740	0.256450	0.043793
C33	C	0.236080	0.729360	0.170760	0.035659
C34	C	0.638580	0.845960	0.358900	0.043051
C35	C	0.856070	0.275540	0.589170	0.107507
C36	C	0.619290	0.205180	0.526830	0.187261
C37	C	0.469770	0.418140	0.523740	0.026796
C38	C	0.002820	0.768440	0.117120	-0.089941
C39	C	0.599190	0.710380	0.272190	0.028063
C40	C	0.135890	0.590780	0.222930	0.695226
C41	C	0.425580	0.332360	0.551570	0.010897
C42	C	0.738020	0.337440	0.599090	0.093694
C43	C	0.318050	0.439100	0.499720	-0.015537
C44	C	0.702590	0.769180	0.322510	-0.045311
C45	C	0.652250	0.479500	0.523600	0.001613
C46	C	0.143670	0.844140	0.103990	0.049542
C47	C	0.093030	0.902260	0.065900	0.473520
C48	C	0.330940	0.863880	0.125250	-0.075089
C49	C	0.156280	0.907560	0.913950	0.474304
C50	C	0.394620	0.864240	0.843520	-0.041257
C51	C	0.191180	0.595560	0.660020	0.681361
C52	C	0.360970	0.662940	0.702850	0.044715
C53	C	0.661710	0.710820	0.649880	0.010471
C54	C	0.438450	0.807100	0.792430	-0.111258
C55	C	0.431890	0.807580	0.658810	-0.069574
C56	C	0.297770	0.728740	0.756450	0.043782
C57	C	0.493280	0.729360	0.670760	0.035689
C58	C	0.207380	0.845960	0.858900	0.043059
C59	C	0.419470	0.275540	0.089170	0.107487
C60	C	0.585890	0.205180	0.026830	0.187277
C61	C	0.948370	0.418140	0.023740	0.026818
C62	C	0.765620	0.768440	0.617120	-0.089931
C63	C	0.111190	0.710380	0.772190	0.028059
C64	C	0.454890	0.590780	0.722930	0.695212
C65	C	0.906780	0.332360	0.051570	0.010903
C66	C	0.599420	0.337440	0.099090	0.093719
C67	C	0.121050	0.439100	0.999720	-0.015577
C68	C	0.066590	0.769180	0.822510	-0.045297
C69	C	0.827250	0.479500	0.023600	0.001610
C70	C	0.700470	0.844140	0.603990	0.049513
C71	C	0.809230	0.902260	0.565900	0.473513
C72	C	0.532940	0.863880	0.625250	-0.074995
C73	C	0.248720	0.092440	0.586050	0.474301
C74	C	0.530380	0.135760	0.656480	-0.041263
C75	C	0.595620	0.404440	0.839980	0.681380
C76	C	0.698030	0.337060	0.797150	0.044694
C77	C	0.950890	0.289180	0.850120	0.010484
C78	C	0.631350	0.192900	0.707570	-0.111249
C79	C	0.624310	0.192420	0.841190	-0.069495
C80	C	0.569030	0.271260	0.743550	0.043794
C81	C	0.763920	0.270640	0.829240	0.035659
C82	C	0.361420	0.154040	0.641100	0.043051
C83	C	0.143930	0.724460	0.410830	0.107507
C84	C	0.380710	0.794820	0.473170	0.187261
C85	C	0.530230	0.581860	0.476260	0.026796
C86	C	0.997180	0.231560	0.882880	-0.089941
C87	C	0.400810	0.289620	0.727810	0.028063
C88	C	0.864110	0.409220	0.777070	0.695226
C89	C	0.574420	0.667640	0.448430	0.010897
C90	C	0.261980	0.662560	0.400910	0.093694
C91	C	0.681950	0.560900	0.500280	-0.015537
C92	C	0.297410	0.230820	0.677490	-0.045311
C93	C	0.347750	0.520500	0.476400	0.001613
C94	C	0.856330	0.155860	0.896010	0.049542
C95	C	0.906970	0.097740	0.934100	0.473519
C96	C	0.669060	0.136120	0.874750	-0.075089
N1	N	0.587900	0.807800	0.956270	-0.434721
N2	N	0.295030	0.707660	0.941390	-0.306226
N3	N	0.780100	0.192200	0.543730	-0.434721
N4	N	0.587370	0.292340	0.558610	-0.306193
N5	N	0.412100	0.192200	0.043730	-0.434721
N6	N	0.704970	0.292340	0.058610	-0.306226
N7	N	0.219900	0.807800	0.456270	-0.434721
N8	N	0.412630	0.707660	0.441390	-0.306193
O1	O	0.058130	0.129580	0.458560	-0.662355
O2	O	0.716570	0.015460	0.057670	-0.628012
O3	O	0.245620	0.023160	0.440390	-0.660239
O4	O	0.010430	0.122300	0.071900	-0.687234
O5	O	0.928550	0.870420	0.041440	-0.662372
O6	O	0.701110	0.984540	0.442330	-0.628019
O7	O	0.222460	0.976840	0.059610	-0.660235
O8	O	0.888130	0.877700	0.428100	-0.687217
O9	O	0.941870	0.870420	0.541440	-0.662355
O10	O	0.283430	0.984540	0.942330	-0.628012
O11	O	0.754380	0.976840	0.559610	-0.660240
O12	O	0.989570	0.877700	0.928100	-0.687234
O13	O	0.071450	0.129580	0.958560	-0.662372
O14	O	0.298890	0.015460	0.557670	-0.628019
O15	O	0.777540	0.023160	0.940390	-0.660234
O16	O	0.111870	0.122300	0.571900	-0.687217
F1	F	0.924430	0.351020	0.350890	-0.508483
F2	F	0.378110	0.358660	0.247420	-0.465159
F3	F	0.918180	0.480900	0.322070	-0.383295
F4	F	0.749240	0.448040	0.389410	-0.469167
F5	F	0.655700	0.455780	0.243610	-0.362646
F6	F	0.509970	0.482920	0.319790	-0.421149
F7	F	0.573410	0.648980	0.149110	-0.508491
F8	F	0.019450	0.641340	0.252580	-0.465155
F9	F	0.437280	0.519100	0.177930	-0.383302
F10	F	0.301200	0.551960	0.110590	-0.469169
F11	F	0.199920	0.544220	0.256390	-0.362656
F12	F	0.027050	0.517080	0.180210	-0.421142
F13	F	0.075570	0.648980	0.649110	-0.508483
F14	F	0.621890	0.641340	0.752580	-0.465159
F15	F	0.081820	0.519100	0.677930	-0.383295
F16	F	0.250760	0.551960	0.610590	-0.469167
F17	F	0.344300	0.544220	0.756390	-0.362647
F18	F	0.490030	0.517080	0.680210	-0.421149
F19	F	0.426590	0.351020	0.850890	-0.508491
F20	F	0.980550	0.358660	0.747420	-0.465155
F21	F	0.562720	0.480900	0.822070	-0.383302
F22	F	0.698800	0.448040	0.889410	-0.469169
F23	F	0.800080	0.455780	0.743610	-0.362656
F24	F	0.972950	0.482920	0.819790	-0.421142
