data_DAWBUA_clean_PM
_symmetry_space_group_name_H-M	'P1'
_cell_length_a	6.700200
_cell_length_b	7.681700
_cell_length_c	27.133100
_cell_angle_alpha	90.000000
_cell_angle_beta	90.000000
_cell_angle_gamma	90.000000
_symmetry_Int_Tables_number 1

loop_
_symmetry_equiv_pos_as_xyz
'x,y,z'

loop_
_atom_site_label
_atom_site_type_symbol
_atom_site_fract_x
_atom_site_fract_y
_atom_site_fract_z
_atom_site_charge
Co1	Co	0.995870	0.249660	0.717420	1.341682
Co2	Co	0.004130	0.249660	0.282580	1.341682
Co3	Co	0.495870	0.750340	0.782580	1.341682
Co4	Co	0.504130	0.750340	0.217420	1.341682
H1	H	0.616300	0.310500	0.612600	0.115187
H2	H	0.989600	0.090400	0.848700	0.107695
H3	H	0.147900	0.116600	0.537600	0.085033
H4	H	0.284400	0.255700	0.854600	0.128413
H5	H	0.092900	0.370100	0.860500	0.117241
H6	H	0.413000	0.321700	0.681300	0.142678
H7	H	0.968200	0.116700	0.610700	0.097321
H8	H	0.669000	0.216200	0.527800	0.090201
H9	H	0.383700	0.310500	0.387400	0.115187
H10	H	0.010400	0.090400	0.151300	0.107695
H11	H	0.852100	0.116600	0.462400	0.085033
H12	H	0.715600	0.255700	0.145400	0.128413
H13	H	0.907100	0.370100	0.139500	0.117241
H14	H	0.587000	0.321700	0.318700	0.142678
H15	H	0.031800	0.116700	0.389300	0.097321
H16	H	0.331000	0.216200	0.472200	0.090201
H17	H	0.116300	0.689500	0.887400	0.115187
H18	H	0.489600	0.909600	0.651300	0.107695
H19	H	0.647900	0.883400	0.962400	0.085033
H20	H	0.784400	0.744300	0.645400	0.128413
H21	H	0.592900	0.629900	0.639500	0.117241
H22	H	0.913000	0.678300	0.818700	0.142678
H23	H	0.468200	0.883300	0.889300	0.097321
H24	H	0.169000	0.783800	0.972200	0.090201
H25	H	0.883700	0.689500	0.112600	0.115187
H26	H	0.510400	0.909600	0.348700	0.107695
H27	H	0.352100	0.883400	0.037600	0.085033
H28	H	0.215600	0.744300	0.354600	0.128413
H29	H	0.407100	0.629900	0.360500	0.117241
H30	H	0.087000	0.678300	0.181300	0.142678
H31	H	0.531800	0.883300	0.110700	0.097321
H32	H	0.831000	0.783800	0.027800	0.090201
C1	C	0.484000	0.274700	0.610600	-0.100720
C2	C	0.042200	0.150300	0.819500	0.106864
C3	C	0.246800	0.425100	0.797200	0.493686
C4	C	0.406100	0.214600	0.567000	0.055554
C5	C	0.205900	0.157200	0.566600	-0.145386
C6	C	0.170300	0.302400	0.837100	-0.197938
C7	C	0.359300	0.280700	0.651900	0.111859
C8	C	0.166600	0.020400	0.790100	0.432036
C9	C	0.096600	0.162700	0.610400	0.098418
C10	C	0.531600	0.215500	0.522900	-0.116679
C11	C	0.516000	0.274700	0.389400	-0.100720
C12	C	0.957800	0.150300	0.180500	0.106864
C13	C	0.753200	0.425100	0.202800	0.493686
C14	C	0.593900	0.214600	0.433000	0.055554
C15	C	0.794100	0.157200	0.433400	-0.145386
C16	C	0.829700	0.302400	0.162900	-0.197938
C17	C	0.640700	0.280700	0.348100	0.111859
C18	C	0.833400	0.020400	0.209900	0.432036
C19	C	0.903400	0.162700	0.389600	0.098418
C20	C	0.468400	0.215500	0.477100	-0.116679
C21	C	0.984000	0.725300	0.889400	-0.100720
C22	C	0.542200	0.849700	0.680500	0.106864
C23	C	0.746800	0.574900	0.702800	0.493686
C24	C	0.906100	0.785400	0.933000	0.055554
C25	C	0.705900	0.842800	0.933400	-0.145386
C26	C	0.670300	0.697600	0.662900	-0.197938
C27	C	0.859300	0.719300	0.848100	0.111859
C28	C	0.666600	0.979600	0.709900	0.432036
C29	C	0.596600	0.837300	0.889600	0.098418
C30	C	0.031600	0.784500	0.977100	-0.116679
C31	C	0.016000	0.725300	0.110600	-0.100720
C32	C	0.457800	0.849700	0.319500	0.106864
C33	C	0.253200	0.574900	0.297200	0.493686
C34	C	0.093900	0.785400	0.067000	0.055554
C35	C	0.294100	0.842800	0.066600	-0.145386
C36	C	0.329700	0.697600	0.337100	-0.197938
C37	C	0.140700	0.719300	0.151900	0.111859
C38	C	0.333400	0.979600	0.290100	0.432036
C39	C	0.403400	0.837300	0.110400	0.098418
C40	C	0.968400	0.784500	0.022900	-0.116679
N1	N	0.169500	0.231700	0.651900	-0.379192
N2	N	0.830500	0.231700	0.348100	-0.379192
N3	N	0.669500	0.768300	0.848100	-0.379192
N4	N	0.330500	0.768300	0.151900	-0.379192
O1	O	0.277700	0.921900	0.813000	-0.589129
O2	O	0.875800	0.218400	0.792000	-0.372253
O3	O	0.143500	0.024500	0.743600	-0.461000
O4	O	0.210300	0.399800	0.752100	-0.560596
O5	O	0.341600	0.551100	0.813900	-0.600973
O6	O	0.722300	0.921900	0.187000	-0.589129
O7	O	0.124200	0.218400	0.208000	-0.372253
O8	O	0.856500	0.024500	0.256400	-0.461000
O9	O	0.789700	0.399800	0.247900	-0.560596
O10	O	0.658400	0.551100	0.186100	-0.600973
O11	O	0.777700	0.078100	0.687000	-0.589129
O12	O	0.375800	0.781600	0.708000	-0.372253
O13	O	0.643500	0.975500	0.756400	-0.461000
O14	O	0.710300	0.600200	0.747900	-0.560596
O15	O	0.841600	0.448900	0.686100	-0.600973
O16	O	0.222300	0.078100	0.313000	-0.589129
O17	O	0.624200	0.781600	0.292000	-0.372253
O18	O	0.356500	0.975500	0.243600	-0.461000
O19	O	0.289700	0.600200	0.252100	-0.560596
O20	O	0.158400	0.448900	0.313900	-0.600973
