data_DAWCAH_clean_PM
_symmetry_space_group_name_H-M	'P1'
_cell_length_a	6.685600
_cell_length_b	7.637700
_cell_length_c	26.996700
_cell_angle_alpha	90.000000
_cell_angle_beta	90.000000
_cell_angle_gamma	90.000000
_symmetry_Int_Tables_number 1

loop_
_symmetry_equiv_pos_as_xyz
'x,y,z'

loop_
_atom_site_label
_atom_site_type_symbol
_atom_site_fract_x
_atom_site_fract_y
_atom_site_fract_z
_atom_site_charge
Ni1	Ni	0.499650	0.746040	0.282420	1.176939
Ni2	Ni	0.500350	0.746040	0.717580	1.176939
Ni3	Ni	0.999650	0.253960	0.217580	1.176939
Ni4	Ni	0.000350	0.253960	0.782420	1.176939
H1	H	0.353900	0.619000	0.461300	0.086150
H2	H	0.507600	0.595100	0.151400	0.105982
H3	H	0.888400	0.803700	0.386500	0.113523
H4	H	0.532300	0.626100	0.390200	0.097368
H5	H	0.082700	0.825200	0.317900	0.143979
H6	H	0.830500	0.711900	0.471700	0.089962
H7	H	0.404200	0.871100	0.141100	0.118231
H8	H	0.213200	0.755800	0.147600	0.130556
H9	H	0.646100	0.619000	0.538700	0.086150
H10	H	0.492400	0.595100	0.848600	0.105982
H11	H	0.111600	0.803700	0.613500	0.113523
H12	H	0.467700	0.626100	0.609800	0.097368
H13	H	0.917300	0.825200	0.682100	0.143979
H14	H	0.169500	0.711900	0.528300	0.089962
H15	H	0.595800	0.871100	0.858900	0.118231
H16	H	0.786800	0.755800	0.852400	0.130556
H17	H	0.853900	0.381000	0.038700	0.086150
H18	H	0.007600	0.404900	0.348600	0.105982
H19	H	0.388400	0.196300	0.113500	0.113523
H20	H	0.032300	0.373900	0.109800	0.097368
H21	H	0.582700	0.174800	0.182100	0.143979
H22	H	0.330500	0.288100	0.028300	0.089962
H23	H	0.904200	0.128900	0.358900	0.118231
H24	H	0.713200	0.244200	0.352400	0.130556
H25	H	0.146100	0.381000	0.961300	0.086150
H26	H	0.992400	0.404900	0.651400	0.105982
H27	H	0.611600	0.196300	0.886500	0.113523
H28	H	0.967700	0.373900	0.890200	0.097368
H29	H	0.417300	0.174800	0.817900	0.143979
H30	H	0.669500	0.288100	0.971700	0.089962
H31	H	0.095800	0.128900	0.641100	0.118231
H32	H	0.286800	0.244200	0.647600	0.130556
C1	C	0.095700	0.714800	0.432200	0.057309
C2	C	0.295100	0.660000	0.432300	-0.150570
C3	C	0.454700	0.654100	0.180900	0.108029
C4	C	0.022200	0.771200	0.388500	-0.106158
C5	C	0.401700	0.667900	0.389800	0.095075
C6	C	0.139200	0.781900	0.346900	0.110346
C7	C	0.252600	0.926700	0.203900	0.466616
C8	C	0.968100	0.713100	0.476700	-0.116912
C9	C	0.328300	0.803200	0.164900	-0.210768
C10	C	0.326800	0.520800	0.211200	0.417924
C11	C	0.904300	0.714800	0.567800	0.057309
C12	C	0.704900	0.660000	0.567700	-0.150570
C13	C	0.545300	0.654100	0.819100	0.108029
C14	C	0.977800	0.771200	0.611500	-0.106158
C15	C	0.598300	0.667900	0.610200	0.095075
C16	C	0.860800	0.781900	0.653100	0.110346
C17	C	0.747400	0.926700	0.796100	0.466616
C18	C	0.031900	0.713100	0.523300	-0.116912
C19	C	0.671700	0.803200	0.835100	-0.210768
C20	C	0.673200	0.520800	0.788800	0.417924
C21	C	0.595700	0.285200	0.067800	0.057309
C22	C	0.795100	0.340000	0.067700	-0.150570
C23	C	0.954700	0.345900	0.319100	0.108029
C24	C	0.522200	0.228800	0.111500	-0.106158
C25	C	0.901700	0.332100	0.110200	0.095075
C26	C	0.639200	0.218100	0.153100	0.110346
C27	C	0.752600	0.073300	0.296100	0.466616
C28	C	0.468100	0.286900	0.023300	-0.116912
C29	C	0.828300	0.196800	0.335100	-0.210768
C30	C	0.826800	0.479200	0.288800	0.417924
C31	C	0.404300	0.285200	0.932200	0.057309
C32	C	0.204900	0.340000	0.932300	-0.150570
C33	C	0.045300	0.345900	0.680900	0.108029
C34	C	0.477800	0.228800	0.888500	-0.106158
C35	C	0.098300	0.332100	0.889800	0.095075
C36	C	0.360800	0.218100	0.846900	0.110346
C37	C	0.247400	0.073300	0.703900	0.466616
C38	C	0.531900	0.286900	0.976700	-0.116912
C39	C	0.171700	0.196800	0.664900	-0.210768
C40	C	0.173200	0.479200	0.711200	0.417924
N1	N	0.329500	0.733100	0.346400	-0.350852
N2	N	0.670500	0.733100	0.653600	-0.350852
N3	N	0.829500	0.266900	0.153600	-0.350852
N4	N	0.170500	0.266900	0.846400	-0.350852
O1	O	0.617600	0.719300	0.209400	-0.349276
O2	O	0.291100	0.904300	0.248700	-0.505041
O3	O	0.215800	0.420000	0.188000	-0.555991
O4	O	0.349400	0.525900	0.257600	-0.432592
O5	O	0.150800	0.051700	0.187200	-0.539828
O6	O	0.382400	0.719300	0.790600	-0.349276
O7	O	0.708900	0.904300	0.751300	-0.505041
O8	O	0.784200	0.420000	0.812000	-0.555991
O9	O	0.650600	0.525900	0.742400	-0.432592
O10	O	0.849200	0.051700	0.812800	-0.539828
O11	O	0.117600	0.280700	0.290600	-0.349276
O12	O	0.791100	0.095700	0.251300	-0.505041
O13	O	0.715800	0.580000	0.312000	-0.555991
O14	O	0.849400	0.474100	0.242400	-0.432592
O15	O	0.650800	0.948300	0.312800	-0.539828
O16	O	0.882400	0.280700	0.709400	-0.349276
O17	O	0.208900	0.095700	0.748700	-0.505041
O18	O	0.284200	0.580000	0.688000	-0.555991
O19	O	0.150600	0.474100	0.757600	-0.432592
O20	O	0.349200	0.948300	0.687200	-0.539828
