data_DORDUK_PM
_symmetry_space_group_name_H-M	'P1'
_cell_length_a	12.762400
_cell_length_b	12.762400
_cell_length_c	17.629100
_cell_angle_alpha	90.000000
_cell_angle_beta	90.000000
_cell_angle_gamma	119.999999
_symmetry_Int_Tables_number 1

loop_
_symmetry_equiv_pos_as_xyz
'x,y,z'

loop_
_atom_site_label
_atom_site_type_symbol
_atom_site_fract_x
_atom_site_fract_y
_atom_site_fract_z
_atom_site_charge
In1	In	0.000000	0.372040	0.166700	-3.147568
In2	In	0.627960	0.627960	0.500033	-3.147567
In3	In	0.372040	-0.000000	0.833367	-3.147568
H1	H	0.586200	0.563600	0.242700	0.096896
H2	H	0.436400	0.022600	0.576033	0.096896
H3	H	0.977400	0.413800	0.909367	0.096896
H4	H	0.563600	0.586200	0.757300	0.096911
H5	H	0.022600	0.436400	0.423967	0.096911
H6	H	0.413800	0.977400	0.090633	0.096911
H7	H	0.532700	0.370900	0.244800	0.094292
H8	H	0.629100	0.161800	0.578133	0.094293
H9	H	0.838200	0.467300	0.911467	0.094292
H10	H	0.370900	0.532700	0.755200	0.094281
H11	H	0.161800	0.629100	0.421867	0.094281
H12	H	0.467300	0.838200	0.088533	0.094281
H13	H	0.442300	0.341200	0.313000	0.104482
H14	H	0.658800	0.101100	0.646333	0.104482
H15	H	0.898900	0.557700	0.979667	0.104482
H16	H	0.341200	0.442300	0.687000	0.104469
H17	H	0.101100	0.658800	0.353667	0.104469
H18	H	0.557700	0.898900	0.020333	0.104469
H19	H	0.291600	0.281700	0.234200	0.115662
H20	H	0.718300	0.009900	0.567533	0.115662
H21	H	0.990100	0.708400	0.900867	0.115662
H22	H	0.281700	0.291600	0.765800	0.115661
H23	H	0.009900	0.718300	0.432467	0.115661
H24	H	0.708400	0.990100	0.099133	0.115661
H25	H	0.380900	0.305200	0.166300	0.117310
H26	H	0.694800	0.075700	0.499633	0.117310
H27	H	0.924300	0.619100	0.832967	0.117310
H28	H	0.305200	0.380900	0.833700	0.117316
H29	H	0.075700	0.694800	0.500367	0.117316
H30	H	0.619100	0.924300	0.167033	0.117316
H31	H	0.512800	0.534200	0.117500	0.178413
H32	H	0.465800	0.978600	0.450833	0.178413
H33	H	0.021400	0.487200	0.784167	0.178413
H34	H	0.534200	0.512800	0.882500	0.178406
H35	H	0.978600	0.465800	0.549167	0.178406
H36	H	0.487200	0.021400	0.215833	0.178406
H37	H	0.423600	0.581600	0.098900	0.183722
H38	H	0.418400	0.842000	0.432233	0.183722
H39	H	0.158000	0.576400	0.765567	0.183722
H40	H	0.581600	0.423600	0.901100	0.183721
H41	H	0.842000	0.418400	0.567767	0.183721
H42	H	0.576400	0.158000	0.234433	0.183721
H43	H	0.395100	0.453700	0.070400	0.181115
H44	H	0.546300	0.941400	0.403733	0.181115
H45	H	0.058600	0.604900	0.737067	0.181115
H46	H	0.453700	0.395100	0.929600	0.181117
H47	H	0.941400	0.546300	0.596267	0.181117
H48	H	0.604900	0.058600	0.262933	0.181118
H49	H	0.288500	0.425400	0.333400	0.182326
H50	H	0.574600	0.863100	0.666733	0.182326
H51	H	0.136900	0.711500	0.000067	0.182325
H52	H	0.425400	0.288500	0.666600	0.182318
H53	H	0.863100	0.574600	0.333267	0.182319
H54	H	0.711500	0.136900	0.999933	0.182318
H55	H	0.256500	0.520100	0.300500	0.216155
H56	H	0.479900	0.736400	0.633833	0.216155
H57	H	0.263600	0.743500	0.967167	0.216154
H58	H	0.520100	0.256500	0.699500	0.216119
H59	H	0.736400	0.479900	0.366167	0.216120
H60	H	0.743500	0.263600	0.032833	0.216119
H61	H	0.359800	0.560200	0.360800	0.211279
H62	H	0.439800	0.799600	0.694133	0.211279
H63	H	0.200400	0.640200	0.027467	0.211279
H64	H	0.560200	0.359800	0.639200	0.211312
H65	H	0.799600	0.439800	0.305867	0.211312
H66	H	0.640200	0.200400	0.972533	0.211312
H67	H	0.518900	0.700900	0.195100	0.168760
H68	H	0.299100	0.818000	0.528433	0.168760
H69	H	0.182000	0.481100	0.861767	0.168760
H70	H	0.700900	0.518900	0.804900	0.168759
H71	H	0.818000	0.299100	0.471567	0.168759
H72	H	0.481100	0.182000	0.138233	0.168759
H73	H	0.492200	0.723700	0.278400	0.189430
H74	H	0.276300	0.768500	0.611733	0.189430
H75	H	0.231500	0.507800	0.945067	0.189430
H76	H	0.723700	0.492200	0.721600	0.189442
H77	H	0.768500	0.276300	0.388267	0.189442
H78	H	0.507800	0.231500	0.054933	0.189442
H79	H	0.391300	0.681900	0.216200	0.192123
H80	H	0.318100	0.709400	0.549533	0.192123
H81	H	0.290600	0.608700	0.882867	0.192123
H82	H	0.681900	0.391300	0.783800	0.192118
H83	H	0.709400	0.318100	0.450467	0.192118
H84	H	0.608700	0.290600	0.117133	0.192118
H85	H	0.088300	0.145000	0.335500	0.144146
H86	H	0.855000	0.943300	0.668833	0.144146
H87	H	0.056700	0.911700	0.002167	0.144146
H88	H	0.145000	0.088300	0.664500	0.144138
H89	H	0.943300	0.855000	0.331167	0.144138
H90	H	0.911700	0.056700	0.997833	0.144138
H91	H	0.015400	0.136100	0.261800	0.233320
H92	H	0.863900	0.879300	0.595133	0.233320
H93	H	0.120700	0.984600	0.928467	0.233320
H94	H	0.136100	0.015400	0.738200	0.233278
H95	H	0.879300	0.863900	0.404867	0.233279
H96	H	0.984600	0.120700	0.071533	0.233278
H97	H	0.072200	0.052800	0.271600	0.131703
H98	H	0.947200	0.019400	0.604933	0.131703
H99	H	0.980600	0.927800	0.938267	0.131703
H100	H	0.052800	0.072200	0.728400	0.131707
H101	H	0.019400	0.947200	0.395067	0.131707
H102	H	0.927800	0.980600	0.061733	0.131708
H103	H	0.755700	0.875700	0.299700	0.164608
H104	H	0.124300	0.880000	0.633033	0.164608
H105	H	0.120000	0.244300	0.966367	0.164608
H106	H	0.875700	0.755700	0.700300	0.164616
H107	H	0.880000	0.124300	0.366967	0.164616
H108	H	0.244300	0.120000	0.033633	0.164616
H109	H	0.854500	0.900300	0.238400	0.137587
H110	H	0.099700	0.954200	0.571733	0.137587
H111	H	0.045800	0.145500	0.905067	0.137587
H112	H	0.900300	0.854500	0.761600	0.137580
H113	H	0.954200	0.099700	0.428267	0.137580
H114	H	0.145500	0.045800	0.094933	0.137580
H115	H	0.811300	0.994400	0.251100	0.161716
H116	H	0.005600	0.816900	0.584433	0.161716
H117	H	0.183100	0.188700	0.917767	0.161716
H118	H	0.994400	0.811300	0.748900	0.161693
H119	H	0.816900	0.005600	0.415567	0.161693
H120	H	0.188700	0.183100	0.082233	0.161693
C1	C	0.357500	0.452400	0.187000	0.094826
C2	C	0.547600	0.905100	0.520333	0.094826
C3	C	0.094900	0.642500	0.853667	0.094826
C4	C	0.452400	0.357500	0.813000	0.094825
C5	C	0.905100	0.547600	0.479667	0.094825
C6	C	0.642500	0.094900	0.146333	0.094825
C7	C	0.413500	0.538300	0.254300	0.174019
C8	C	0.461700	0.875200	0.587633	0.174019
C9	C	0.124800	0.586500	0.920967	0.174019
C10	C	0.538300	0.413500	0.745700	0.174032
C11	C	0.875200	0.461700	0.412367	0.174032
C12	C	0.586500	0.124800	0.079033	0.174032
C13	C	0.518600	0.518400	0.277700	-0.147285
C14	C	0.481600	0.000200	0.611033	-0.147283
C15	C	0.999800	0.481400	0.944367	-0.147285
C16	C	0.518400	0.518600	0.722300	-0.147399
C17	C	0.000200	0.481600	0.388967	-0.147399
C18	C	0.481400	0.999800	0.055633	-0.147401
C19	C	0.470000	0.384600	0.265400	-0.159089
C20	C	0.615400	0.085400	0.598733	-0.159090
C21	C	0.914600	0.530000	0.932067	-0.159089
C22	C	0.384600	0.470000	0.734600	-0.159023
C23	C	0.085400	0.615400	0.401267	-0.159023
C24	C	0.530000	0.914600	0.067933	-0.159022
C25	C	0.366400	0.341600	0.210400	-0.292973
C26	C	0.658400	0.024800	0.543733	-0.292973
C27	C	0.975200	0.633600	0.877067	-0.292973
C28	C	0.341600	0.366400	0.789600	-0.293004
C29	C	0.024800	0.658400	0.456267	-0.293004
C30	C	0.633600	0.975200	0.122933	-0.293005
C31	C	0.429300	0.511300	0.110900	-0.653038
C32	C	0.488700	0.918000	0.444233	-0.653038
C33	C	0.082000	0.570700	0.777567	-0.653038
C34	C	0.511300	0.429300	0.889100	-0.653003
C35	C	0.918000	0.488700	0.555767	-0.653004
C36	C	0.570700	0.082000	0.222433	-0.653003
C37	C	0.320900	0.508200	0.318200	-0.549663
C38	C	0.491800	0.812700	0.651533	-0.549663
C39	C	0.187300	0.679100	0.984867	-0.549664
C40	C	0.508200	0.320900	0.681800	-0.549704
C41	C	0.812700	0.491800	0.348467	-0.549703
C42	C	0.679100	0.187300	0.015133	-0.549705
C43	C	0.458400	0.674500	0.234000	-0.628435
C44	C	0.325500	0.783900	0.567333	-0.628435
C45	C	0.216100	0.541600	0.900667	-0.628435
C46	C	0.674500	0.458400	0.766000	-0.628431
C47	C	0.783900	0.325500	0.432667	-0.628431
C48	C	0.541600	0.216100	0.099333	-0.628431
C49	C	0.225900	0.419900	0.172600	0.329874
C50	C	0.580100	0.806000	0.505933	0.329873
C51	C	0.194000	0.774100	0.839267	0.329874
C52	C	0.419900	0.225900	0.827400	0.329862
C53	C	0.806000	0.580100	0.494067	0.329862
C54	C	0.774100	0.194000	0.160733	0.329862
C55	C	0.563100	0.561600	0.358600	0.340168
C56	C	0.438400	0.001500	0.691933	0.340164
C57	C	0.998500	0.436900	0.025267	0.340168
C58	C	0.561600	0.563100	0.641400	0.340428
C59	C	0.001500	0.438400	0.308067	0.340428
C60	C	0.436900	0.998500	0.974733	0.340431
C61	C	0.034300	0.091100	0.297500	-0.397067
C62	C	0.908900	0.943200	0.630833	-0.397067
C63	C	0.056800	0.965700	0.964167	-0.397067
C64	C	0.091100	0.034300	0.702500	-0.397081
C65	C	0.943200	0.908900	0.369167	-0.397081
C66	C	0.965700	0.056800	0.035833	-0.397082
C67	C	0.828000	0.937000	0.275500	-0.415301
C68	C	0.063000	0.891000	0.608833	-0.415302
C69	C	0.109000	0.172000	0.942167	-0.415301
C70	C	0.937000	0.828000	0.724500	-0.415253
C71	C	0.891000	0.063000	0.391167	-0.415253
C72	C	0.172000	0.109000	0.057833	-0.415253
N1	N	0.924200	0.000000	0.333300	0.032946
N2	N	0.000000	0.924200	0.666633	0.032946
N3	N	0.075800	0.075800	0.999967	0.032946
O1	O	0.205700	0.502600	0.154800	0.156017
O2	O	0.497400	0.703100	0.488133	0.156017
O3	O	0.296900	0.794300	0.821467	0.156017
O4	O	0.502600	0.205700	0.845200	0.156055
O5	O	0.703100	0.497400	0.511867	0.156055
O6	O	0.794300	0.296900	0.178533	0.156056
O7	O	0.516100	0.493600	0.414200	0.209680
O8	O	0.506400	0.022500	0.747533	0.209677
O9	O	0.977500	0.483900	0.080867	0.209680
O10	O	0.493600	0.516100	0.585800	0.209890
O11	O	0.022500	0.506400	0.252467	0.209890
O12	O	0.483900	0.977500	0.919133	0.209893
O13	O	0.141100	0.315300	0.180000	0.165051
O14	O	0.684700	0.825800	0.513333	0.165050
O15	O	0.174200	0.858900	0.846667	0.165050
O16	O	0.315300	0.141100	0.820000	0.165015
O17	O	0.825800	0.684700	0.486667	0.165015
O18	O	0.858900	0.174200	0.153333	0.165015
O19	O	0.647700	0.669600	0.367700	0.125176
O20	O	0.330400	0.978100	0.701033	0.125172
O21	O	0.021900	0.352300	0.034367	0.125176
O22	O	0.669600	0.647700	0.632300	0.125449
O23	O	0.978100	0.330400	0.298967	0.125449
O24	O	0.352300	0.021900	0.965633	0.125453
