data_ECEZAO01_clean_PM
_symmetry_space_group_name_H-M	'P1'
_cell_length_a	6.372200
_cell_length_b	9.999200
_cell_length_c	11.223386
_cell_angle_alpha	116.452856
_cell_angle_beta	96.340910
_cell_angle_gamma	89.999998
_symmetry_Int_Tables_number 1

loop_
_symmetry_equiv_pos_as_xyz
'x,y,z'

loop_
_atom_site_label
_atom_site_type_symbol
_atom_site_fract_x
_atom_site_fract_y
_atom_site_fract_z
_atom_site_charge
Ni1	Ni	0.500000	0.151180	0.000000	1.118430
Ni2	Ni	0.500000	0.848820	0.000000	1.118430
Ni3	Ni	0.000000	0.000000	0.000000	1.258466
H1	H	0.076600	0.138300	0.658600	0.084258
H2	H	0.787800	0.101500	0.658000	0.120725
H3	H	0.796700	0.928200	0.598600	0.131412
H4	H	0.286400	0.906700	0.532400	0.121334
H5	H	0.335400	0.077800	0.583800	0.113856
H6	H	0.923400	0.479700	0.341400	0.084258
H7	H	0.212200	0.443500	0.342000	0.120725
H8	H	0.203300	0.329600	0.401400	0.131412
H9	H	0.713600	0.374300	0.467600	0.121334
H10	H	0.664600	0.494000	0.416200	0.113856
H11	H	0.923400	0.861700	0.341400	0.084258
H12	H	0.212200	0.898500	0.342000	0.120725
H13	H	0.203300	0.071800	0.401400	0.131412
H14	H	0.713600	0.093300	0.467600	0.121334
H15	H	0.664600	0.922200	0.416200	0.113856
H16	H	0.076600	0.520300	0.658600	0.084258
H17	H	0.787800	0.556500	0.658000	0.120725
H18	H	0.796700	0.670400	0.598600	0.131412
H19	H	0.286400	0.625700	0.532400	0.121334
H20	H	0.335400	0.506000	0.583800	0.113856
C1	C	0.070300	0.031570	0.635740	0.042261
C2	C	0.851900	0.015640	0.593480	-0.209947
C3	C	0.223800	0.999210	0.543220	-0.221815
C4	C	0.149700	0.061020	0.777240	0.409629
C5	C	0.929700	0.395830	0.364260	0.042261
C6	C	0.148100	0.422160	0.406520	-0.209948
C7	C	0.776200	0.455990	0.456780	-0.221815
C8	C	0.850300	0.283780	0.222760	0.409629
C9	C	0.929700	0.968430	0.364260	0.042261
C10	C	0.148100	0.984360	0.406520	-0.209947
C11	C	0.776200	0.000790	0.456780	-0.221815
C12	C	0.850300	0.938980	0.222760	0.409629
C13	C	0.070300	0.604170	0.635740	0.042261
C14	C	0.851900	0.577840	0.593480	-0.209948
C15	C	0.223800	0.544010	0.543220	-0.221815
C16	C	0.149700	0.716220	0.777240	0.409629
O1	O	0.345100	0.070190	0.809780	-0.583080
O2	O	0.011200	0.075060	0.854920	-0.522357
O3	O	0.654900	0.260410	0.190220	-0.583080
O4	O	0.988800	0.220140	0.145080	-0.522355
O5	O	0.654900	0.929810	0.190220	-0.583080
O6	O	0.988800	0.924940	0.145080	-0.522357
O7	O	0.345100	0.739590	0.809780	-0.583080
O8	O	0.011200	0.779860	0.854920	-0.522355
O9	O	0.683000	0.971010	0.942020	-0.720217
O10	O	0.317000	0.028990	0.057980	-0.720217
