data_FAPYEA_PM
_symmetry_space_group_name_H-M	'P1'
_cell_length_a	3.881000
_cell_length_b	21.614000
_cell_length_c	21.614000
_cell_angle_alpha	90.000000
_cell_angle_beta	90.000000
_cell_angle_gamma	90.000000
_symmetry_Int_Tables_number 1

loop_
_symmetry_equiv_pos_as_xyz
'x,y,z'

loop_
_atom_site_label
_atom_site_type_symbol
_atom_site_fract_x
_atom_site_fract_y
_atom_site_fract_z
_atom_site_charge
Cu1	Cu	0.750000	0.500000	0.000000	1.037020
Cu2	Cu	0.250000	-0.000000	0.500000	1.037020
Cu3	Cu	0.000000	0.000000	0.000000	1.037020
Cu4	Cu	0.500000	0.500000	0.500000	1.037020
H1	H	0.690000	0.154800	0.957200	0.113770
H2	H	0.190000	0.654800	0.457200	0.113770
H3	H	0.940000	0.042800	0.654800	0.113770
H4	H	0.440000	0.542800	0.154800	0.113770
H5	H	0.690000	0.845200	0.042800	0.113770
H6	H	0.190000	0.345200	0.542800	0.113770
H7	H	0.940000	0.957200	0.345200	0.113770
H8	H	0.440000	0.457200	0.845200	0.113770
H9	H	0.076500	0.340500	0.046200	0.111948
H10	H	0.576500	0.840500	0.546200	0.111948
H11	H	0.326500	0.953800	0.840500	0.111948
H12	H	0.826500	0.453800	0.340500	0.111948
H13	H	0.076500	0.659500	0.953800	0.111948
H14	H	0.576500	0.159500	0.453800	0.111948
H15	H	0.326500	0.046200	0.159500	0.111948
H16	H	0.826500	0.546200	0.659500	0.111948
H17	H	0.851700	0.313600	0.135500	0.135972
H18	H	0.351700	0.813600	0.635500	0.135972
H19	H	0.101700	0.864500	0.813600	0.135972
H20	H	0.601700	0.364500	0.313600	0.135972
H21	H	0.851700	0.686400	0.864500	0.135972
H22	H	0.351700	0.186400	0.364500	0.135972
H23	H	0.101700	0.135500	0.186400	0.135972
H24	H	0.601700	0.635500	0.686400	0.135972
H25	H	0.743500	0.248000	0.159400	0.130695
H26	H	0.243500	0.748000	0.659400	0.130695
H27	H	0.993500	0.840600	0.748000	0.130695
H28	H	0.493500	0.340600	0.248000	0.130695
H29	H	0.743500	0.752000	0.840600	0.130695
H30	H	0.243500	0.252000	0.340600	0.130695
H31	H	0.993500	0.159400	0.252000	0.130695
H32	H	0.493500	0.659400	0.752000	0.130695
H33	H	0.463700	0.293600	0.133700	0.137450
H34	H	0.963700	0.793600	0.633700	0.137450
H35	H	0.713700	0.866300	0.793600	0.137450
H36	H	0.213700	0.366300	0.293600	0.137450
H37	H	0.463700	0.706400	0.866300	0.137450
H38	H	0.963700	0.206400	0.366300	0.137450
H39	H	0.713700	0.133700	0.206400	0.137450
H40	H	0.213700	0.633700	0.706400	0.137450
H41	H	0.996800	0.174100	0.853900	0.143832
H42	H	0.496800	0.674100	0.353900	0.143832
H43	H	0.246800	0.146100	0.674100	0.143832
H44	H	0.746800	0.646100	0.174100	0.143832
H45	H	0.996800	0.825900	0.146100	0.143832
H46	H	0.496800	0.325900	0.646100	0.143832
H47	H	0.246800	0.853900	0.325900	0.143832
H48	H	0.746800	0.353900	0.825900	0.143832
H49	H	0.258700	0.228800	0.861500	0.137802
H50	H	0.758700	0.728800	0.361500	0.137802
H51	H	0.508700	0.138500	0.728800	0.137802
H52	H	0.008700	0.638500	0.228800	0.137802
H53	H	0.258700	0.771200	0.138500	0.137802
H54	H	0.758700	0.271200	0.638500	0.137802
H55	H	0.508700	0.861500	0.271200	0.137802
H56	H	0.008700	0.361500	0.771200	0.137802
H57	H	0.863900	0.242600	0.854800	0.129392
H58	H	0.363900	0.742600	0.354800	0.129392
H59	H	0.113900	0.145200	0.742600	0.129392
H60	H	0.613900	0.645200	0.242600	0.129392
H61	H	0.863900	0.757400	0.145200	0.129392
H62	H	0.363900	0.257400	0.645200	0.129392
H63	H	0.113900	0.854800	0.257400	0.129392
H64	H	0.613900	0.354800	0.757400	0.129392
C1	C	0.676500	0.209400	0.035000	0.098417
C2	C	0.176500	0.709400	0.535000	0.098417
C3	C	0.926500	0.965000	0.709400	0.098417
C4	C	0.426500	0.465000	0.209400	0.098417
C5	C	0.676500	0.790600	0.965000	0.098417
C6	C	0.176500	0.290600	0.465000	0.098417
C7	C	0.926500	0.035000	0.290600	0.098417
C8	C	0.426500	0.535000	0.790600	0.098417
C9	C	0.761800	0.193800	0.974200	-0.067596
C10	C	0.261800	0.693800	0.474200	-0.067596
C11	C	0.011800	0.025800	0.693800	-0.067596
C12	C	0.511800	0.525800	0.193800	-0.067596
C13	C	0.761800	0.806200	0.025800	-0.067596
C14	C	0.261800	0.306200	0.525800	-0.067596
C15	C	0.011800	0.974200	0.306200	-0.067596
C16	C	0.511800	0.474200	0.806200	-0.067596
C17	C	0.960200	0.234900	0.937600	0.060347
C18	C	0.460200	0.734900	0.437600	0.060347
C19	C	0.210200	0.062400	0.734900	0.060347
C20	C	0.710200	0.562400	0.234900	0.060347
C21	C	0.960200	0.765100	0.062400	0.060347
C22	C	0.460200	0.265100	0.562400	0.060347
C23	C	0.210200	0.937600	0.265100	0.060347
C24	C	0.710200	0.437600	0.765100	0.060347
C25	C	0.077800	0.290800	0.963000	0.098140
C26	C	0.577800	0.790800	0.463000	0.098140
C27	C	0.327800	0.037000	0.790800	0.098140
C28	C	0.827800	0.537000	0.290800	0.098140
C29	C	0.077800	0.709200	0.037000	0.098140
C30	C	0.577800	0.209200	0.537000	0.098140
C31	C	0.327800	0.963000	0.209200	0.098140
C32	C	0.827800	0.463000	0.709200	0.098140
C33	C	0.985500	0.303400	0.028100	-0.084533
C34	C	0.485500	0.803400	0.528100	-0.084533
C35	C	0.235500	0.971900	0.803400	-0.084533
C36	C	0.735500	0.471900	0.303400	-0.084533
C37	C	0.985500	0.696600	0.971900	-0.084533
C38	C	0.485500	0.196600	0.471900	-0.084533
C39	C	0.235500	0.028100	0.196600	-0.084533
C40	C	0.735500	0.528100	0.696600	-0.084533
C41	C	0.798500	0.268400	0.062500	0.064504
C42	C	0.298500	0.768400	0.562500	0.064504
C43	C	0.048500	0.937500	0.768400	0.064504
C44	C	0.548500	0.437500	0.268400	0.064504
C45	C	0.798500	0.731600	0.937500	0.064504
C46	C	0.298500	0.231600	0.437500	0.064504
C47	C	0.048500	0.062500	0.231600	0.064504
C48	C	0.548500	0.562500	0.731600	0.064504
C49	C	0.697000	0.279500	0.129300	-0.394130
C50	C	0.197000	0.779500	0.629300	-0.394130
C51	C	0.947000	0.870700	0.779500	-0.394130
C52	C	0.447000	0.370700	0.279500	-0.394130
C53	C	0.697000	0.720500	0.870700	-0.394130
C54	C	0.197000	0.220500	0.370700	-0.394130
C55	C	0.947000	0.129300	0.220500	-0.394130
C56	C	0.447000	0.629300	0.720500	-0.394130
C57	C	0.031100	0.214500	0.871500	-0.403698
C58	C	0.531100	0.714500	0.371500	-0.403698
C59	C	0.281100	0.128500	0.714500	-0.403698
C60	C	0.781100	0.628500	0.214500	-0.403698
C61	C	0.031100	0.785500	0.128500	-0.403698
C62	C	0.531100	0.285500	0.628500	-0.403698
C63	C	0.281100	0.871500	0.285500	-0.403698
C64	C	0.781100	0.371500	0.785500	-0.403698
C65	C	0.364100	0.120600	0.049700	0.231885
C66	C	0.864100	0.620600	0.549700	0.231885
C67	C	0.614100	0.950300	0.620600	0.231885
C68	C	0.114100	0.450300	0.120600	0.231885
C69	C	0.364100	0.879400	0.950300	0.231885
C70	C	0.864100	0.379400	0.450300	0.231885
C71	C	0.614100	0.049700	0.379400	0.231885
C72	C	0.114100	0.549700	0.879400	0.231885
C73	C	0.397200	0.380600	0.951500	0.240616
C74	C	0.897200	0.880600	0.451500	0.240616
C75	C	0.647200	0.048500	0.880600	0.240616
C76	C	0.147200	0.548500	0.380600	0.240616
C77	C	0.397200	0.619400	0.048500	0.240616
C78	C	0.897200	0.119400	0.548500	0.240616
C79	C	0.647200	0.951500	0.119400	0.240616
C80	C	0.147200	0.451500	0.619400	0.240616
N1	N	0.483400	0.172000	0.071200	-0.243325
N2	N	0.983400	0.672000	0.571200	-0.243325
N3	N	0.733400	0.928800	0.672000	-0.243325
N4	N	0.233400	0.428800	0.172000	-0.243325
N5	N	0.483400	0.828000	0.928800	-0.243325
N6	N	0.983400	0.328000	0.428800	-0.243325
N7	N	0.733400	0.071200	0.328000	-0.243325
N8	N	0.233400	0.571200	0.828000	-0.243325
N9	N	0.244000	0.072100	0.036500	-0.449818
N10	N	0.744000	0.572100	0.536500	-0.449818
N11	N	0.494000	0.963500	0.572100	-0.449818
N12	N	0.994000	0.463500	0.072100	-0.449818
N13	N	0.244000	0.927900	0.963500	-0.449818
N14	N	0.744000	0.427900	0.463500	-0.449818
N15	N	0.494000	0.036500	0.427900	-0.449818
N16	N	0.994000	0.536500	0.927900	-0.449818
N17	N	0.274100	0.326800	0.928200	-0.249902
N18	N	0.774100	0.826800	0.428200	-0.249902
N19	N	0.524100	0.071800	0.826800	-0.249902
N20	N	0.024100	0.571800	0.326800	-0.249902
N21	N	0.274100	0.673200	0.071800	-0.249902
N22	N	0.774100	0.173200	0.571800	-0.249902
N23	N	0.524100	0.928200	0.173200	-0.249902
N24	N	0.024100	0.428200	0.673200	-0.249902
N25	N	0.518300	0.426100	0.965800	-0.460276
N26	N	0.018300	0.926100	0.465800	-0.460276
N27	N	0.768300	0.034200	0.926100	-0.460276
N28	N	0.268300	0.534200	0.426100	-0.460276
N29	N	0.518300	0.573900	0.034200	-0.460276
N30	N	0.018300	0.073900	0.534200	-0.460276
N31	N	0.768300	0.965800	0.073900	-0.460276
N32	N	0.268300	0.465800	0.573900	-0.460276
