data_FUSWIA_clean_PM
_symmetry_space_group_name_H-M	'P1'
_cell_length_a	12.049500
_cell_length_b	14.881700
_cell_length_c	15.922100
_cell_angle_alpha	90.000000
_cell_angle_beta	90.000000
_cell_angle_gamma	90.000000
_symmetry_Int_Tables_number 1

loop_
_symmetry_equiv_pos_as_xyz
'x,y,z'

loop_
_atom_site_label
_atom_site_type_symbol
_atom_site_fract_x
_atom_site_fract_y
_atom_site_fract_z
_atom_site_charge
Cu1	Cu	0.351380	0.794380	0.500000	1.038704
Cu2	Cu	0.648620	0.205620	0.500000	1.038704
Cu3	Cu	0.148620	0.294380	0.000000	1.038704
Cu4	Cu	0.851380	0.705620	0.000000	1.038704
Cu5	Cu	0.500000	0.000000	0.500000	1.057363
Cu6	Cu	0.000000	0.500000	0.000000	1.057363
H1	H	0.632000	0.658100	0.917800	0.093223
H2	H	0.737000	0.912700	0.782500	0.102892
H3	H	0.537100	0.706500	0.792600	0.101653
H4	H	0.828700	0.856300	0.894200	0.057889
H5	H	0.368000	0.341900	0.917800	0.093223
H6	H	0.263000	0.087300	0.782500	0.102892
H7	H	0.462900	0.293500	0.792600	0.101653
H8	H	0.171300	0.143700	0.894200	0.057889
H9	H	0.868000	0.158100	0.582200	0.093223
H10	H	0.763000	0.412700	0.717500	0.102892
H11	H	0.962900	0.206500	0.707400	0.101653
H12	H	0.671300	0.356300	0.605800	0.057889
H13	H	0.132000	0.841900	0.582200	0.093223
H14	H	0.237000	0.587300	0.717500	0.102892
H15	H	0.037100	0.793500	0.707400	0.101653
H16	H	0.328700	0.643700	0.605800	0.057889
H17	H	0.368000	0.341900	0.082200	0.093223
H18	H	0.263000	0.087300	0.217500	0.102892
H19	H	0.462900	0.293500	0.207400	0.101653
H20	H	0.171300	0.143700	0.105800	0.057889
H21	H	0.632000	0.658100	0.082200	0.093223
H22	H	0.737000	0.912700	0.217500	0.102892
H23	H	0.537100	0.706500	0.207400	0.101653
H24	H	0.828700	0.856300	0.105800	0.057889
H25	H	0.132000	0.841900	0.417800	0.093223
H26	H	0.237000	0.587300	0.282500	0.102892
H27	H	0.037100	0.793500	0.292600	0.101653
H28	H	0.328700	0.643700	0.394200	0.057889
H29	H	0.868000	0.158100	0.417800	0.093223
H30	H	0.763000	0.412700	0.282500	0.102892
H31	H	0.962900	0.206500	0.292600	0.101653
H32	H	0.671300	0.356300	0.394200	0.057889
C1	C	0.626800	0.802700	0.769400	0.051009
C2	C	0.567100	0.831600	0.693200	0.161894
C3	C	0.658900	0.707900	0.886400	0.107118
C4	C	0.716600	0.856200	0.805500	-0.099438
C5	C	0.600600	0.739400	0.810300	-0.099597
C6	C	0.769100	0.821700	0.872500	0.113458
C7	C	0.373200	0.197300	0.769400	0.051009
C8	C	0.432900	0.168400	0.693200	0.161894
C9	C	0.341100	0.292100	0.886400	0.107118
C10	C	0.283400	0.143800	0.805500	-0.099438
C11	C	0.399400	0.260600	0.810300	-0.099597
C12	C	0.230900	0.178300	0.872500	0.113458
C13	C	0.873200	0.302700	0.730600	0.051009
C14	C	0.932900	0.331600	0.806800	0.161894
C15	C	0.841100	0.207900	0.613600	0.107118
C16	C	0.783400	0.356200	0.694500	-0.099438
C17	C	0.899400	0.239400	0.689700	-0.099597
C18	C	0.730900	0.321700	0.627500	0.113458
C19	C	0.126800	0.697300	0.730600	0.051009
C20	C	0.067100	0.668400	0.806800	0.161894
C21	C	0.158900	0.792100	0.613600	0.107118
C22	C	0.216600	0.643800	0.694500	-0.099438
C23	C	0.100600	0.760600	0.689700	-0.099597
C24	C	0.269100	0.678300	0.627500	0.113458
C25	C	0.373200	0.197300	0.230600	0.051009
C26	C	0.432900	0.168400	0.306800	0.161894
C27	C	0.341100	0.292100	0.113600	0.107118
C28	C	0.283400	0.143800	0.194500	-0.099438
C29	C	0.399400	0.260600	0.189700	-0.099597
C30	C	0.230900	0.178300	0.127500	0.113458
C31	C	0.626800	0.802700	0.230600	0.051009
C32	C	0.567100	0.831600	0.306800	0.161894
C33	C	0.658900	0.707900	0.113600	0.107118
C34	C	0.716600	0.856200	0.194500	-0.099438
C35	C	0.600600	0.739400	0.189700	-0.099597
C36	C	0.769100	0.821700	0.127500	0.113458
C37	C	0.126800	0.697300	0.269400	0.051009
C38	C	0.067100	0.668400	0.193200	0.161894
C39	C	0.158900	0.792100	0.386400	0.107118
C40	C	0.216600	0.643800	0.305500	-0.099438
C41	C	0.100600	0.760600	0.310300	-0.099597
C42	C	0.269100	0.678300	0.372500	0.113458
C43	C	0.873200	0.302700	0.269400	0.051009
C44	C	0.932900	0.331600	0.193200	0.161894
C45	C	0.841100	0.207900	0.386400	0.107118
C46	C	0.783400	0.356200	0.305500	-0.099438
C47	C	0.899400	0.239400	0.310300	-0.099597
C48	C	0.730900	0.321700	0.372500	0.113458
N1	N	0.517100	0.905200	0.587900	-0.218106
N2	N	0.463700	0.827800	0.588600	-0.233807
N3	N	0.493700	0.778800	0.653900	-0.119888
N4	N	0.583500	0.909000	0.656000	-0.068518
N5	N	0.749300	0.751100	0.909100	-0.488762
N6	N	0.482900	0.094800	0.587900	-0.218106
N7	N	0.536300	0.172200	0.588600	-0.233807
N8	N	0.506300	0.221200	0.653900	-0.119888
N9	N	0.416500	0.091000	0.656000	-0.068518
N10	N	0.250700	0.248900	0.909100	-0.488762
N11	N	0.982900	0.405200	0.912100	-0.218106
N12	N	0.036300	0.327800	0.911400	-0.233807
N13	N	0.006300	0.278800	0.846100	-0.119888
N14	N	0.916500	0.409000	0.844000	-0.068518
N15	N	0.750700	0.251100	0.590900	-0.488762
N16	N	0.017100	0.594800	0.912100	-0.218106
N17	N	0.963700	0.672200	0.911400	-0.233807
N18	N	0.993700	0.721200	0.846100	-0.119888
N19	N	0.083500	0.591000	0.844000	-0.068518
N20	N	0.249300	0.748900	0.590900	-0.488762
N21	N	0.482900	0.094800	0.412100	-0.218106
N22	N	0.536300	0.172200	0.411400	-0.233807
N23	N	0.506300	0.221200	0.346100	-0.119888
N24	N	0.416500	0.091000	0.344000	-0.068518
N25	N	0.250700	0.248900	0.090900	-0.488762
N26	N	0.517100	0.905200	0.412100	-0.218106
N27	N	0.463700	0.827800	0.411400	-0.233807
N28	N	0.493700	0.778800	0.346100	-0.119888
N29	N	0.583500	0.909000	0.344000	-0.068518
N30	N	0.749300	0.751100	0.090900	-0.488762
N31	N	0.017100	0.594800	0.087900	-0.218106
N32	N	0.963700	0.672200	0.088600	-0.233807
N33	N	0.993700	0.721200	0.153900	-0.119888
N34	N	0.083500	0.591000	0.156000	-0.068518
N35	N	0.249300	0.748900	0.409100	-0.488762
N36	N	0.982900	0.405200	0.087900	-0.218106
N37	N	0.036300	0.327800	0.088600	-0.233807
N38	N	0.006300	0.278800	0.153900	-0.119888
N39	N	0.916500	0.409000	0.156000	-0.068518
N40	N	0.750700	0.251100	0.409100	-0.488762
Cl1	Cl	0.282620	0.961690	0.500000	-0.489427
Cl2	Cl	0.717380	0.038310	0.500000	-0.489427
Cl3	Cl	0.217380	0.461690	-0.000000	-0.489427
Cl4	Cl	0.782620	0.538310	0.000000	-0.489427
