data_GEDDEA_clean_PM
_symmetry_space_group_name_H-M	'P1'
_cell_length_a	18.246300
_cell_length_b	18.246300
_cell_length_c	18.246300
_cell_angle_alpha	95.008700
_cell_angle_beta	95.008700
_cell_angle_gamma	95.008700
_symmetry_Int_Tables_number 1

loop_
_symmetry_equiv_pos_as_xyz
'x,y,z'

loop_
_atom_site_label
_atom_site_type_symbol
_atom_site_fract_x
_atom_site_fract_y
_atom_site_fract_z
_atom_site_charge
Ni1	Ni	0.746400	0.416360	0.223080	1.304663
Ni2	Ni	0.580090	0.274400	0.795120	1.362149
Ni3	Ni	0.629780	0.537390	0.242430	1.288121
Ni4	Ni	0.825200	0.294180	0.295860	1.253236
Ni5	Ni	0.223080	0.746400	0.416360	1.304663
Ni6	Ni	0.795120	0.580090	0.274400	1.362149
Ni7	Ni	0.242430	0.629780	0.537390	1.288121
Ni8	Ni	0.295860	0.825200	0.294180	1.253236
Ni9	Ni	0.416360	0.223080	0.746400	1.304663
Ni10	Ni	0.274400	0.795120	0.580090	1.362149
Ni11	Ni	0.537390	0.242430	0.629780	1.288121
Ni12	Ni	0.294180	0.295860	0.825200	1.253236
Ni13	Ni	0.253600	0.583640	0.776920	1.304663
Ni14	Ni	0.419910	0.725600	0.204880	1.362149
Ni15	Ni	0.370220	0.462610	0.757570	1.288121
Ni16	Ni	0.174800	0.705820	0.704140	1.253236
Ni17	Ni	0.776920	0.253600	0.583640	1.304663
Ni18	Ni	0.204880	0.419910	0.725600	1.362149
Ni19	Ni	0.757570	0.370220	0.462610	1.288121
Ni20	Ni	0.704140	0.174800	0.705820	1.253236
Ni21	Ni	0.583640	0.776920	0.253600	1.304663
Ni22	Ni	0.725600	0.204880	0.419910	1.362149
Ni23	Ni	0.462610	0.757570	0.370220	1.288121
Ni24	Ni	0.705820	0.704140	0.174800	1.253236
H1	H	0.724600	0.296200	0.003900	0.134946
H2	H	0.803400	0.119300	0.895900	0.099238
H3	H	0.877700	0.099400	0.008000	0.094993
H4	H	0.885200	0.188800	0.108200	0.102452
H5	H	0.713600	0.486800	0.346900	0.464908
H6	H	0.572400	0.154800	0.720600	0.430493
H7	H	0.961400	0.471900	0.240900	0.184967
H8	H	0.003500	0.507800	0.177300	0.130045
H9	H	0.956800	0.557400	0.229000	0.189110
H10	H	0.838500	0.548900	0.042900	0.158074
H11	H	0.882600	0.604000	0.108400	0.181898
H12	H	0.926900	0.555000	0.053700	0.138286
H13	H	0.498000	0.395200	0.142000	0.167776
H14	H	0.520600	0.467500	0.102300	0.197346
H15	H	0.493400	0.391200	0.053700	0.176647
H16	H	0.680400	0.430800	0.012800	0.163021
H17	H	0.595300	0.416700	0.981200	0.184164
H18	H	0.624300	0.490200	0.033500	0.177235
H19	H	0.003900	0.724600	0.296200	0.134946
H20	H	0.895900	0.803400	0.119300	0.099238
H21	H	0.008000	0.877700	0.099400	0.094993
H22	H	0.108200	0.885200	0.188800	0.102452
H23	H	0.346900	0.713600	0.486800	0.464908
H24	H	0.720600	0.572400	0.154800	0.430493
H25	H	0.240900	0.961400	0.471900	0.184967
H26	H	0.177300	0.003500	0.507800	0.130045
H27	H	0.229000	0.956800	0.557400	0.189110
H28	H	0.042900	0.838500	0.548900	0.158074
H29	H	0.108400	0.882600	0.604000	0.181898
H30	H	0.053700	0.926900	0.555000	0.138286
H31	H	0.142000	0.498000	0.395200	0.167776
H32	H	0.102300	0.520600	0.467500	0.197346
H33	H	0.053700	0.493400	0.391200	0.176647
H34	H	0.012800	0.680400	0.430800	0.163021
H35	H	0.981200	0.595300	0.416700	0.184164
H36	H	0.033500	0.624300	0.490200	0.177235
H37	H	0.296200	0.003900	0.724600	0.134946
H38	H	0.119300	0.895900	0.803400	0.099238
H39	H	0.099400	0.008000	0.877700	0.094993
H40	H	0.188800	0.108200	0.885200	0.102452
H41	H	0.486800	0.346900	0.713600	0.464908
H42	H	0.154800	0.720600	0.572400	0.430493
H43	H	0.471900	0.240900	0.961400	0.184967
H44	H	0.507800	0.177300	0.003500	0.130045
H45	H	0.557400	0.229000	0.956800	0.189110
H46	H	0.548900	0.042900	0.838500	0.158074
H47	H	0.604000	0.108400	0.882600	0.181898
H48	H	0.555000	0.053700	0.926900	0.138286
H49	H	0.395200	0.142000	0.498000	0.167776
H50	H	0.467500	0.102300	0.520600	0.197346
H51	H	0.391200	0.053700	0.493400	0.176647
H52	H	0.430800	0.012800	0.680400	0.163021
H53	H	0.416700	0.981200	0.595300	0.184164
H54	H	0.490200	0.033500	0.624300	0.177235
H55	H	0.275400	0.703800	0.996100	0.134946
H56	H	0.196600	0.880700	0.104100	0.099238
H57	H	0.122300	0.900600	0.992000	0.094993
H58	H	0.114800	0.811200	0.891800	0.102452
H59	H	0.286400	0.513200	0.653100	0.464908
H60	H	0.427600	0.845200	0.279400	0.430493
H61	H	0.038600	0.528100	0.759100	0.184967
H62	H	0.996500	0.492200	0.822700	0.130045
H63	H	0.043200	0.442600	0.771000	0.189110
H64	H	0.161500	0.451100	0.957100	0.158074
H65	H	0.117400	0.396000	0.891600	0.181898
H66	H	0.073100	0.445000	0.946300	0.138286
H67	H	0.502000	0.604800	0.858000	0.167776
H68	H	0.479400	0.532500	0.897700	0.197346
H69	H	0.506600	0.608800	0.946300	0.176647
H70	H	0.319600	0.569200	0.987200	0.163021
H71	H	0.404700	0.583300	0.018800	0.184164
H72	H	0.375700	0.509800	0.966500	0.177235
H73	H	0.996100	0.275400	0.703800	0.134946
H74	H	0.104100	0.196600	0.880700	0.099238
H75	H	0.992000	0.122300	0.900600	0.094993
H76	H	0.891800	0.114800	0.811200	0.102452
H77	H	0.653100	0.286400	0.513200	0.464908
H78	H	0.279400	0.427600	0.845200	0.430493
H79	H	0.759100	0.038600	0.528100	0.184967
H80	H	0.822700	0.996500	0.492200	0.130045
H81	H	0.771000	0.043200	0.442600	0.189110
H82	H	0.957100	0.161500	0.451100	0.158074
H83	H	0.891600	0.117400	0.396000	0.181898
H84	H	0.946300	0.073100	0.445000	0.138286
H85	H	0.858000	0.502000	0.604800	0.167776
H86	H	0.897700	0.479400	0.532500	0.197346
H87	H	0.946300	0.506600	0.608800	0.176647
H88	H	0.987200	0.319600	0.569200	0.163021
H89	H	0.018800	0.404700	0.583300	0.184164
H90	H	0.966500	0.375700	0.509800	0.177235
H91	H	0.703800	0.996100	0.275400	0.134946
H92	H	0.880700	0.104100	0.196600	0.099238
H93	H	0.900600	0.992000	0.122300	0.094993
H94	H	0.811200	0.891800	0.114800	0.102452
H95	H	0.513200	0.653100	0.286400	0.464908
H96	H	0.845200	0.279400	0.427600	0.430493
H97	H	0.528100	0.759100	0.038600	0.184967
H98	H	0.492200	0.822700	0.996500	0.130045
H99	H	0.442600	0.771000	0.043200	0.189110
H100	H	0.451100	0.957100	0.161500	0.158074
H101	H	0.396000	0.891600	0.117400	0.181898
H102	H	0.445000	0.946300	0.073100	0.138286
H103	H	0.604800	0.858000	0.502000	0.167776
H104	H	0.532500	0.897700	0.479400	0.197346
H105	H	0.608800	0.946300	0.506600	0.176647
H106	H	0.569200	0.987200	0.319600	0.163021
H107	H	0.583300	0.018800	0.404700	0.184164
H108	H	0.509800	0.966500	0.375700	0.177235
C1	C	0.804900	0.301200	0.131900	0.432720
C2	C	0.709400	0.219000	0.874300	0.459726
C3	C	0.808500	0.251900	0.068700	0.037181
C4	C	0.757000	0.258100	0.003300	-0.059668
C5	C	0.755300	0.208300	0.940500	0.031907
C6	C	0.802300	0.151200	0.939800	-0.013396
C7	C	0.849600	0.140800	0.006100	-0.191624
C8	C	0.851800	0.193300	0.066300	0.004740
C9	C	0.959200	0.508000	0.204000	-0.381847
C10	C	0.881900	0.556100	0.079300	-0.460272
C11	C	0.521100	0.413700	0.099800	-0.421122
C12	C	0.629600	0.437500	0.023600	-0.380781
C13	C	0.131900	0.804900	0.301200	0.432720
C14	C	0.874300	0.709400	0.219000	0.459726
C15	C	0.068700	0.808500	0.251900	0.037181
C16	C	0.003300	0.757000	0.258100	-0.059668
C17	C	0.940500	0.755300	0.208300	0.031907
C18	C	0.939800	0.802300	0.151200	-0.013396
C19	C	0.006100	0.849600	0.140800	-0.191624
C20	C	0.066300	0.851800	0.193300	0.004740
C21	C	0.204000	0.959200	0.508000	-0.381847
C22	C	0.079300	0.881900	0.556100	-0.460272
C23	C	0.099800	0.521100	0.413700	-0.421122
C24	C	0.023600	0.629600	0.437500	-0.380781
C25	C	0.301200	0.131900	0.804900	0.432720
C26	C	0.219000	0.874300	0.709400	0.459726
C27	C	0.251900	0.068700	0.808500	0.037181
C28	C	0.258100	0.003300	0.757000	-0.059668
C29	C	0.208300	0.940500	0.755300	0.031907
C30	C	0.151200	0.939800	0.802300	-0.013396
C31	C	0.140800	0.006100	0.849600	-0.191624
C32	C	0.193300	0.066300	0.851800	0.004740
C33	C	0.508000	0.204000	0.959200	-0.381847
C34	C	0.556100	0.079300	0.881900	-0.460272
C35	C	0.413700	0.099800	0.521100	-0.421122
C36	C	0.437500	0.023600	0.629600	-0.380781
C37	C	0.195100	0.698800	0.868100	0.432720
C38	C	0.290600	0.781000	0.125700	0.459726
C39	C	0.191500	0.748100	0.931300	0.037181
C40	C	0.243000	0.741900	0.996700	-0.059668
C41	C	0.244700	0.791700	0.059500	0.031907
C42	C	0.197700	0.848800	0.060200	-0.013396
C43	C	0.150400	0.859200	0.993900	-0.191624
C44	C	0.148200	0.806700	0.933700	0.004740
C45	C	0.040800	0.492000	0.796000	-0.381847
C46	C	0.118100	0.443900	0.920700	-0.460272
C47	C	0.478900	0.586300	0.900200	-0.421122
C48	C	0.370400	0.562500	0.976400	-0.380781
C49	C	0.868100	0.195100	0.698800	0.432720
C50	C	0.125700	0.290600	0.781000	0.459726
C51	C	0.931300	0.191500	0.748100	0.037181
C52	C	0.996700	0.243000	0.741900	-0.059668
C53	C	0.059500	0.244700	0.791700	0.031907
C54	C	0.060200	0.197700	0.848800	-0.013396
C55	C	0.993900	0.150400	0.859200	-0.191624
C56	C	0.933700	0.148200	0.806700	0.004740
C57	C	0.796000	0.040800	0.492000	-0.381847
C58	C	0.920700	0.118100	0.443900	-0.460272
C59	C	0.900200	0.478900	0.586300	-0.421122
C60	C	0.976400	0.370400	0.562500	-0.380781
C61	C	0.698800	0.868100	0.195100	0.432720
C62	C	0.781000	0.125700	0.290600	0.459726
C63	C	0.748100	0.931300	0.191500	0.037181
C64	C	0.741900	0.996700	0.243000	-0.059668
C65	C	0.791700	0.059500	0.244700	0.031907
C66	C	0.848800	0.060200	0.197700	-0.013396
C67	C	0.859200	0.993900	0.150400	-0.191624
C68	C	0.806700	0.933700	0.148200	0.004740
C69	C	0.492000	0.796000	0.040800	-0.381847
C70	C	0.443900	0.920700	0.118100	-0.460272
C71	C	0.586300	0.900200	0.478900	-0.421122
C72	C	0.562500	0.976400	0.370400	-0.380781
S1	S	0.651770	0.315120	0.320430	0.650037
S2	S	0.868050	0.460960	0.365920	0.701318
S3	S	0.878040	0.483580	0.139540	0.310119
S4	S	0.609670	0.391590	0.102220	0.311693
S5	S	0.320430	0.651770	0.315120	0.650037
S6	S	0.365920	0.868050	0.460960	0.701318
S7	S	0.139540	0.878040	0.483580	0.310119
S8	S	0.102220	0.609670	0.391590	0.311693
S9	S	0.315120	0.320430	0.651770	0.650037
S10	S	0.460960	0.365920	0.868050	0.701318
S11	S	0.483580	0.139540	0.878040	0.310119
S12	S	0.391590	0.102220	0.609670	0.311693
S13	S	0.348230	0.684880	0.679570	0.650037
S14	S	0.131950	0.539040	0.634080	0.701318
S15	S	0.121960	0.516420	0.860460	0.310119
S16	S	0.390330	0.608410	0.897780	0.311693
S17	S	0.679570	0.348230	0.684880	0.650037
S18	S	0.634080	0.131950	0.539040	0.701318
S19	S	0.860460	0.121960	0.516420	0.310119
S20	S	0.897780	0.390330	0.608410	0.311693
S21	S	0.684880	0.679570	0.348230	0.650037
S22	S	0.539040	0.634080	0.131950	0.701318
S23	S	0.516420	0.860460	0.121960	0.310119
S24	S	0.608410	0.897780	0.390330	0.311693
O1	O	0.853600	0.292500	0.188800	-0.565374
O2	O	0.759800	0.349800	0.135900	-0.605177
O3	O	0.652100	0.251700	0.876700	-0.600063
O4	O	0.729800	0.189600	0.813700	-0.589154
O5	O	0.716930	0.497630	0.294430	-1.236295
O6	O	0.601000	0.202000	0.711700	-1.322849
O7	O	0.646900	0.240600	0.348100	-0.373008
O8	O	0.672000	0.375000	0.383600	-0.444534
O9	O	0.710500	0.319900	0.268800	-0.552373
O10	O	0.581200	0.328100	0.281300	-0.207164
O11	O	0.842200	0.407100	0.300700	-0.643772
O12	O	0.814800	0.457200	0.422000	-0.515975
O13	O	0.941500	0.441000	0.397300	-0.338162
O14	O	0.873200	0.535700	0.340600	-0.450504
O15	O	0.813670	0.500870	0.185570	-0.568710
O16	O	0.650500	0.445000	0.170100	-0.601383
O17	O	0.188800	0.853600	0.292500	-0.565374
O18	O	0.135900	0.759800	0.349800	-0.605177
O19	O	0.876700	0.652100	0.251700	-0.600063
O20	O	0.813700	0.729800	0.189600	-0.589154
O21	O	0.294430	0.716930	0.497630	-1.236295
O22	O	0.711700	0.601000	0.202000	-1.322849
O23	O	0.348100	0.646900	0.240600	-0.373008
O24	O	0.383600	0.672000	0.375000	-0.444534
O25	O	0.268800	0.710500	0.319900	-0.552373
O26	O	0.281300	0.581200	0.328100	-0.207164
O27	O	0.300700	0.842200	0.407100	-0.643772
O28	O	0.422000	0.814800	0.457200	-0.515975
O29	O	0.397300	0.941500	0.441000	-0.338162
O30	O	0.340600	0.873200	0.535700	-0.450504
O31	O	0.185570	0.813670	0.500870	-0.568710
O32	O	0.170100	0.650500	0.445000	-0.601383
O33	O	0.292500	0.188800	0.853600	-0.565374
O34	O	0.349800	0.135900	0.759800	-0.605177
O35	O	0.251700	0.876700	0.652100	-0.600063
O36	O	0.189600	0.813700	0.729800	-0.589154
O37	O	0.497630	0.294430	0.716930	-1.236295
O38	O	0.202000	0.711700	0.601000	-1.322849
O39	O	0.240600	0.348100	0.646900	-0.373008
O40	O	0.375000	0.383600	0.672000	-0.444534
O41	O	0.319900	0.268800	0.710500	-0.552373
O42	O	0.328100	0.281300	0.581200	-0.207164
O43	O	0.407100	0.300700	0.842200	-0.643772
O44	O	0.457200	0.422000	0.814800	-0.515975
O45	O	0.441000	0.397300	0.941500	-0.338162
O46	O	0.535700	0.340600	0.873200	-0.450504
O47	O	0.500870	0.185570	0.813670	-0.568710
O48	O	0.445000	0.170100	0.650500	-0.601383
O49	O	0.146400	0.707500	0.811200	-0.565374
O50	O	0.240200	0.650200	0.864100	-0.605177
O51	O	0.347900	0.748300	0.123300	-0.600063
O52	O	0.270200	0.810400	0.186300	-0.589154
O53	O	0.283070	0.502370	0.705570	-1.236295
O54	O	0.399000	0.798000	0.288300	-1.322849
O55	O	0.353100	0.759400	0.651900	-0.373008
O56	O	0.328000	0.625000	0.616400	-0.444534
O57	O	0.289500	0.680100	0.731200	-0.552373
O58	O	0.418800	0.671900	0.718700	-0.207164
O59	O	0.157800	0.592900	0.699300	-0.643772
O60	O	0.185200	0.542800	0.578000	-0.515975
O61	O	0.058500	0.559000	0.602700	-0.338162
O62	O	0.126800	0.464300	0.659400	-0.450504
O63	O	0.186330	0.499130	0.814430	-0.568710
O64	O	0.349500	0.555000	0.829900	-0.601383
O65	O	0.811200	0.146400	0.707500	-0.565374
O66	O	0.864100	0.240200	0.650200	-0.605177
O67	O	0.123300	0.347900	0.748300	-0.600063
O68	O	0.186300	0.270200	0.810400	-0.589154
O69	O	0.705570	0.283070	0.502370	-1.236295
O70	O	0.288300	0.399000	0.798000	-1.322849
O71	O	0.651900	0.353100	0.759400	-0.373008
O72	O	0.616400	0.328000	0.625000	-0.444534
O73	O	0.731200	0.289500	0.680100	-0.552373
O74	O	0.718700	0.418800	0.671900	-0.207164
O75	O	0.699300	0.157800	0.592900	-0.643772
O76	O	0.578000	0.185200	0.542800	-0.515975
O77	O	0.602700	0.058500	0.559000	-0.338162
O78	O	0.659400	0.126800	0.464300	-0.450504
O79	O	0.814430	0.186330	0.499130	-0.568710
O80	O	0.829900	0.349500	0.555000	-0.601383
O81	O	0.707500	0.811200	0.146400	-0.565374
O82	O	0.650200	0.864100	0.240200	-0.605177
O83	O	0.748300	0.123300	0.347900	-0.600063
O84	O	0.810400	0.186300	0.270200	-0.589154
O85	O	0.502370	0.705570	0.283070	-1.236295
O86	O	0.798000	0.288300	0.399000	-1.322849
O87	O	0.759400	0.651900	0.353100	-0.373008
O88	O	0.625000	0.616400	0.328000	-0.444534
O89	O	0.680100	0.731200	0.289500	-0.552373
O90	O	0.671900	0.718700	0.418800	-0.207164
O91	O	0.592900	0.699300	0.157800	-0.643772
O92	O	0.542800	0.578000	0.185200	-0.515975
O93	O	0.559000	0.602700	0.058500	-0.338162
O94	O	0.464300	0.659400	0.126800	-0.450504
O95	O	0.499130	0.814430	0.186330	-0.568710
O96	O	0.555000	0.829900	0.349500	-0.601383
