data_GITTIN_PM
_symmetry_space_group_name_H-M	'P1'
_cell_length_a	17.271500
_cell_length_b	17.271500
_cell_length_c	17.271500
_cell_angle_alpha	90.000000
_cell_angle_beta	90.000000
_cell_angle_gamma	90.000000
_symmetry_Int_Tables_number 1

loop_
_symmetry_equiv_pos_as_xyz
'x,y,z'

loop_
_atom_site_label
_atom_site_type_symbol
_atom_site_fract_x
_atom_site_fract_y
_atom_site_fract_z
_atom_site_charge
Co1	Co	0.000000	0.500000	0.250000	1.206447
Co2	Co	0.000000	0.500000	0.750000	1.206447
Co3	Co	0.250000	0.000000	0.500000	1.206447
Co4	Co	0.750000	0.000000	0.500000	1.206447
Co5	Co	0.500000	0.250000	-0.000000	1.206447
Co6	Co	0.500000	0.750000	-0.000000	1.206447
Co7	Co	0.500000	0.000000	0.250000	1.206447
Co8	Co	0.500000	0.000000	0.750000	1.206447
Co9	Co	0.000000	0.250000	0.500000	1.206447
Co10	Co	0.000000	0.750000	0.500000	1.206447
Co11	Co	0.250000	0.500000	0.000000	1.206447
Co12	Co	0.750000	0.500000	-0.000000	1.206447
H1	H	0.886300	0.357900	0.212900	0.089569
H2	H	0.113700	0.642100	0.212900	0.089569
H3	H	0.113700	0.357900	0.787100	0.089569
H4	H	0.886300	0.642100	0.787100	0.089569
H5	H	0.212900	0.886300	0.357900	0.089569
H6	H	0.212900	0.113700	0.642100	0.089569
H7	H	0.787100	0.113700	0.357900	0.089569
H8	H	0.787100	0.886300	0.642100	0.089569
H9	H	0.357900	0.212900	0.886300	0.089569
H10	H	0.642100	0.212900	0.113700	0.089569
H11	H	0.357900	0.787100	0.113700	0.089569
H12	H	0.642100	0.787100	0.886300	0.089569
H13	H	0.357900	0.886300	0.212900	0.089569
H14	H	0.642100	0.113700	0.212900	0.089569
H15	H	0.357900	0.113700	0.787100	0.089569
H16	H	0.642100	0.886300	0.787100	0.089569
H17	H	0.886300	0.212900	0.357900	0.089569
H18	H	0.113700	0.212900	0.642100	0.089569
H19	H	0.113700	0.787100	0.357900	0.089569
H20	H	0.886300	0.787100	0.642100	0.089569
H21	H	0.212900	0.357900	0.886300	0.089569
H22	H	0.212900	0.642100	0.113700	0.089569
H23	H	0.787100	0.357900	0.113700	0.089569
H24	H	0.787100	0.642100	0.886300	0.089569
H25	H	0.386300	0.857900	0.712900	0.089569
H26	H	0.613700	0.142100	0.712900	0.089569
H27	H	0.613700	0.857900	0.287100	0.089569
H28	H	0.386300	0.142100	0.287100	0.089569
H29	H	0.712900	0.386300	0.857900	0.089569
H30	H	0.712900	0.613700	0.142100	0.089569
H31	H	0.287100	0.613700	0.857900	0.089569
H32	H	0.287100	0.386300	0.142100	0.089569
H33	H	0.857900	0.712900	0.386300	0.089569
H34	H	0.142100	0.712900	0.613700	0.089569
H35	H	0.857900	0.287100	0.613700	0.089569
H36	H	0.142100	0.287100	0.386300	0.089569
H37	H	0.857900	0.386300	0.712900	0.089569
H38	H	0.142100	0.613700	0.712900	0.089569
H39	H	0.857900	0.613700	0.287100	0.089569
H40	H	0.142100	0.386300	0.287100	0.089569
H41	H	0.386300	0.712900	0.857900	0.089569
H42	H	0.613700	0.712900	0.142100	0.089569
H43	H	0.613700	0.287100	0.857900	0.089569
H44	H	0.386300	0.287100	0.142100	0.089569
H45	H	0.712900	0.857900	0.386300	0.089569
H46	H	0.712900	0.142100	0.613700	0.089569
H47	H	0.287100	0.857900	0.613700	0.089569
H48	H	0.287100	0.142100	0.386300	0.089569
C1	C	0.873500	0.509000	0.126500	0.322037
C2	C	0.126500	0.491000	0.126500	0.322037
C3	C	0.126500	0.509000	0.873500	0.322037
C4	C	0.873500	0.491000	0.873500	0.322037
C5	C	0.126500	0.873500	0.509000	0.322037
C6	C	0.126500	0.126500	0.491000	0.322037
C7	C	0.873500	0.126500	0.509000	0.322037
C8	C	0.873500	0.873500	0.491000	0.322037
C9	C	0.509000	0.126500	0.873500	0.322037
C10	C	0.491000	0.126500	0.126500	0.322037
C11	C	0.509000	0.873500	0.126500	0.322037
C12	C	0.491000	0.873500	0.873500	0.322037
C13	C	0.373500	0.009000	0.626500	0.322037
C14	C	0.626500	0.991000	0.626500	0.322037
C15	C	0.626500	0.009000	0.373500	0.322037
C16	C	0.373500	0.991000	0.373500	0.322037
C17	C	0.626500	0.373500	0.009000	0.322037
C18	C	0.626500	0.626500	0.991000	0.322037
C19	C	0.373500	0.626500	0.009000	0.322037
C20	C	0.373500	0.373500	0.991000	0.322037
C21	C	0.009000	0.626500	0.373500	0.322037
C22	C	0.991000	0.626500	0.626500	0.322037
C23	C	0.009000	0.373500	0.626500	0.322037
C24	C	0.991000	0.373500	0.373500	0.322037
C25	C	0.874500	0.400100	0.179800	0.102615
C26	C	0.125500	0.599900	0.179800	0.102615
C27	C	0.125500	0.400100	0.820200	0.102615
C28	C	0.874500	0.599900	0.820200	0.102615
C29	C	0.179800	0.874500	0.400100	0.102615
C30	C	0.179800	0.125500	0.599900	0.102615
C31	C	0.820200	0.125500	0.400100	0.102615
C32	C	0.820200	0.874500	0.599900	0.102615
C33	C	0.400100	0.179800	0.874500	0.102615
C34	C	0.599900	0.179800	0.125500	0.102615
C35	C	0.400100	0.820200	0.125500	0.102615
C36	C	0.599900	0.820200	0.874500	0.102615
C37	C	0.400100	0.874500	0.179800	0.102615
C38	C	0.599900	0.125500	0.179800	0.102615
C39	C	0.400100	0.125500	0.820200	0.102615
C40	C	0.599900	0.874500	0.820200	0.102615
C41	C	0.874500	0.179800	0.400100	0.102615
C42	C	0.125500	0.179800	0.599900	0.102615
C43	C	0.125500	0.820200	0.400100	0.102615
C44	C	0.874500	0.820200	0.599900	0.102615
C45	C	0.179800	0.400100	0.874500	0.102615
C46	C	0.179800	0.599900	0.125500	0.102615
C47	C	0.820200	0.400100	0.125500	0.102615
C48	C	0.820200	0.599900	0.874500	0.102615
C49	C	0.374500	0.900100	0.679800	0.102615
C50	C	0.625500	0.099900	0.679800	0.102615
C51	C	0.625500	0.900100	0.320200	0.102615
C52	C	0.374500	0.099900	0.320200	0.102615
C53	C	0.679800	0.374500	0.900100	0.102615
C54	C	0.679800	0.625500	0.099900	0.102615
C55	C	0.320200	0.625500	0.900100	0.102615
C56	C	0.320200	0.374500	0.099900	0.102615
C57	C	0.900100	0.679800	0.374500	0.102615
C58	C	0.099900	0.679800	0.625500	0.102615
C59	C	0.900100	0.320200	0.625500	0.102615
C60	C	0.099900	0.320200	0.374500	0.102615
C61	C	0.900100	0.374500	0.679800	0.102615
C62	C	0.099900	0.625500	0.679800	0.102615
C63	C	0.900100	0.625500	0.320200	0.102615
C64	C	0.099900	0.374500	0.320200	0.102615
C65	C	0.374500	0.679800	0.900100	0.102615
C66	C	0.625500	0.679800	0.099900	0.102615
C67	C	0.625500	0.320200	0.900100	0.102615
C68	C	0.374500	0.320200	0.099900	0.102615
C69	C	0.679800	0.900100	0.374500	0.102615
C70	C	0.679800	0.099900	0.625500	0.102615
C71	C	0.320200	0.900100	0.625500	0.102615
C72	C	0.320200	0.099900	0.374500	0.102615
N1	N	0.910600	0.469800	0.180700	-0.473150
N2	N	0.089400	0.530200	0.180700	-0.473150
N3	N	0.089400	0.469800	0.819300	-0.473150
N4	N	0.910600	0.530200	0.819300	-0.473150
N5	N	0.180700	0.910600	0.469800	-0.473150
N6	N	0.180700	0.089400	0.530200	-0.473150
N7	N	0.819300	0.089400	0.469800	-0.473150
N8	N	0.819300	0.910600	0.530200	-0.473150
N9	N	0.469800	0.180700	0.910600	-0.473150
N10	N	0.530200	0.180700	0.089400	-0.473150
N11	N	0.469800	0.819300	0.089400	-0.473150
N12	N	0.530200	0.819300	0.910600	-0.473150
N13	N	0.469800	0.910600	0.180700	-0.473150
N14	N	0.530200	0.089400	0.180700	-0.473150
N15	N	0.469800	0.089400	0.819300	-0.473150
N16	N	0.530200	0.910600	0.819300	-0.473150
N17	N	0.910600	0.180700	0.469800	-0.473150
N18	N	0.089400	0.180700	0.530200	-0.473150
N19	N	0.089400	0.819300	0.469800	-0.473150
N20	N	0.910600	0.819300	0.530200	-0.473150
N21	N	0.180700	0.469800	0.910600	-0.473150
N22	N	0.180700	0.530200	0.089400	-0.473150
N23	N	0.819300	0.469800	0.089400	-0.473150
N24	N	0.819300	0.530200	0.910600	-0.473150
N25	N	0.410600	0.969800	0.680700	-0.473150
N26	N	0.589400	0.030200	0.680700	-0.473150
N27	N	0.589400	0.969800	0.319300	-0.473150
N28	N	0.410600	0.030200	0.319300	-0.473150
N29	N	0.680700	0.410600	0.969800	-0.473150
N30	N	0.680700	0.589400	0.030200	-0.473150
N31	N	0.319300	0.589400	0.969800	-0.473150
N32	N	0.319300	0.410600	0.030200	-0.473150
N33	N	0.969800	0.680700	0.410600	-0.473150
N34	N	0.030200	0.680700	0.589400	-0.473150
N35	N	0.969800	0.319300	0.589400	-0.473150
N36	N	0.030200	0.319300	0.410600	-0.473150
N37	N	0.969800	0.410600	0.680700	-0.473150
N38	N	0.030200	0.589400	0.680700	-0.473150
N39	N	0.969800	0.589400	0.319300	-0.473150
N40	N	0.030200	0.410600	0.319300	-0.473150
N41	N	0.410600	0.680700	0.969800	-0.473150
N42	N	0.589400	0.680700	0.030200	-0.473150
N43	N	0.589400	0.319300	0.969800	-0.473150
N44	N	0.410600	0.319300	0.030200	-0.473150
N45	N	0.680700	0.969800	0.410600	-0.473150
N46	N	0.680700	0.030200	0.589400	-0.473150
N47	N	0.319300	0.969800	0.589400	-0.473150
N48	N	0.319300	0.030200	0.410600	-0.473150
N49	N	0.893100	0.584400	0.106900	0.051054
N50	N	0.106900	0.415600	0.106900	0.051054
N51	N	0.106900	0.584400	0.893100	0.051054
N52	N	0.893100	0.415600	0.893100	0.051054
N53	N	0.106900	0.893100	0.584400	0.051054
N54	N	0.106900	0.106900	0.415600	0.051054
N55	N	0.893100	0.106900	0.584400	0.051054
N56	N	0.893100	0.893100	0.415600	0.051054
N57	N	0.584400	0.106900	0.893100	0.051054
N58	N	0.415600	0.106900	0.106900	0.051054
N59	N	0.584400	0.893100	0.106900	0.051054
N60	N	0.415600	0.893100	0.893100	0.051054
N61	N	0.393100	0.084400	0.606900	0.051054
N62	N	0.606900	0.915600	0.606900	0.051054
N63	N	0.606900	0.084400	0.393100	0.051054
N64	N	0.393100	0.915600	0.393100	0.051054
N65	N	0.606900	0.393100	0.084400	0.051054
N66	N	0.606900	0.606900	0.915600	0.051054
N67	N	0.393100	0.606900	0.084400	0.051054
N68	N	0.393100	0.393100	0.915600	0.051054
N69	N	0.084400	0.606900	0.393100	0.051054
N70	N	0.915600	0.606900	0.606900	0.051054
N71	N	0.084400	0.393100	0.606900	0.051054
N72	N	0.915600	0.393100	0.393100	0.051054
O1	O	0.858000	0.615000	0.055300	-0.207191
O2	O	0.142000	0.385000	0.055300	-0.207191
O3	O	0.142000	0.615000	0.944700	-0.207191
O4	O	0.858000	0.385000	0.944700	-0.207191
O5	O	0.055300	0.858000	0.615000	-0.207191
O6	O	0.055300	0.142000	0.385000	-0.207191
O7	O	0.944700	0.142000	0.615000	-0.207191
O8	O	0.944700	0.858000	0.385000	-0.207191
O9	O	0.615000	0.055300	0.858000	-0.207191
O10	O	0.385000	0.055300	0.142000	-0.207191
O11	O	0.615000	0.944700	0.142000	-0.207191
O12	O	0.385000	0.944700	0.858000	-0.207191
O13	O	0.615000	0.858000	0.055300	-0.207191
O14	O	0.385000	0.142000	0.055300	-0.207191
O15	O	0.615000	0.142000	0.944700	-0.207191
O16	O	0.385000	0.858000	0.944700	-0.207191
O17	O	0.858000	0.055300	0.615000	-0.207191
O18	O	0.142000	0.055300	0.385000	-0.207191
O19	O	0.142000	0.944700	0.615000	-0.207191
O20	O	0.858000	0.944700	0.385000	-0.207191
O21	O	0.055300	0.615000	0.858000	-0.207191
O22	O	0.055300	0.385000	0.142000	-0.207191
O23	O	0.944700	0.615000	0.142000	-0.207191
O24	O	0.944700	0.385000	0.858000	-0.207191
O25	O	0.358000	0.115000	0.555300	-0.207191
O26	O	0.642000	0.885000	0.555300	-0.207191
O27	O	0.642000	0.115000	0.444700	-0.207191
O28	O	0.358000	0.885000	0.444700	-0.207191
O29	O	0.555300	0.358000	0.115000	-0.207191
O30	O	0.555300	0.642000	0.885000	-0.207191
O31	O	0.444700	0.642000	0.115000	-0.207191
O32	O	0.444700	0.358000	0.885000	-0.207191
O33	O	0.115000	0.555300	0.358000	-0.207191
O34	O	0.885000	0.555300	0.642000	-0.207191
O35	O	0.115000	0.444700	0.642000	-0.207191
O36	O	0.885000	0.444700	0.358000	-0.207191
O37	O	0.115000	0.358000	0.555300	-0.207191
O38	O	0.885000	0.642000	0.555300	-0.207191
O39	O	0.115000	0.642000	0.444700	-0.207191
O40	O	0.885000	0.358000	0.444700	-0.207191
O41	O	0.358000	0.555300	0.115000	-0.207191
O42	O	0.642000	0.555300	0.885000	-0.207191
O43	O	0.642000	0.444700	0.115000	-0.207191
O44	O	0.358000	0.444700	0.885000	-0.207191
O45	O	0.555300	0.115000	0.358000	-0.207191
O46	O	0.555300	0.885000	0.642000	-0.207191
O47	O	0.444700	0.115000	0.642000	-0.207191
O48	O	0.444700	0.885000	0.358000	-0.207191
