data_GUSNEN01_clean_PM
_symmetry_space_group_name_H-M	'P1'
_cell_length_a	6.778000
_cell_length_b	7.700500
_cell_length_c	10.567000
_cell_angle_alpha	111.367999
_cell_angle_beta	103.483999
_cell_angle_gamma	89.999998
_symmetry_Int_Tables_number 1

loop_
_symmetry_equiv_pos_as_xyz
'x,y,z'

loop_
_atom_site_label
_atom_site_type_symbol
_atom_site_fract_x
_atom_site_fract_y
_atom_site_fract_z
_atom_site_charge
Cr1	Cr	0.000000	0.000000	0.000000	-2.462697
Cr2	Cr	0.500000	-0.000000	0.000000	-2.462698
H1	H	0.200600	0.898300	0.337400	0.134643
H2	H	0.657400	0.049100	0.425000	0.118587
H3	H	0.299400	0.560900	0.662600	0.134642
H4	H	0.842600	0.624100	0.575000	0.118586
H5	H	0.799400	0.101700	0.662600	0.134643
H6	H	0.342600	0.950900	0.575000	0.118587
H7	H	0.700600	0.439100	0.337400	0.134642
H8	H	0.157400	0.375900	0.425000	0.118586
C1	C	0.917300	0.969400	0.361600	0.022302
C2	C	0.116900	0.940700	0.405200	-0.027330
C3	C	0.800400	0.028700	0.456400	-0.135235
C4	C	0.828600	0.936500	0.213200	0.281354
C5	C	0.582700	0.607800	0.638400	0.022302
C6	C	0.383100	0.535500	0.594800	-0.027332
C7	C	0.699600	0.572300	0.543600	-0.135234
C8	C	0.671400	0.723300	0.786800	0.281351
C9	C	0.082700	0.030600	0.638400	0.022302
C10	C	0.883100	0.059300	0.594800	-0.027330
C11	C	0.199600	0.971300	0.543600	-0.135235
C12	C	0.171400	0.063500	0.786800	0.281354
C13	C	0.417300	0.392200	0.361600	0.022302
C14	C	0.616900	0.464500	0.405200	-0.027332
C15	C	0.300400	0.427700	0.456400	-0.135234
C16	C	0.328600	0.276700	0.213200	0.281351
O1	O	0.937600	0.883500	0.125600	0.277402
O2	O	0.642900	0.961100	0.172400	0.247321
O3	O	0.562400	0.757900	0.874400	0.277397
O4	O	0.857100	0.788700	0.827600	0.247316
O5	O	0.062400	0.116500	0.874400	0.277402
O6	O	0.357100	0.038900	0.827600	0.247321
O7	O	0.437600	0.242100	0.125600	0.277397
O8	O	0.142900	0.211300	0.172400	0.247316
O9	O	0.250000	0.880800	-0.000000	0.624626
O10	O	0.750000	0.119200	-0.000000	0.624626
