data_HAXJEX_clean_PM
_symmetry_space_group_name_H-M	'P1'
_cell_length_a	11.019200
_cell_length_b	11.019200
_cell_length_c	17.038800
_cell_angle_alpha	91.653900
_cell_angle_beta	91.653900
_cell_angle_gamma	90.667702
_symmetry_Int_Tables_number 1

loop_
_symmetry_equiv_pos_as_xyz
'x,y,z'

loop_
_atom_site_label
_atom_site_type_symbol
_atom_site_fract_x
_atom_site_fract_y
_atom_site_fract_z
_atom_site_charge
Zn1	Zn	0.462980	0.656360	0.817430	1.230780
Zn2	Zn	0.815510	0.302490	0.174820	1.174688
Zn3	Zn	0.343640	0.537020	0.682570	1.230780
Zn4	Zn	0.697510	0.184490	0.325180	1.174688
Zn5	Zn	0.537020	0.343640	0.182570	1.230780
Zn6	Zn	0.184490	0.697510	0.825180	1.174688
Zn7	Zn	0.656360	0.462980	0.317430	1.230780
Zn8	Zn	0.302490	0.815510	0.674820	1.174688
H1	H	0.560300	0.651700	0.037100	0.157193
H2	H	0.694400	0.823000	0.231800	0.146522
H3	H	0.678200	0.995400	0.029400	0.130338
H4	H	0.007200	0.792000	0.127700	0.097794
H5	H	0.922700	0.767300	0.984500	0.110811
H6	H	0.672400	0.259000	0.882300	0.098842
H7	H	0.724900	0.453500	0.851900	0.098816
H8	H	0.827900	0.651500	0.891900	0.114541
H9	H	0.031300	0.710700	0.248200	0.093524
H10	H	0.706200	0.196600	0.007200	0.116602
H11	H	0.961500	0.516300	0.268900	0.118992
H12	H	0.348300	0.439700	0.462900	0.157193
H13	H	0.177000	0.305600	0.268200	0.146522
H14	H	0.004600	0.321800	0.470600	0.130338
H15	H	0.208000	0.992800	0.372300	0.097794
H16	H	0.232700	0.077300	0.515500	0.110811
H17	H	0.741000	0.327600	0.617700	0.098842
H18	H	0.546500	0.275100	0.648100	0.098816
H19	H	0.348500	0.172100	0.608100	0.114541
H20	H	0.289300	0.968700	0.251800	0.093524
H21	H	0.803400	0.293800	0.492800	0.116602
H22	H	0.483700	0.038500	0.231100	0.118992
H23	H	0.439700	0.348300	0.962900	0.157193
H24	H	0.305600	0.177000	0.768200	0.146522
H25	H	0.321800	0.004600	0.970600	0.130338
H26	H	0.992800	0.208000	0.872300	0.097794
H27	H	0.077300	0.232700	0.015500	0.110811
H28	H	0.327600	0.741000	0.117700	0.098842
H29	H	0.275100	0.546500	0.148100	0.098816
H30	H	0.172100	0.348500	0.108100	0.114541
H31	H	0.968700	0.289300	0.751800	0.093524
H32	H	0.293800	0.803400	0.992800	0.116602
H33	H	0.038500	0.483700	0.731100	0.118992
H34	H	0.651700	0.560300	0.537100	0.157193
H35	H	0.823000	0.694400	0.731800	0.146522
H36	H	0.995400	0.678200	0.529400	0.130338
H37	H	0.792000	0.007200	0.627700	0.097794
H38	H	0.767300	0.922700	0.484500	0.110811
H39	H	0.259000	0.672400	0.382300	0.098842
H40	H	0.453500	0.724900	0.351900	0.098816
H41	H	0.651500	0.827900	0.391900	0.114541
H42	H	0.710700	0.031300	0.748200	0.093524
H43	H	0.196600	0.706200	0.507200	0.116602
H44	H	0.516300	0.961500	0.768900	0.118992
C1	C	0.692800	0.927000	0.137200	0.045049
C2	C	0.594200	0.720800	0.061900	-0.060232
C3	C	0.737700	0.039100	0.178700	0.455311
C4	C	0.611700	0.823900	0.019600	0.041461
C5	C	0.674400	0.823200	0.178400	-0.077151
C6	C	0.575800	0.823800	0.933200	0.426528
C7	C	0.627000	0.719200	0.141700	0.043348
C8	C	0.663300	0.926300	0.057800	-0.093906
C9	C	0.610800	0.603600	0.184300	0.464213
C10	C	0.978000	0.714200	0.136400	-0.095853
C11	C	0.896700	0.689700	0.996700	-0.124807
C12	C	0.708600	0.311400	0.920100	-0.139919
C13	C	0.741300	0.425900	0.902200	-0.002162
C14	C	0.840200	0.621000	0.941700	-0.061004
C15	C	0.992800	0.666200	0.207400	-0.059806
C16	C	0.798000	0.501600	0.956800	0.022694
C17	C	0.918600	0.647000	0.074800	0.041083
C18	C	0.730300	0.274900	0.995000	0.118931
C19	C	0.876700	0.530500	0.092100	0.112938
C20	C	0.949500	0.548700	0.219500	0.103553
C21	C	0.817500	0.456700	0.032600	0.117780
C22	C	0.073000	0.307200	0.362800	0.045049
C23	C	0.279200	0.405800	0.438100	-0.060232
C24	C	0.960900	0.262300	0.321300	0.455311
C25	C	0.176100	0.388300	0.480400	0.041461
C26	C	0.176800	0.325600	0.321600	-0.077151
C27	C	0.176200	0.424200	0.566800	0.426528
C28	C	0.280800	0.373000	0.358300	0.043348
C29	C	0.073700	0.336700	0.442200	-0.093906
C30	C	0.396400	0.389200	0.315700	0.464213
C31	C	0.285800	0.022000	0.363600	-0.095853
C32	C	0.310300	0.103300	0.503300	-0.124807
C33	C	0.688600	0.291400	0.579900	-0.139919
C34	C	0.574100	0.258700	0.597800	-0.002162
C35	C	0.379000	0.159800	0.558300	-0.061004
C36	C	0.333800	0.007200	0.292600	-0.059806
C37	C	0.498400	0.202000	0.543200	0.022694
C38	C	0.353000	0.081400	0.425200	0.041083
C39	C	0.725100	0.269700	0.505000	0.118931
C40	C	0.469500	0.123300	0.407900	0.112938
C41	C	0.451300	0.050500	0.280500	0.103553
C42	C	0.543300	0.182500	0.467400	0.117780
C43	C	0.307200	0.073000	0.862800	0.045049
C44	C	0.405800	0.279200	0.938100	-0.060232
C45	C	0.262300	0.960900	0.821300	0.455311
C46	C	0.388300	0.176100	0.980400	0.041461
C47	C	0.325600	0.176800	0.821600	-0.077151
C48	C	0.424200	0.176200	0.066800	0.426528
C49	C	0.373000	0.280800	0.858300	0.043348
C50	C	0.336700	0.073700	0.942200	-0.093906
C51	C	0.389200	0.396400	0.815700	0.464213
C52	C	0.022000	0.285800	0.863600	-0.095853
C53	C	0.103300	0.310300	0.003300	-0.124807
C54	C	0.291400	0.688600	0.079900	-0.139919
C55	C	0.258700	0.574100	0.097800	-0.002162
C56	C	0.159800	0.379000	0.058300	-0.061004
C57	C	0.007200	0.333800	0.792600	-0.059806
C58	C	0.202000	0.498400	0.043200	0.022694
C59	C	0.081400	0.353000	0.925200	0.041083
C60	C	0.269700	0.725100	0.005000	0.118931
C61	C	0.123300	0.469500	0.907900	0.112938
C62	C	0.050500	0.451300	0.780500	0.103553
C63	C	0.182500	0.543300	0.967400	0.117780
C64	C	0.927000	0.692800	0.637200	0.045049
C65	C	0.720800	0.594200	0.561900	-0.060232
C66	C	0.039100	0.737700	0.678700	0.455311
C67	C	0.823900	0.611700	0.519600	0.041461
C68	C	0.823200	0.674400	0.678400	-0.077151
C69	C	0.823800	0.575800	0.433200	0.426528
C70	C	0.719200	0.627000	0.641700	0.043348
C71	C	0.926300	0.663300	0.557800	-0.093906
C72	C	0.603600	0.610800	0.684300	0.464213
C73	C	0.714200	0.978000	0.636400	-0.095853
C74	C	0.689700	0.896700	0.496700	-0.124807
C75	C	0.311400	0.708600	0.420100	-0.139919
C76	C	0.425900	0.741300	0.402200	-0.002162
C77	C	0.621000	0.840200	0.441700	-0.061004
C78	C	0.666200	0.992800	0.707400	-0.059806
C79	C	0.501600	0.798000	0.456800	0.022694
C80	C	0.647000	0.918600	0.574800	0.041083
C81	C	0.274900	0.730300	0.495000	0.118931
C82	C	0.530500	0.876700	0.592100	0.112938
C83	C	0.548700	0.949500	0.719500	0.103553
C84	C	0.456700	0.817500	0.532600	0.117780
N1	N	0.892800	0.481800	0.164400	-0.382660
N2	N	0.783300	0.343700	0.051600	-0.378405
N3	N	0.518200	0.107200	0.335600	-0.382660
N4	N	0.656300	0.216700	0.448400	-0.378405
N5	N	0.107200	0.518200	0.835600	-0.382660
N6	N	0.216700	0.656300	0.948400	-0.378405
N7	N	0.481800	0.892800	0.664400	-0.382660
N8	N	0.343700	0.783300	0.551600	-0.378405
O1	O	0.500400	0.738000	0.913310	-0.653559
O2	O	0.616600	0.899000	0.890700	-0.407442
O3	O	0.776400	0.125400	0.139140	-0.563051
O4	O	0.735900	0.042300	0.252960	-0.585591
O5	O	0.572100	0.511500	0.146450	-0.603484
O6	O	0.639200	0.609200	0.256640	-0.642944
O7	O	0.262000	0.499600	0.586690	-0.653559
O8	O	0.101000	0.383400	0.609300	-0.407442
O9	O	0.874600	0.223600	0.360860	-0.563051
O10	O	0.957700	0.264100	0.247040	-0.585591
O11	O	0.488500	0.427900	0.353550	-0.603484
O12	O	0.390800	0.360800	0.243360	-0.642944
O13	O	0.499600	0.262000	0.086690	-0.653559
O14	O	0.383400	0.101000	0.109300	-0.407442
O15	O	0.223600	0.874600	0.860860	-0.563051
O16	O	0.264100	0.957700	0.747040	-0.585591
O17	O	0.427900	0.488500	0.853550	-0.603484
O18	O	0.360800	0.390800	0.743360	-0.642944
O19	O	0.738000	0.500400	0.413310	-0.653559
O20	O	0.899000	0.616600	0.390700	-0.407442
O21	O	0.125400	0.776400	0.639140	-0.563051
O22	O	0.042300	0.735900	0.752960	-0.585591
O23	O	0.511500	0.572100	0.646450	-0.603484
O24	O	0.609200	0.639200	0.756640	-0.642944
O25	O	0.319700	0.680300	0.750000	-1.500718
O26	O	0.680300	0.319700	0.250000	-1.500718
