data_HEBJAB_clean_PM
_symmetry_space_group_name_H-M	'P1'
_cell_length_a	9.730000
_cell_length_b	10.190000
_cell_length_c	19.529000
_cell_angle_alpha	78.010997
_cell_angle_beta	80.399999
_cell_angle_gamma	87.704999
_symmetry_Int_Tables_number 1

loop_
_symmetry_equiv_pos_as_xyz
'x,y,z'

loop_
_atom_site_label
_atom_site_type_symbol
_atom_site_fract_x
_atom_site_fract_y
_atom_site_fract_z
_atom_site_charge
Co1	Co	0.313890	0.604390	0.277430	1.236156
Co2	Co	0.686110	0.395610	0.722570	1.236156
Co3	Co	0.000000	0.000000	0.000000	1.082945
H1	H	0.294300	0.071800	0.263600	0.143247
H2	H	0.263800	0.833000	0.457000	0.117575
H3	H	0.235500	0.233400	0.437400	0.131101
H4	H	0.155200	0.838100	0.571300	0.076501
H5	H	0.318500	0.848400	0.561100	0.062269
H6	H	0.428400	0.911600	0.653500	0.103133
H7	H	0.413900	0.921900	0.771600	0.113280
H8	H	0.995400	0.920200	0.793300	0.116176
H9	H	0.012200	0.901800	0.676200	0.111219
H10	H	0.565900	0.779700	0.199200	0.103260
H11	H	0.791000	0.764100	0.143700	0.114543
H12	H	0.779300	0.370600	0.226900	0.099664
H13	H	0.554800	0.396800	0.278600	0.094305
H14	H	0.994600	0.460800	0.159800	0.103962
H15	H	0.016900	0.616000	0.147600	0.087097
H16	H	0.912400	0.364800	0.071900	0.087557
H17	H	0.783000	0.461700	0.069700	0.086006
H18	H	0.147100	0.458400	0.051500	0.097119
H19	H	0.166100	0.614600	0.036300	0.083466
H20	H	0.050500	0.765700	0.236800	0.083122
H21	H	0.825500	0.807500	0.286100	0.101774
H22	H	0.867100	0.515700	0.453700	0.105897
H23	H	0.091800	0.482200	0.399500	0.103789
H24	H	0.614400	0.722100	0.374300	0.102920
H25	H	0.677400	0.777400	0.431500	0.115185
H26	H	0.496900	0.518300	0.403600	0.118650
H27	H	0.645300	0.451500	0.402200	0.068191
H28	H	0.522200	0.702600	0.532600	0.079785
H29	H	0.422200	0.671300	0.482700	0.104392
H30	H	0.705700	0.928200	0.736400	0.143247
H31	H	0.736200	0.167000	0.543000	0.117575
H32	H	0.764500	0.766600	0.562600	0.131101
H33	H	0.844800	0.161900	0.428700	0.076501
H34	H	0.681500	0.151600	0.438900	0.062269
H35	H	0.571600	0.088400	0.346500	0.103133
H36	H	0.586100	0.078100	0.228400	0.113280
H37	H	0.004600	0.079800	0.206700	0.116176
H38	H	0.987800	0.098200	0.323800	0.111219
H39	H	0.434100	0.220300	0.800800	0.103260
H40	H	0.209000	0.235900	0.856300	0.114543
H41	H	0.220700	0.629400	0.773100	0.099664
H42	H	0.445200	0.603200	0.721400	0.094305
H43	H	0.005400	0.539200	0.840200	0.103962
H44	H	0.983100	0.384000	0.852400	0.087097
H45	H	0.087600	0.635200	0.928100	0.087557
H46	H	0.217000	0.538300	0.930300	0.086006
H47	H	0.852900	0.541600	0.948500	0.097119
H48	H	0.833900	0.385400	0.963700	0.083466
H49	H	0.949500	0.234300	0.763200	0.083122
H50	H	0.174500	0.192500	0.713900	0.101774
H51	H	0.132900	0.484300	0.546300	0.105897
H52	H	0.908200	0.517800	0.600500	0.103789
H53	H	0.385600	0.277900	0.625700	0.102920
H54	H	0.322600	0.222600	0.568500	0.115185
H55	H	0.503100	0.481700	0.596400	0.118650
H56	H	0.354700	0.548500	0.597800	0.068191
H57	H	0.477800	0.297400	0.467400	0.079785
H58	H	0.577800	0.328700	0.517300	0.104392
C1	C	0.265200	0.311900	0.297500	0.416384
C2	C	0.263900	0.174200	0.344100	0.042999
C3	C	0.283200	0.062000	0.312700	-0.122380
C4	C	0.285300	0.935900	0.356100	0.061695
C5	C	0.311200	0.813000	0.324100	0.411956
C6	C	0.264400	0.918800	0.428900	-0.127493
C7	C	0.244200	0.030700	0.460600	0.177647
C8	C	0.246200	0.158100	0.417000	-0.089026
C9	C	0.231500	0.892100	0.576100	0.041650
C10	C	0.221800	0.905100	0.652300	0.049701
C11	C	0.341500	0.912000	0.681700	-0.148837
C12	C	0.333100	0.919400	0.752300	-0.059277
C13	C	0.202700	0.923200	0.794500	0.036188
C14	C	0.082500	0.917300	0.765600	-0.041369
C15	C	0.092900	0.907200	0.695100	-0.115003
C16	C	0.191600	0.932700	0.871600	0.423094
C17	C	0.608700	0.695800	0.204100	0.096100
C18	C	0.744900	0.687400	0.170500	-0.125983
C19	C	0.812500	0.563500	0.177100	0.066904
C20	C	0.737800	0.455100	0.219500	-0.154055
C21	C	0.602400	0.471700	0.250700	0.098862
C22	C	0.958100	0.547700	0.139700	-0.106356
C23	C	0.879700	0.451500	0.049200	0.000616
C24	C	0.110200	0.543500	0.029100	-0.076168
C25	C	0.013600	0.714600	0.280800	0.091232
C26	C	0.877600	0.740600	0.310500	-0.111735
C27	C	0.819900	0.667600	0.375900	0.062963
C28	C	0.901800	0.568100	0.409700	-0.127646
C29	C	0.037300	0.548300	0.376300	0.107722
C30	C	0.673600	0.699600	0.410500	-0.068955
C31	C	0.566800	0.482400	0.432600	-0.011288
C32	C	0.493000	0.633400	0.510800	-0.047933
C33	C	0.734800	0.688100	0.702500	0.416384
C34	C	0.736100	0.825800	0.655900	0.042999
C35	C	0.716800	0.938000	0.687300	-0.122380
C36	C	0.714700	0.064100	0.643900	0.061695
C37	C	0.688800	0.187000	0.675900	0.411956
C38	C	0.735600	0.081200	0.571100	-0.127493
C39	C	0.755800	0.969300	0.539400	0.177647
C40	C	0.753800	0.841900	0.583000	-0.089026
C41	C	0.768500	0.107900	0.423900	0.041650
C42	C	0.778200	0.094900	0.347700	0.049701
C43	C	0.658500	0.088000	0.318300	-0.148837
C44	C	0.666900	0.080600	0.247700	-0.059277
C45	C	0.797300	0.076800	0.205500	0.036188
C46	C	0.917500	0.082700	0.234400	-0.041369
C47	C	0.907100	0.092800	0.304900	-0.115003
C48	C	0.808400	0.067300	0.128400	0.423094
C49	C	0.391300	0.304200	0.795900	0.096100
C50	C	0.255100	0.312600	0.829500	-0.125983
C51	C	0.187500	0.436500	0.822900	0.066904
C52	C	0.262200	0.544900	0.780500	-0.154055
C53	C	0.397600	0.528300	0.749300	0.098862
C54	C	0.041900	0.452300	0.860300	-0.106356
C55	C	0.120300	0.548500	0.950800	0.000616
C56	C	0.889800	0.456500	0.970900	-0.076168
C57	C	0.986400	0.285400	0.719200	0.091232
C58	C	0.122400	0.259400	0.689500	-0.111735
C59	C	0.180100	0.332400	0.624100	0.062963
C60	C	0.098200	0.431900	0.590300	-0.127646
C61	C	0.962700	0.451700	0.623700	0.107722
C62	C	0.326400	0.300400	0.589500	-0.068955
C63	C	0.433200	0.517600	0.567400	-0.011288
C64	C	0.507000	0.366600	0.489200	-0.047933
N1	N	0.535300	0.590700	0.242890	-0.453982
N2	N	0.963800	0.558900	0.062650	-0.253754
N3	N	0.093300	0.619100	0.312830	-0.411579
N4	N	0.613000	0.588600	0.464580	-0.241087
N5	N	0.464700	0.409300	0.757110	-0.453982
N6	N	0.036200	0.441100	0.937350	-0.253754
N7	N	0.906700	0.380900	0.687170	-0.411579
N8	N	0.387000	0.411400	0.535420	-0.241087
O1	O	0.302200	0.405900	0.323740	-0.713203
O2	O	0.231300	0.325500	0.237290	-0.425932
O3	O	0.321800	0.822800	0.257530	-0.627205
O4	O	0.320600	0.700400	0.364680	-0.606590
O5	O	0.084700	0.994500	0.896110	-0.774637
O6	O	0.286000	0.882800	0.905340	-0.408483
O7	O	0.225100	0.024400	0.532510	-0.428575
O8	O	0.697800	0.594100	0.676260	-0.713203
O9	O	0.768700	0.674500	0.762710	-0.425932
O10	O	0.678200	0.177200	0.742470	-0.627205
O11	O	0.679400	0.299600	0.635320	-0.606590
O12	O	0.915300	0.005500	0.103890	-0.774637
O13	O	0.714000	0.117200	0.094660	-0.408483
O14	O	0.774900	0.975600	0.467490	-0.428575
