data_HIHJUF_PM
_symmetry_space_group_name_H-M	'P1'
_cell_length_a	11.873900
_cell_length_b	11.873900
_cell_length_c	25.494000
_cell_angle_alpha	90.000000
_cell_angle_beta	90.000000
_cell_angle_gamma	120.000000
_symmetry_Int_Tables_number 1

loop_
_symmetry_equiv_pos_as_xyz
'x,y,z'

loop_
_atom_site_label
_atom_site_type_symbol
_atom_site_fract_x
_atom_site_fract_y
_atom_site_fract_z
_atom_site_charge
Zn1	Zn	0.413150	0.426940	0.062710	1.055941
Zn2	Zn	0.573060	0.986210	0.062710	1.055943
Zn3	Zn	0.013790	0.586850	0.062710	1.055953
Zn4	Zn	0.573060	0.586850	0.437290	1.055943
Zn5	Zn	0.413150	0.986210	0.437290	1.055952
Zn6	Zn	0.013790	0.426940	0.437290	1.055942
Zn7	Zn	0.586850	0.573060	0.937290	1.055941
Zn8	Zn	0.426940	0.013790	0.937290	1.055942
Zn9	Zn	0.986210	0.413150	0.937290	1.055953
Zn10	Zn	0.426940	0.413150	0.562710	1.055943
Zn11	Zn	0.586850	0.013790	0.562710	1.055952
Zn12	Zn	0.986210	0.573060	0.562710	1.055941
H1	H	0.398300	0.390600	0.260700	0.134392
H2	H	0.609400	0.007700	0.260700	0.134306
H3	H	0.992300	0.601700	0.260700	0.134302
H4	H	0.609400	0.601700	0.239300	0.134391
H5	H	0.398300	0.007700	0.239300	0.134303
H6	H	0.992300	0.390600	0.239300	0.134306
H7	H	0.601700	0.609400	0.739300	0.134392
H8	H	0.390600	0.992300	0.739300	0.134306
H9	H	0.007700	0.398300	0.739300	0.134303
H10	H	0.390600	0.398300	0.760700	0.134391
H11	H	0.601700	0.992300	0.760700	0.134303
H12	H	0.007700	0.609400	0.760700	0.134306
H13	H	0.224700	0.393500	0.971900	0.106863
H14	H	0.606500	0.831200	0.971900	0.106851
H15	H	0.168800	0.775300	0.971900	0.106851
H16	H	0.606500	0.775300	0.528100	0.106863
H17	H	0.224700	0.831200	0.528100	0.106851
H18	H	0.168800	0.393500	0.528100	0.106851
H19	H	0.775300	0.606500	0.028100	0.106863
H20	H	0.393500	0.168800	0.028100	0.106851
H21	H	0.831200	0.224700	0.028100	0.106851
H22	H	0.393500	0.224700	0.471900	0.106863
H23	H	0.775300	0.168800	0.471900	0.106851
H24	H	0.831200	0.606500	0.471900	0.106851
H25	H	0.395400	0.122500	0.166700	0.128511
H26	H	0.877500	0.272900	0.166700	0.128481
H27	H	0.727100	0.604600	0.166700	0.128465
H28	H	0.877500	0.604600	0.333300	0.128511
H29	H	0.395400	0.272900	0.333300	0.128464
H30	H	0.727100	0.122500	0.333300	0.128481
H31	H	0.604600	0.877500	0.833300	0.128511
H32	H	0.122500	0.727100	0.833300	0.128481
H33	H	0.272900	0.395400	0.833300	0.128464
H34	H	0.122500	0.395400	0.666700	0.128511
H35	H	0.604600	0.727100	0.666700	0.128464
H36	H	0.272900	0.877500	0.666700	0.128481
H37	H	0.244000	0.466000	0.146000	0.275371
H38	H	0.534000	0.778000	0.146000	0.275354
H39	H	0.222000	0.756000	0.146000	0.275359
H40	H	0.534000	0.756000	0.354000	0.275371
H41	H	0.244000	0.778000	0.354000	0.275359
H42	H	0.222000	0.466000	0.354000	0.275354
H43	H	0.756000	0.534000	0.854000	0.275371
H44	H	0.466000	0.222000	0.854000	0.275354
H45	H	0.778000	0.244000	0.854000	0.275359
H46	H	0.466000	0.244000	0.646000	0.275371
H47	H	0.756000	0.222000	0.646000	0.275359
H48	H	0.778000	0.534000	0.646000	0.275353
H49	H	0.131000	0.497000	0.154000	0.242293
H50	H	0.503000	0.634000	0.154000	0.242303
H51	H	0.366000	0.869000	0.154000	0.242292
H52	H	0.503000	0.869000	0.346000	0.242292
H53	H	0.131000	0.634000	0.346000	0.242293
H54	H	0.366000	0.497000	0.346000	0.242303
H55	H	0.869000	0.503000	0.846000	0.242293
H56	H	0.497000	0.366000	0.846000	0.242303
H57	H	0.634000	0.131000	0.846000	0.242293
H58	H	0.497000	0.131000	0.654000	0.242292
H59	H	0.869000	0.366000	0.654000	0.242293
H60	H	0.634000	0.503000	0.654000	0.242303
C1	C	0.407100	0.348900	0.159900	0.429578
C2	C	0.651100	0.058200	0.159900	0.429630
C3	C	0.941800	0.592900	0.159900	0.429559
C4	C	0.651100	0.592900	0.340100	0.429579
C5	C	0.407100	0.058200	0.340100	0.429559
C6	C	0.941800	0.348900	0.340100	0.429630
C7	C	0.592900	0.651100	0.840100	0.429578
C8	C	0.348900	0.941800	0.840100	0.429630
C9	C	0.058200	0.407100	0.840100	0.429559
C10	C	0.348900	0.407100	0.659900	0.429579
C11	C	0.592900	0.941800	0.659900	0.429559
C12	C	0.058200	0.651100	0.659900	0.429630
C13	C	0.402600	0.269600	0.206000	0.048349
C14	C	0.730400	0.133000	0.206000	0.048209
C15	C	0.867000	0.597400	0.206000	0.048181
C16	C	0.730400	0.597400	0.294000	0.048349
C17	C	0.402600	0.133000	0.294000	0.048181
C18	C	0.867000	0.269600	0.294000	0.048209
C19	C	0.597400	0.730400	0.794000	0.048349
C20	C	0.269600	0.867000	0.794000	0.048209
C21	C	0.133000	0.402600	0.794000	0.048181
C22	C	0.269600	0.402600	0.706000	0.048348
C23	C	0.597400	0.867000	0.706000	0.048181
C24	C	0.133000	0.730400	0.706000	0.048209
C25	C	0.399700	0.313500	0.256300	-0.105002
C26	C	0.686500	0.086200	0.256300	-0.104707
C27	C	0.913800	0.600300	0.256300	-0.104681
C28	C	0.686500	0.600300	0.243700	-0.105001
C29	C	0.399700	0.086200	0.243700	-0.104684
C30	C	0.913800	0.313500	0.243700	-0.104707
C31	C	0.600300	0.686500	0.743700	-0.105002
C32	C	0.313500	0.913800	0.743700	-0.104707
C33	C	0.086200	0.399700	0.743700	-0.104682
C34	C	0.313500	0.399700	0.756300	-0.104999
C35	C	0.600300	0.913800	0.756300	-0.104684
C36	C	0.086200	0.686500	0.756300	-0.104707
C37	C	0.165500	0.447600	0.079900	0.366358
C38	C	0.552400	0.717900	0.079900	0.366368
C39	C	0.282100	0.834500	0.079900	0.366393
C40	C	0.552400	0.834500	0.420100	0.366358
C41	C	0.165500	0.717900	0.420100	0.366393
C42	C	0.282100	0.447600	0.420100	0.366368
C43	C	0.834500	0.552400	0.920100	0.366358
C44	C	0.447600	0.282100	0.920100	0.366368
C45	C	0.717900	0.165500	0.920100	0.366393
C46	C	0.447600	0.165500	0.579900	0.366358
C47	C	0.834500	0.282100	0.579900	0.366393
C48	C	0.717900	0.552400	0.579900	0.366368
C49	C	0.192900	0.413000	0.001800	0.195347
C50	C	0.587000	0.779900	0.001800	0.195343
C51	C	0.220100	0.807100	0.001800	0.195418
C52	C	0.587000	0.807100	0.498200	0.195347
C53	C	0.192900	0.779900	0.498200	0.195418
C54	C	0.220100	0.413000	0.498200	0.195342
C55	C	0.807100	0.587000	0.998200	0.195347
C56	C	0.413000	0.220100	0.998200	0.195342
C57	C	0.779900	0.192900	0.998200	0.195418
C58	C	0.413000	0.192900	0.501800	0.195347
C59	C	0.807100	0.220100	0.501800	0.195418
C60	C	0.779900	0.587000	0.501800	0.195342
C61	C	0.398700	0.155300	0.200200	-0.013886
C62	C	0.844700	0.243400	0.200200	-0.013723
C63	C	0.756600	0.601300	0.200200	-0.013537
C64	C	0.844700	0.601300	0.299800	-0.013888
C65	C	0.398700	0.243400	0.299800	-0.013535
C66	C	0.756600	0.155300	0.299800	-0.013723
C67	C	0.601300	0.844700	0.799800	-0.013886
C68	C	0.155300	0.756600	0.799800	-0.013723
C69	C	0.243400	0.398700	0.799800	-0.013537
C70	C	0.155300	0.398700	0.700200	-0.013887
C71	C	0.601300	0.756600	0.700200	-0.013535
C72	C	0.243400	0.844700	0.700200	-0.013723
N1	N	0.076400	0.460100	0.053100	-0.339186
N2	N	0.539900	0.616300	0.053100	-0.339179
N3	N	0.383700	0.923600	0.053100	-0.339200
N4	N	0.539900	0.923600	0.446900	-0.339185
N5	N	0.076400	0.616300	0.446900	-0.339200
N6	N	0.383700	0.460100	0.446900	-0.339179
N7	N	0.923600	0.539900	0.946900	-0.339186
N8	N	0.460100	0.383700	0.946900	-0.339180
N9	N	0.616300	0.076400	0.946900	-0.339199
N10	N	0.460100	0.076400	0.553100	-0.339185
N11	N	0.923600	0.383700	0.553100	-0.339199
N12	N	0.616300	0.539900	0.553100	-0.339180
N13	N	0.242300	0.419500	0.050400	-0.452266
N14	N	0.580500	0.822800	0.050400	-0.452298
N15	N	0.177200	0.757700	0.050400	-0.452317
N16	N	0.580500	0.757700	0.449600	-0.452268
N17	N	0.242300	0.822800	0.449600	-0.452317
N18	N	0.177200	0.419500	0.449600	-0.452298
N19	N	0.757700	0.580500	0.949600	-0.452267
N20	N	0.419500	0.177200	0.949600	-0.452298
N21	N	0.822800	0.242300	0.949600	-0.452317
N22	N	0.419500	0.242300	0.550400	-0.452268
N23	N	0.757700	0.177200	0.550400	-0.452317
N24	N	0.822800	0.580500	0.550400	-0.452297
N25	N	0.176600	0.460500	0.133100	-0.527751
N26	N	0.539500	0.716100	0.133100	-0.527731
N27	N	0.283900	0.823400	0.133100	-0.527704
N28	N	0.539500	0.823400	0.366900	-0.527751
N29	N	0.176600	0.716100	0.366900	-0.527705
N30	N	0.283900	0.460500	0.366900	-0.527730
N31	N	0.823400	0.539500	0.866900	-0.527751
N32	N	0.460500	0.283900	0.866900	-0.527731
N33	N	0.716100	0.176600	0.866900	-0.527704
N34	N	0.460500	0.176600	0.633100	-0.527751
N35	N	0.823400	0.283900	0.633100	-0.527705
N36	N	0.716100	0.539500	0.633100	-0.527730
N37	N	0.096700	0.436600	0.000700	-0.350553
N38	N	0.563400	0.660100	0.000700	-0.350524
N39	N	0.339900	0.903300	0.000700	-0.350546
N40	N	0.563400	0.903300	0.499300	-0.350552
N41	N	0.096700	0.660100	0.499300	-0.350546
N42	N	0.339900	0.436600	0.499300	-0.350523
N43	N	0.903300	0.563400	0.999300	-0.350552
N44	N	0.436600	0.339900	0.999300	-0.350522
N45	N	0.660100	0.096700	0.999300	-0.350547
N46	N	0.436600	0.096700	0.500700	-0.350552
N47	N	0.903300	0.339900	0.500700	-0.350548
N48	N	0.660100	0.563400	0.500700	-0.350523
O1	O	0.412700	0.307300	0.114400	-0.667570
O2	O	0.692700	0.105400	0.114400	-0.667609
O3	O	0.894600	0.587300	0.114400	-0.667618
O4	O	0.692700	0.587300	0.385600	-0.667569
O5	O	0.412700	0.105400	0.385600	-0.667620
O6	O	0.894600	0.307300	0.385600	-0.667608
O7	O	0.587300	0.692700	0.885600	-0.667570
O8	O	0.307300	0.894600	0.885600	-0.667609
O9	O	0.105400	0.412700	0.885600	-0.667618
O10	O	0.307300	0.412700	0.614400	-0.667569
O11	O	0.587300	0.894600	0.614400	-0.667620
O12	O	0.105400	0.692700	0.614400	-0.667608
O13	O	0.403100	0.450400	0.165800	-0.527013
O14	O	0.549600	0.952700	0.165800	-0.527012
O15	O	0.047300	0.596900	0.165800	-0.526947
O16	O	0.549600	0.596900	0.334200	-0.527016
O17	O	0.403100	0.952700	0.334200	-0.526945
O18	O	0.047300	0.450400	0.334200	-0.527012
O19	O	0.596900	0.549600	0.834200	-0.527013
O20	O	0.450400	0.047300	0.834200	-0.527013
O21	O	0.952700	0.403100	0.834200	-0.526947
O22	O	0.450400	0.403100	0.665800	-0.527015
O23	O	0.596900	0.047300	0.665800	-0.526945
O24	O	0.952700	0.549600	0.665800	-0.527012
