data_HOMZEP_clean_PM
_symmetry_space_group_name_H-M	'P1'
_cell_length_a	14.566500
_cell_length_b	14.566500
_cell_length_c	31.683500
_cell_angle_alpha	90.000000
_cell_angle_beta	90.000000
_cell_angle_gamma	120.000000
_symmetry_Int_Tables_number 1

loop_
_symmetry_equiv_pos_as_xyz
'x,y,z'

loop_
_atom_site_label
_atom_site_type_symbol
_atom_site_fract_x
_atom_site_fract_y
_atom_site_fract_z
_atom_site_charge
Ga1	Ga	0.925680	0.074320	0.250000	-2.280828
Ga2	Ga	0.148640	0.074320	0.250000	-2.280782
Ga3	Ga	0.925680	0.851360	0.250000	-2.280781
Ga4	Ga	0.074320	0.925680	0.750000	-2.280823
Ga5	Ga	0.851360	0.925680	0.750000	-2.280781
Ga6	Ga	0.074320	0.148640	0.750000	-2.280778
Ga7	Ga	0.583250	0.166500	0.415090	-2.367470
Ga8	Ga	0.583250	0.416740	0.415090	-2.367507
Ga9	Ga	0.833490	0.416740	0.415090	-2.367468
Ga10	Ga	0.416750	0.833500	0.915090	-2.367473
Ga11	Ga	0.416750	0.583260	0.915090	-2.367495
Ga12	Ga	0.166510	0.583260	0.915090	-2.367475
Ga13	Ga	0.416750	0.833500	0.584910	-2.367472
Ga14	Ga	0.166510	0.583260	0.584910	-2.367475
Ga15	Ga	0.416750	0.583260	0.584910	-2.367495
Ga16	Ga	0.583250	0.166500	0.084910	-2.367471
Ga17	Ga	0.833490	0.416740	0.084910	-2.367468
Ga18	Ga	0.583250	0.416740	0.084910	-2.367508
Ga19	Ga	0.500000	0.000000	0.500000	-2.033309
Ga20	Ga	0.500000	0.500000	0.500000	-2.033281
Ga21	Ga	0.000000	0.500000	0.500000	-2.033289
Ga22	Ga	0.500000	0.000000	-0.000000	-2.033310
Ga23	Ga	0.500000	0.500000	0.000000	-2.033282
Ga24	Ga	0.000000	0.500000	0.000000	-2.033289
H1	H	0.723400	-0.000000	0.355200	0.186498
H2	H	0.276600	0.276600	0.355200	0.186540
H3	H	0.000000	0.723400	0.355200	0.186509
H4	H	0.276600	0.000000	0.855200	0.186500
H5	H	0.723400	0.723400	0.855200	0.186539
H6	H	0.000000	0.276600	0.855200	0.186509
H7	H	0.723400	-0.000000	0.644800	0.186511
H8	H	0.000000	0.723400	0.644800	0.186495
H9	H	0.276600	0.276600	0.644800	0.186542
H10	H	0.276600	0.000000	0.144800	0.186511
H11	H	0.000000	0.276600	0.144800	0.186496
H12	H	0.723400	0.723400	0.144800	0.186540
H13	H	0.276600	0.000000	0.644800	0.186500
H14	H	0.723400	0.723400	0.644800	0.186539
H15	H	0.000000	0.276600	0.644800	0.186509
H16	H	0.723400	-0.000000	0.144800	0.186498
H17	H	0.276600	0.276600	0.144800	0.186541
H18	H	0.000000	0.723400	0.144800	0.186509
H19	H	0.276600	0.000000	0.355200	0.186511
H20	H	0.000000	0.276600	0.355200	0.186496
H21	H	0.723400	0.723400	0.355200	0.186540
H22	H	0.723400	-0.000000	0.855200	0.186511
H23	H	0.000000	0.723400	0.855200	0.186495
H24	H	0.276600	0.276600	0.855200	0.186542
H25	H	0.574900	0.787450	0.447700	0.172186
H26	H	0.212550	0.425100	0.447700	0.172206
H27	H	0.212550	0.787450	0.447700	0.172202
H28	H	0.425100	0.212550	0.947700	0.172187
H29	H	0.787450	0.574900	0.947700	0.172190
H30	H	0.787450	0.212550	0.947700	0.172202
H31	H	0.787450	0.212550	0.552300	0.172202
H32	H	0.787450	0.574900	0.552300	0.172190
H33	H	0.425100	0.212550	0.552300	0.172187
H34	H	0.212550	0.787450	0.052300	0.172202
H35	H	0.212550	0.425100	0.052300	0.172206
H36	H	0.574900	0.787450	0.052300	0.172186
C1	C	0.610500	0.975200	0.425000	0.288409
C2	C	0.704400	0.935100	0.367800	-0.067289
C3	C	0.646000	0.905700	0.405100	0.013724
C4	C	0.364700	0.389500	0.425000	0.288406
C5	C	0.230700	0.295600	0.367800	-0.067379
C6	C	0.259700	0.354000	0.405100	0.013742
C7	C	0.024800	0.635300	0.425000	0.288399
C8	C	0.064900	0.769300	0.367800	-0.067327
C9	C	0.094300	0.740300	0.405100	0.013749
C10	C	0.389500	0.024800	0.925000	0.288409
C11	C	0.295600	0.064900	0.867800	-0.067301
C12	C	0.354000	0.094300	0.905100	0.013724
C13	C	0.635300	0.610500	0.925000	0.288408
C14	C	0.769300	0.704400	0.867800	-0.067374
C15	C	0.740300	0.646000	0.905100	0.013736
C16	C	0.975200	0.364700	0.925000	0.288398
C17	C	0.935100	0.230700	0.867800	-0.067327
C18	C	0.905700	0.259700	0.905100	0.013749
C19	C	0.635300	0.024800	0.575000	0.288411
C20	C	0.769300	0.064900	0.632200	-0.067324
C21	C	0.740300	0.094300	0.594900	0.013747
C22	C	0.975200	0.610500	0.575000	0.288400
C23	C	0.935100	0.704400	0.632200	-0.067274
C24	C	0.905700	0.646000	0.594900	0.013736
C25	C	0.389500	0.364700	0.575000	0.288402
C26	C	0.295600	0.230700	0.632200	-0.067404
C27	C	0.354000	0.259700	0.594900	0.013726
C28	C	0.364700	0.975200	0.075000	0.288413
C29	C	0.230700	0.935100	0.132200	-0.067324
C30	C	0.259700	0.905700	0.094900	0.013747
C31	C	0.024800	0.389500	0.075000	0.288400
C32	C	0.064900	0.295600	0.132200	-0.067279
C33	C	0.094300	0.354000	0.094900	0.013741
C34	C	0.610500	0.635300	0.075000	0.288402
C35	C	0.704400	0.769300	0.132200	-0.067392
C36	C	0.646000	0.740300	0.094900	0.013726
C37	C	0.389500	0.024800	0.575000	0.288409
C38	C	0.295600	0.064900	0.632200	-0.067301
C39	C	0.354000	0.094300	0.594900	0.013724
C40	C	0.635300	0.610500	0.575000	0.288408
C41	C	0.769300	0.704400	0.632200	-0.067374
C42	C	0.740300	0.646000	0.594900	0.013736
C43	C	0.975200	0.364700	0.575000	0.288398
C44	C	0.935100	0.230700	0.632200	-0.067327
C45	C	0.905700	0.259700	0.594900	0.013749
C46	C	0.610500	0.975200	0.075000	0.288409
C47	C	0.704400	0.935100	0.132200	-0.067289
C48	C	0.646000	0.905700	0.094900	0.013724
C49	C	0.364700	0.389500	0.075000	0.288406
C50	C	0.230700	0.295600	0.132200	-0.067379
C51	C	0.259700	0.354000	0.094900	0.013742
C52	C	0.024800	0.635300	0.075000	0.288399
C53	C	0.064900	0.769300	0.132200	-0.067327
C54	C	0.094300	0.740300	0.094900	0.013749
C55	C	0.364700	0.975200	0.425000	0.288413
C56	C	0.230700	0.935100	0.367800	-0.067324
C57	C	0.259700	0.905700	0.405100	0.013747
C58	C	0.024800	0.389500	0.425000	0.288400
C59	C	0.064900	0.295600	0.367800	-0.067279
C60	C	0.094300	0.354000	0.405100	0.013741
C61	C	0.610500	0.635300	0.425000	0.288402
C62	C	0.704400	0.769300	0.367800	-0.067392
C63	C	0.646000	0.740300	0.405100	0.013726
C64	C	0.635300	0.024800	0.925000	0.288411
C65	C	0.769300	0.064900	0.867800	-0.067324
C66	C	0.740300	0.094300	0.905100	0.013747
C67	C	0.975200	0.610500	0.925000	0.288400
C68	C	0.935100	0.704400	0.867800	-0.067274
C69	C	0.905700	0.646000	0.905100	0.013736
C70	C	0.389500	0.364700	0.925000	0.288402
C71	C	0.295600	0.230700	0.867800	-0.067404
C72	C	0.354000	0.259700	0.905100	0.013726
C73	C	0.799500	0.899750	0.309500	0.326733
C74	C	0.734400	0.867200	0.349300	0.004134
C75	C	0.615600	0.807800	0.423300	-0.107510
C76	C	0.100250	0.200500	0.309500	0.326726
C77	C	0.132800	0.265600	0.349300	0.004126
C78	C	0.192200	0.384400	0.423300	-0.107578
C79	C	0.100250	0.899750	0.309500	0.326728
C80	C	0.132800	0.867200	0.349300	0.004131
C81	C	0.192200	0.807800	0.423300	-0.107593
C82	C	0.200500	0.100250	0.809500	0.326741
C83	C	0.265600	0.132800	0.849300	0.004146
C84	C	0.384400	0.192200	0.923300	-0.107503
C85	C	0.899750	0.799500	0.809500	0.326746
C86	C	0.867200	0.734400	0.849300	0.004110
C87	C	0.807800	0.615600	0.923300	-0.107556
C88	C	0.899750	0.100250	0.809500	0.326727
C89	C	0.867200	0.132800	0.849300	0.004131
C90	C	0.807800	0.192200	0.923300	-0.107593
C91	C	0.899750	0.100250	0.690500	0.326727
C92	C	0.867200	0.132800	0.650700	0.004131
C93	C	0.807800	0.192200	0.576700	-0.107593
C94	C	0.899750	0.799500	0.690500	0.326746
C95	C	0.867200	0.734400	0.650700	0.004110
C96	C	0.807800	0.615600	0.576700	-0.107556
C97	C	0.200500	0.100250	0.690500	0.326741
C98	C	0.265600	0.132800	0.650700	0.004146
C99	C	0.384400	0.192200	0.576700	-0.107503
C100	C	0.100250	0.899750	0.190500	0.326728
C101	C	0.132800	0.867200	0.150700	0.004131
C102	C	0.192200	0.807800	0.076700	-0.107593
C103	C	0.100250	0.200500	0.190500	0.326726
C104	C	0.132800	0.265600	0.150700	0.004126
C105	C	0.192200	0.384400	0.076700	-0.107578
C106	C	0.799500	0.899750	0.190500	0.326733
C107	C	0.734400	0.867200	0.150700	0.004134
C108	C	0.615600	0.807800	0.076700	-0.107510
O1	O	0.824700	0.989500	0.295120	0.289420
O2	O	0.623300	0.055000	0.404550	0.303512
O3	O	0.570800	0.948900	0.461100	0.214494
O4	O	0.164800	0.175300	0.295120	0.289405
O5	O	0.431700	0.376700	0.404550	0.303503
O6	O	0.378100	0.429200	0.461100	0.214487
O7	O	0.010500	0.835200	0.295120	0.289414
O8	O	0.945000	0.568300	0.404550	0.303464
O9	O	0.051100	0.621900	0.461100	0.214491
O10	O	0.175300	0.010500	0.795120	0.289416
O11	O	0.376700	0.945000	0.904550	0.303513
O12	O	0.429200	0.051100	0.961100	0.214494
O13	O	0.835200	0.824700	0.795120	0.289400
O14	O	0.568300	0.623300	0.904550	0.303501
O15	O	0.621900	0.570800	0.961100	0.214487
O16	O	0.989500	0.164800	0.795120	0.289413
O17	O	0.055000	0.431700	0.904550	0.303465
O18	O	0.948900	0.378100	0.961100	0.214492
O19	O	0.835200	0.010500	0.704880	0.289414
O20	O	0.568300	0.945000	0.595450	0.303511
O21	O	0.621900	0.051100	0.538900	0.214500
O22	O	0.989500	0.824700	0.704880	0.289416
O23	O	0.055000	0.623300	0.595450	0.303500
O24	O	0.948900	0.570800	0.538900	0.214489
O25	O	0.175300	0.164800	0.704880	0.289398
O26	O	0.376700	0.431700	0.595450	0.303468
O27	O	0.429200	0.378100	0.538900	0.214485
O28	O	0.164800	0.989500	0.204880	0.289415
O29	O	0.431700	0.055000	0.095450	0.303511
O30	O	0.378100	0.948900	0.038900	0.214499
O31	O	0.010500	0.175300	0.204880	0.289421
O32	O	0.945000	0.376700	0.095450	0.303499
O33	O	0.051100	0.429200	0.038900	0.214488
O34	O	0.824700	0.835200	0.204880	0.289402
O35	O	0.623300	0.568300	0.095450	0.303470
O36	O	0.570800	0.621900	0.038900	0.214485
O37	O	0.175300	0.010500	0.704880	0.289416
O38	O	0.376700	0.945000	0.595450	0.303513
O39	O	0.429200	0.051100	0.538900	0.214494
O40	O	0.835200	0.824700	0.704880	0.289400
O41	O	0.568300	0.623300	0.595450	0.303501
O42	O	0.621900	0.570800	0.538900	0.214487
O43	O	0.989500	0.164800	0.704880	0.289413
O44	O	0.055000	0.431700	0.595450	0.303465
O45	O	0.948900	0.378100	0.538900	0.214492
O46	O	0.824700	0.989500	0.204880	0.289420
O47	O	0.623300	0.055000	0.095450	0.303512
O48	O	0.570800	0.948900	0.038900	0.214494
O49	O	0.164800	0.175300	0.204880	0.289405
O50	O	0.431700	0.376700	0.095450	0.303504
O51	O	0.378100	0.429200	0.038900	0.214487
O52	O	0.010500	0.835200	0.204880	0.289414
O53	O	0.945000	0.568300	0.095450	0.303464
O54	O	0.051100	0.621900	0.038900	0.214492
O55	O	0.164800	0.989500	0.295120	0.289415
O56	O	0.431700	0.055000	0.404550	0.303511
O57	O	0.378100	0.948900	0.461100	0.214499
O58	O	0.010500	0.175300	0.295120	0.289421
O59	O	0.945000	0.376700	0.404550	0.303499
O60	O	0.051100	0.429200	0.461100	0.214488
O61	O	0.824700	0.835200	0.295120	0.289402
O62	O	0.623300	0.568300	0.404550	0.303469
O63	O	0.570800	0.621900	0.461100	0.214485
O64	O	0.835200	0.010500	0.795120	0.289414
O65	O	0.568300	0.945000	0.904550	0.303511
O66	O	0.621900	0.051100	0.961100	0.214500
O67	O	0.989500	0.824700	0.795120	0.289416
O68	O	0.055000	0.623300	0.904550	0.303500
O69	O	0.948900	0.570800	0.961100	0.214489
O70	O	0.175300	0.164800	0.795120	0.289398
O71	O	0.376700	0.431700	0.904550	0.303468
O72	O	0.429200	0.378100	0.961100	0.214485
O73	O	0.568600	0.137200	0.474500	0.662869
O74	O	0.568600	0.431400	0.474500	0.662862
O75	O	0.862800	0.431400	0.474500	0.662854
O76	O	0.431400	0.862800	0.974500	0.662870
O77	O	0.431400	0.568600	0.974500	0.662860
O78	O	0.137200	0.568600	0.974500	0.662860
O79	O	0.431400	0.862800	0.525500	0.662871
O80	O	0.137200	0.568600	0.525500	0.662860
O81	O	0.431400	0.568600	0.525500	0.662859
O82	O	0.568600	0.137200	0.025500	0.662870
O83	O	0.862800	0.431400	0.025500	0.662854
O84	O	0.568600	0.431400	0.025500	0.662861
O85	O	0.000000	0.000000	0.250000	1.017932
O86	O	0.000000	0.000000	0.750000	1.017930
O87	O	0.536000	0.268000	0.418600	0.839079
O88	O	0.732000	0.464000	0.418600	0.839042
O89	O	0.732000	0.268000	0.418600	0.839072
O90	O	0.464000	0.732000	0.918600	0.839077
O91	O	0.268000	0.536000	0.918600	0.839042
O92	O	0.268000	0.732000	0.918600	0.839073
O93	O	0.268000	0.732000	0.581400	0.839073
O94	O	0.268000	0.536000	0.581400	0.839041
O95	O	0.464000	0.732000	0.581400	0.839077
O96	O	0.732000	0.268000	0.081400	0.839073
O97	O	0.732000	0.464000	0.081400	0.839042
O98	O	0.536000	0.268000	0.081400	0.839079
