data_ICAGAU_clean_PM
_symmetry_space_group_name_H-M	'P1'
_cell_length_a	9.901500
_cell_length_b	9.901500
_cell_length_c	13.419900
_cell_angle_alpha	90.000000
_cell_angle_beta	90.000000
_cell_angle_gamma	90.000000
_symmetry_Int_Tables_number 1

loop_
_symmetry_equiv_pos_as_xyz
'x,y,z'

loop_
_atom_site_label
_atom_site_type_symbol
_atom_site_fract_x
_atom_site_fract_y
_atom_site_fract_z
_atom_site_charge
Zn1	Zn	0.853150	0.100250	0.696780	1.163131
Zn2	Zn	0.146850	0.899750	0.696780	1.163131
Zn3	Zn	0.100250	0.146850	0.303220	1.163131
Zn4	Zn	0.899750	0.853150	0.303220	1.163131
Zn5	Zn	0.646850	0.600250	0.803220	1.163131
Zn6	Zn	0.353150	0.399750	0.803220	1.163131
Zn7	Zn	0.399750	0.646850	0.196780	1.163131
Zn8	Zn	0.600250	0.353150	0.196780	1.163131
Zn9	Zn	0.000000	0.000000	0.000000	1.165804
Zn10	Zn	0.500000	0.500000	0.500000	1.165804
P1	P	0.883900	0.827100	0.816000	1.186868
P2	P	0.116100	0.172900	0.816000	1.186868
P3	P	0.827100	0.116100	0.184000	1.186868
P4	P	0.172900	0.883900	0.184000	1.186868
P5	P	0.616100	0.327100	0.684000	1.186868
P6	P	0.383900	0.672900	0.684000	1.186868
P7	P	0.672900	0.616100	0.316000	1.186868
P8	P	0.327100	0.383900	0.316000	1.186868
P9	P	0.000000	0.000000	0.500000	1.201919
P10	P	0.500000	0.500000	-0.000000	1.201919
O1	O	0.876800	0.889000	0.921800	-0.576056
O2	O	0.813300	0.915600	0.740700	-0.642939
O3	O	0.032300	0.806800	0.789900	-0.637611
O4	O	0.818500	0.690000	0.816000	-0.495279
O5	O	0.927700	0.104400	0.561700	-0.590045
O6	O	0.123200	0.111000	0.921800	-0.576056
O7	O	0.186700	0.084400	0.740700	-0.642939
O8	O	0.967700	0.193200	0.789900	-0.637611
O9	O	0.181500	0.310000	0.816000	-0.495279
O10	O	0.072300	0.895600	0.561700	-0.590045
O11	O	0.889000	0.123200	0.078200	-0.576056
O12	O	0.915600	0.186700	0.259300	-0.642939
O13	O	0.806800	0.967700	0.210100	-0.637611
O14	O	0.690000	0.181500	0.184000	-0.495279
O15	O	0.104400	0.072300	0.438300	-0.590045
O16	O	0.111000	0.876800	0.078200	-0.576056
O17	O	0.084400	0.813300	0.259300	-0.642939
O18	O	0.193200	0.032300	0.210100	-0.637611
O19	O	0.310000	0.818500	0.184000	-0.495279
O20	O	0.895600	0.927700	0.438300	-0.590045
O21	O	0.623200	0.389000	0.578200	-0.576056
O22	O	0.686700	0.415600	0.759300	-0.642939
O23	O	0.467700	0.306800	0.710100	-0.637611
O24	O	0.681500	0.190000	0.684000	-0.495279
O25	O	0.572300	0.604400	0.938300	-0.590045
O26	O	0.376800	0.611000	0.578200	-0.576056
O27	O	0.313300	0.584400	0.759300	-0.642939
O28	O	0.532300	0.693200	0.710100	-0.637611
O29	O	0.318500	0.810000	0.684000	-0.495279
O30	O	0.427700	0.395600	0.938300	-0.590045
O31	O	0.611000	0.623200	0.421800	-0.576056
O32	O	0.584400	0.686700	0.240700	-0.642939
O33	O	0.693200	0.467700	0.289900	-0.637611
O34	O	0.810000	0.681500	0.316000	-0.495279
O35	O	0.395600	0.572300	0.061700	-0.590045
O36	O	0.389000	0.376800	0.421800	-0.576056
O37	O	0.415600	0.313300	0.240700	-0.642939
O38	O	0.306800	0.532300	0.289900	-0.637611
O39	O	0.190000	0.318500	0.316000	-0.495279
O40	O	0.604400	0.427700	0.061700	-0.590045
