data_ISIKOL_clean_PM
_symmetry_space_group_name_H-M	'P1'
_cell_length_a	7.276500
_cell_length_b	16.979100
_cell_length_c	17.066800
_cell_angle_alpha	90.000000
_cell_angle_beta	96.538000
_cell_angle_gamma	90.000000
_symmetry_Int_Tables_number 1

loop_
_symmetry_equiv_pos_as_xyz
'x,y,z'

loop_
_atom_site_label
_atom_site_type_symbol
_atom_site_fract_x
_atom_site_fract_y
_atom_site_fract_z
_atom_site_charge
Co1	Co	0.434700	0.798700	0.806620	1.292757
Co2	Co	0.065300	0.298700	0.693380	1.292757
Co3	Co	0.565300	0.201300	0.193380	1.292757
Co4	Co	0.934700	0.701300	0.306620	1.292757
H1	H	0.822300	0.480500	0.461700	0.094939
H2	H	0.927700	0.558900	0.446100	0.110816
H3	H	0.715000	0.632300	0.652600	0.128585
H4	H	0.235500	0.702100	0.536300	0.142439
H5	H	0.591300	0.573700	0.426900	0.121381
H6	H	0.604900	0.032700	0.631700	0.123445
H7	H	0.641700	0.042500	0.543500	0.112522
H8	H	0.845900	0.000100	0.732000	0.101544
H9	H	0.939400	0.082100	0.722400	0.099568
H10	H	0.372900	0.151200	0.488100	0.068927
H11	H	0.530600	0.986900	0.798600	0.099567
H12	H	0.103100	0.220300	0.524600	0.089030
H13	H	0.970900	0.054400	0.591100	0.113748
H14	H	0.889200	0.969700	0.600100	0.113708
H15	H	0.743900	0.168100	0.565300	0.098524
H16	H	0.744600	0.158700	0.656600	0.110327
H17	H	0.298900	0.086400	0.754900	0.089368
H18	H	0.475400	0.222800	0.707300	0.105370
H19	H	0.070100	0.877100	0.735000	0.105949
H20	H	0.677700	0.980500	0.038300	0.094939
H21	H	0.572300	0.058900	0.053900	0.110816
H22	H	0.785000	0.132300	0.847400	0.128585
H23	H	0.264500	0.202100	0.963700	0.142439
H24	H	0.908700	0.073700	0.073100	0.121381
H25	H	0.895100	0.532700	0.868300	0.123445
H26	H	0.858300	0.542500	0.956500	0.112522
H27	H	0.654100	0.500100	0.768000	0.101544
H28	H	0.560600	0.582100	0.777600	0.099568
H29	H	0.127100	0.651200	0.011900	0.068927
H30	H	0.969400	0.486900	0.701400	0.099567
H31	H	0.396900	0.720300	0.975400	0.089030
H32	H	0.529100	0.554400	0.908900	0.113748
H33	H	0.610800	0.469700	0.899900	0.113708
H34	H	0.756100	0.668100	0.934700	0.098524
H35	H	0.755400	0.658700	0.843400	0.110327
H36	H	0.201100	0.586400	0.745100	0.089368
H37	H	0.024600	0.722800	0.792700	0.105370
H38	H	0.429900	0.377100	0.765000	0.105949
H39	H	0.177700	0.519500	0.538300	0.094939
H40	H	0.072300	0.441100	0.553900	0.110816
H41	H	0.285000	0.367700	0.347400	0.128585
H42	H	0.764500	0.297900	0.463700	0.142439
H43	H	0.408700	0.426300	0.573100	0.121381
H44	H	0.395100	0.967300	0.368300	0.123445
H45	H	0.358300	0.957500	0.456500	0.112522
H46	H	0.154100	0.999900	0.268000	0.101544
H47	H	0.060600	0.917900	0.277600	0.099568
H48	H	0.627100	0.848800	0.511900	0.068927
H49	H	0.469400	0.013100	0.201400	0.099567
H50	H	0.896900	0.779700	0.475400	0.089030
H51	H	0.029100	0.945600	0.408900	0.113748
H52	H	0.110800	0.030300	0.399900	0.113708
H53	H	0.256100	0.831900	0.434700	0.098524
H54	H	0.255400	0.841300	0.343400	0.110327
H55	H	0.701100	0.913600	0.245100	0.089368
H56	H	0.524600	0.777200	0.292700	0.105370
H57	H	0.929900	0.122900	0.265000	0.105949
H58	H	0.322300	0.019500	0.961700	0.094939
H59	H	0.427700	0.941100	0.946100	0.110816
H60	H	0.215000	0.867700	0.152600	0.128585
H61	H	0.735500	0.797900	0.036300	0.142439
H62	H	0.091300	0.926300	0.926900	0.121381
H63	H	0.104900	0.467300	0.131700	0.123445
H64	H	0.141700	0.457500	0.043500	0.112522
H65	H	0.345900	0.499900	0.232000	0.101544
H66	H	0.439400	0.417900	0.222400	0.099568
H67	H	0.872900	0.348800	0.988100	0.068927
H68	H	0.030600	0.513100	0.298600	0.099567
H69	H	0.603100	0.279700	0.024600	0.089030
H70	H	0.470900	0.445600	0.091100	0.113748
H71	H	0.389200	0.530300	0.100100	0.113708
H72	H	0.243900	0.331900	0.065300	0.098524
H73	H	0.244600	0.341300	0.156600	0.110327
H74	H	0.798900	0.413600	0.254900	0.089368
H75	H	0.975400	0.277200	0.207300	0.105370
H76	H	0.570100	0.622900	0.235000	0.105949
C1	C	0.678000	0.594100	0.540800	0.187014
C2	C	0.909500	0.519300	0.485400	0.082389
C3	C	0.633200	0.633300	0.606500	-0.057681
C4	C	0.348100	0.676080	0.537100	-0.079741
C5	C	0.394200	0.639200	0.469400	0.057675
C6	C	0.264800	0.644000	0.394200	0.436904
C7	C	0.559800	0.598400	0.472100	-0.132580
C8	C	0.468400	0.674300	0.605300	0.034109
C9	C	0.423900	0.718000	0.677700	0.405933
C10	C	0.686400	0.056700	0.597400	-0.274912
C11	C	0.938500	0.027500	0.705700	0.019399
C12	C	0.361400	0.174300	0.536700	0.043473
C13	C	0.408300	0.976800	0.779100	0.079854
C14	C	0.212500	0.212200	0.557400	0.076698
C15	C	0.884400	0.023800	0.617900	-0.237987
C16	C	0.679400	0.144100	0.606000	0.028051
C17	C	0.281300	0.032200	0.755000	0.047096
C18	C	0.415300	0.213900	0.657100	0.178045
C19	C	0.158400	0.916700	0.743900	0.184755
C20	C	0.822000	0.094100	0.959200	0.187014
C21	C	0.590500	0.019300	0.014600	0.082389
C22	C	0.866800	0.133300	0.893500	-0.057681
C23	C	0.151900	0.176080	0.962900	-0.079741
C24	C	0.105800	0.139200	0.030600	0.057675
C25	C	0.235200	0.144000	0.105800	0.436904
C26	C	0.940200	0.098400	0.027900	-0.132580
C27	C	0.031600	0.174300	0.894700	0.034109
C28	C	0.076100	0.218000	0.822300	0.405933
C29	C	0.813600	0.556700	0.902600	-0.274912
C30	C	0.561500	0.527500	0.794300	0.019399
C31	C	0.138600	0.674300	0.963300	0.043473
C32	C	0.091700	0.476800	0.720900	0.079854
C33	C	0.287500	0.712200	0.942600	0.076698
C34	C	0.615600	0.523800	0.882100	-0.237987
C35	C	0.820600	0.644100	0.894000	0.028051
C36	C	0.218700	0.532200	0.745000	0.047096
C37	C	0.084700	0.713900	0.842900	0.178045
C38	C	0.341600	0.416700	0.756100	0.184755
C39	C	0.322000	0.405900	0.459200	0.187014
C40	C	0.090500	0.480700	0.514600	0.082389
C41	C	0.366800	0.366700	0.393500	-0.057681
C42	C	0.651900	0.323920	0.462900	-0.079741
C43	C	0.605800	0.360800	0.530600	0.057675
C44	C	0.735200	0.356000	0.605800	0.436904
C45	C	0.440200	0.401600	0.527900	-0.132580
C46	C	0.531600	0.325700	0.394700	0.034109
C47	C	0.576100	0.282000	0.322300	0.405933
C48	C	0.313600	0.943300	0.402600	-0.274912
C49	C	0.061500	0.972500	0.294300	0.019399
C50	C	0.638600	0.825700	0.463300	0.043473
C51	C	0.591700	0.023200	0.220900	0.079854
C52	C	0.787500	0.787800	0.442600	0.076698
C53	C	0.115600	0.976200	0.382100	-0.237987
C54	C	0.320600	0.855900	0.394000	0.028051
C55	C	0.718700	0.967800	0.245000	0.047096
C56	C	0.584700	0.786100	0.342900	0.178045
C57	C	0.841600	0.083300	0.256100	0.184755
C58	C	0.178000	0.905900	0.040800	0.187014
C59	C	0.409500	0.980700	0.985400	0.082389
C60	C	0.133200	0.866700	0.106500	-0.057681
C61	C	0.848100	0.823920	0.037100	-0.079741
C62	C	0.894200	0.860800	0.969400	0.057675
C63	C	0.764800	0.856000	0.894200	0.436904
C64	C	0.059800	0.901600	0.972100	-0.132580
C65	C	0.968400	0.825700	0.105300	0.034109
C66	C	0.923900	0.782000	0.177700	0.405933
C67	C	0.186400	0.443300	0.097400	-0.274912
C68	C	0.438500	0.472500	0.205700	0.019399
C69	C	0.861400	0.325700	0.036700	0.043473
C70	C	0.908300	0.523200	0.279100	0.079854
C71	C	0.712500	0.287800	0.057400	0.076698
C72	C	0.384400	0.476200	0.117900	-0.237987
C73	C	0.179400	0.355900	0.106000	0.028051
C74	C	0.781300	0.467800	0.255000	0.047096
C75	C	0.915300	0.286100	0.157100	0.178045
C76	C	0.658400	0.583300	0.243900	0.184755
N1	N	0.245900	0.237250	0.634200	-0.485283
N2	N	0.330100	0.903510	0.770290	-0.506966
N3	N	0.121800	0.992480	0.731000	-0.283480
N4	N	0.492400	0.175890	0.600400	-0.285783
N5	N	0.254100	0.737250	0.865800	-0.485283
N6	N	0.169900	0.403510	0.729710	-0.506966
N7	N	0.378200	0.492480	0.769000	-0.283480
N8	N	0.007600	0.675890	0.899600	-0.285783
N9	N	0.754100	0.762750	0.365800	-0.485283
N10	N	0.669900	0.096490	0.229710	-0.506966
N11	N	0.878200	0.007520	0.269000	-0.283480
N12	N	0.507600	0.824110	0.399600	-0.285783
N13	N	0.745900	0.262750	0.134200	-0.485283
N14	N	0.830100	0.596490	0.270290	-0.506966
N15	N	0.621800	0.507520	0.231000	-0.283480
N16	N	0.992400	0.324110	0.100400	-0.285783
O1	O	0.842500	0.554090	0.551170	-0.465025
O2	O	0.115800	0.682980	0.398720	-0.736074
O3	O	0.266900	0.743980	0.682530	-0.522298
O4	O	0.305000	0.613200	0.333300	-0.426708
O5	O	0.556000	0.729060	0.733140	-0.689393
O6	O	0.657500	0.054090	0.948830	-0.465025
O7	O	0.384200	0.182980	0.101280	-0.736074
O8	O	0.233100	0.243980	0.817470	-0.522298
O9	O	0.195000	0.113200	0.166700	-0.426708
O10	O	0.944000	0.229060	0.766860	-0.689393
O11	O	0.157500	0.445910	0.448830	-0.465025
O12	O	0.884200	0.317020	0.601280	-0.736074
O13	O	0.733100	0.256020	0.317470	-0.522298
O14	O	0.695000	0.386800	0.666700	-0.426708
O15	O	0.444000	0.270940	0.266860	-0.689393
O16	O	0.342500	0.945910	0.051170	-0.465025
O17	O	0.615800	0.817020	0.898720	-0.736074
O18	O	0.766900	0.756020	0.182530	-0.522298
O19	O	0.805000	0.886800	0.833300	-0.426708
O20	O	0.056000	0.770940	0.233140	-0.689393
