data_IVETOT_clean_PM
_symmetry_space_group_name_H-M	'P1'
_cell_length_a	14.689000
_cell_length_b	14.995000
_cell_length_c	30.625000
_cell_angle_alpha	90.000000
_cell_angle_beta	90.000000
_cell_angle_gamma	90.000000
_symmetry_Int_Tables_number 1

loop_
_symmetry_equiv_pos_as_xyz
'x,y,z'

loop_
_atom_site_label
_atom_site_type_symbol
_atom_site_fract_x
_atom_site_fract_y
_atom_site_fract_z
_atom_site_charge
Cu1	Cu	0.500000	0.250000	0.250000	1.015952
Cu2	Cu	0.000000	0.750000	0.750000	1.006277
Cu3	Cu	0.500000	0.750000	0.750000	1.015952
Cu4	Cu	0.000000	0.250000	0.250000	1.006277
H1	H	0.601300	0.087800	0.226500	0.061997
H2	H	0.607300	0.978500	0.172000	0.083929
H3	H	0.386200	0.096000	0.117900	0.091659
H4	H	0.392500	0.200000	0.171300	0.071619
H5	H	0.629000	0.919700	0.110200	0.079964
H6	H	0.632600	0.812800	0.054800	0.085160
H7	H	0.371100	0.871600	0.026000	0.087148
H8	H	0.369900	0.976600	0.080800	0.081045
H9	H	0.855200	0.626300	0.788000	0.047281
H10	H	0.757900	0.623000	0.846800	0.083131
H11	H	0.840900	0.871300	0.880300	0.083335
H12	H	0.935800	0.865300	0.818800	0.050747
H13	H	0.667900	0.617700	0.896000	0.087309
H14	H	0.554000	0.624800	0.948000	0.092355
H15	H	0.637000	0.869200	0.984100	0.087236
H16	H	0.752000	0.865200	0.931600	0.081015
H17	H	0.601300	0.412200	0.273500	0.061997
H18	H	0.607300	0.521500	0.328000	0.083929
H19	H	0.386200	0.404000	0.382100	0.091659
H20	H	0.392500	0.300000	0.328700	0.071619
H21	H	0.629000	0.580300	0.389800	0.079964
H22	H	0.632600	0.687200	0.445200	0.085160
H23	H	0.371100	0.628400	0.474000	0.087148
H24	H	0.369900	0.523400	0.419200	0.081045
H25	H	0.855200	0.873700	0.712000	0.047281
H26	H	0.757900	0.877000	0.653200	0.083131
H27	H	0.840900	0.628700	0.619700	0.083335
H28	H	0.935800	0.634700	0.681200	0.050747
H29	H	0.667900	0.882300	0.604000	0.087309
H30	H	0.554000	0.875200	0.552000	0.092355
H31	H	0.637000	0.630800	0.515900	0.087236
H32	H	0.752000	0.634800	0.568400	0.081015
H33	H	0.398700	0.412200	0.226500	0.061997
H34	H	0.392700	0.521500	0.172000	0.083929
H35	H	0.613800	0.404000	0.117900	0.091659
H36	H	0.607500	0.300000	0.171300	0.071619
H37	H	0.371000	0.580300	0.110200	0.079964
H38	H	0.367400	0.687200	0.054800	0.085160
H39	H	0.628900	0.628400	0.026000	0.087148
H40	H	0.630100	0.523400	0.080800	0.081045
H41	H	0.144800	0.873700	0.788000	0.047281
H42	H	0.242100	0.877000	0.846800	0.083131
H43	H	0.159100	0.628700	0.880300	0.083335
H44	H	0.064200	0.634700	0.818800	0.050747
H45	H	0.332100	0.882300	0.896000	0.087309
H46	H	0.446000	0.875200	0.948000	0.092355
H47	H	0.363000	0.630800	0.984100	0.087236
H48	H	0.248000	0.634800	0.931600	0.081015
H49	H	0.398700	0.087800	0.273500	0.061997
H50	H	0.392700	0.978500	0.328000	0.083929
H51	H	0.613800	0.096000	0.382100	0.091659
H52	H	0.607500	0.200000	0.328700	0.071619
H53	H	0.371000	0.919700	0.389800	0.079964
H54	H	0.367400	0.812800	0.445200	0.085160
H55	H	0.628900	0.871600	0.474000	0.087148
H56	H	0.630100	0.976600	0.419200	0.081045
H57	H	0.144800	0.626300	0.712000	0.047281
H58	H	0.242100	0.623000	0.653200	0.083131
H59	H	0.159100	0.871300	0.619700	0.083335
H60	H	0.064200	0.865300	0.681200	0.050747
H61	H	0.332100	0.617700	0.604000	0.087309
H62	H	0.446000	0.624800	0.552000	0.092355
H63	H	0.363000	0.869200	0.515900	0.087236
H64	H	0.248000	0.865200	0.568400	0.081015
H65	H	0.398700	0.912200	0.773500	0.061997
H66	H	0.392700	0.021500	0.828000	0.083929
H67	H	0.613800	0.904000	0.882100	0.091659
H68	H	0.607500	0.800000	0.828700	0.071619
H69	H	0.371000	0.080300	0.889800	0.079964
H70	H	0.367400	0.187200	0.945200	0.085160
H71	H	0.628900	0.128400	0.974000	0.087148
H72	H	0.630100	0.023400	0.919200	0.081045
H73	H	0.144800	0.373700	0.212000	0.047281
H74	H	0.242100	0.377000	0.153200	0.083131
H75	H	0.159100	0.128700	0.119700	0.083335
H76	H	0.064200	0.134700	0.181200	0.050747
H77	H	0.332100	0.382300	0.104000	0.087309
H78	H	0.446000	0.375200	0.052000	0.092355
H79	H	0.363000	0.130800	0.015900	0.087236
H80	H	0.248000	0.134800	0.068400	0.081015
H81	H	0.398700	0.587800	0.726500	0.061997
H82	H	0.392700	0.478500	0.672000	0.083929
H83	H	0.613800	0.596000	0.617900	0.091659
H84	H	0.607500	0.700000	0.671300	0.071619
H85	H	0.371000	0.419700	0.610200	0.079964
H86	H	0.367400	0.312800	0.554800	0.085160
H87	H	0.628900	0.371600	0.526000	0.087148
H88	H	0.630100	0.476600	0.580800	0.081045
H89	H	0.144800	0.126300	0.288000	0.047281
H90	H	0.242100	0.123000	0.346800	0.083131
H91	H	0.159100	0.371300	0.380300	0.083335
H92	H	0.064200	0.365300	0.318800	0.050747
H93	H	0.332100	0.117700	0.396000	0.087309
H94	H	0.446000	0.124800	0.448000	0.092355
H95	H	0.363000	0.369200	0.484100	0.087236
H96	H	0.248000	0.365200	0.431600	0.081015
H97	H	0.601300	0.587800	0.773500	0.061997
H98	H	0.607300	0.478500	0.828000	0.083929
H99	H	0.386200	0.596000	0.882100	0.091659
H100	H	0.392500	0.700000	0.828700	0.071619
H101	H	0.629000	0.419700	0.889800	0.079964
H102	H	0.632600	0.312800	0.945200	0.085160
H103	H	0.371100	0.371600	0.974000	0.087148
H104	H	0.369900	0.476600	0.919200	0.081045
H105	H	0.855200	0.126300	0.212000	0.047281
H106	H	0.757900	0.123000	0.153200	0.083131
H107	H	0.840900	0.371300	0.119700	0.083335
H108	H	0.935800	0.365300	0.181200	0.050747
H109	H	0.667900	0.117700	0.104000	0.087309
H110	H	0.554000	0.124800	0.052000	0.092355
H111	H	0.637000	0.369200	0.015900	0.087236
H112	H	0.752000	0.365200	0.068400	0.081015
H113	H	0.601300	0.912200	0.726500	0.061997
H114	H	0.607300	0.021500	0.672000	0.083929
H115	H	0.386200	0.904000	0.617900	0.091659
H116	H	0.392500	0.800000	0.671300	0.071619
H117	H	0.629000	0.080300	0.610200	0.079964
H118	H	0.632600	0.187200	0.554800	0.085160
H119	H	0.371100	0.128400	0.526000	0.087148
H120	H	0.369900	0.023400	0.580800	0.081045
H121	H	0.855200	0.373700	0.288000	0.047281
H122	H	0.757900	0.377000	0.346800	0.083131
H123	H	0.840900	0.128700	0.380300	0.083335
H124	H	0.935800	0.134700	0.318800	0.050747
H125	H	0.667900	0.382300	0.396000	0.087309
H126	H	0.554000	0.375200	0.448000	0.092355
H127	H	0.637000	0.130800	0.484100	0.087236
H128	H	0.752000	0.134800	0.431600	0.081015
C1	C	0.558200	0.089500	0.203430	0.098488
C2	C	0.562200	0.023800	0.171150	-0.150952
C3	C	0.496700	0.026900	0.137140	0.050863
C4	C	0.433100	0.092900	0.139230	-0.132262
C5	C	0.436700	0.153800	0.171510	0.107376
C6	C	0.496100	0.959300	0.101820	0.032400
C7	C	0.576000	0.909500	0.093080	-0.108551
C8	C	0.578500	0.845900	0.059940	-0.090454
C9	C	0.501400	0.830700	0.034140	0.038681
C10	C	0.424500	0.880500	0.042970	-0.097700
C11	C	0.424000	0.943200	0.076070	-0.107215
C12	C	0.852300	0.676400	0.807000	0.090238
C13	C	0.794200	0.674400	0.841800	-0.148690
C14	C	0.787700	0.745700	0.869680	0.055424
C15	C	0.842100	0.820300	0.861900	-0.148276
C16	C	0.898800	0.814900	0.825000	0.106605
C17	C	0.719400	0.740200	0.907190	0.032945
C18	C	0.661600	0.669800	0.913430	-0.104063
C19	C	0.594500	0.673800	0.944730	-0.077115
C20	C	0.584600	0.747400	0.971610	0.034271
C21	C	0.643300	0.818000	0.966020	-0.101892
C22	C	0.711300	0.816300	0.934690	-0.121151
C23	C	0.558200	0.410500	0.296570	0.098488
C24	C	0.562200	0.476200	0.328850	-0.150952
C25	C	0.496700	0.473100	0.362860	0.050863
C26	C	0.433100	0.407100	0.360770	-0.132262
C27	C	0.436700	0.346200	0.328490	0.107376
C28	C	0.496100	0.540700	0.398180	0.032400
C29	C	0.576000	0.590500	0.406920	-0.108551
C30	C	0.578500	0.654100	0.440060	-0.090454
C31	C	0.501400	0.669300	0.465860	0.038681
C32	C	0.424500	0.619500	0.457030	-0.097700
C33	C	0.424000	0.556800	0.423930	-0.107215
C34	C	0.852300	0.823600	0.693000	0.090238
C35	C	0.794200	0.825600	0.658200	-0.148690
C36	C	0.787700	0.754300	0.630320	0.055424
C37	C	0.842100	0.679700	0.638100	-0.148276
C38	C	0.898800	0.685100	0.675000	0.106605
C39	C	0.719400	0.759800	0.592810	0.032945
C40	C	0.661600	0.830200	0.586570	-0.104063
C41	C	0.594500	0.826200	0.555270	-0.077115
C42	C	0.584600	0.752600	0.528390	0.034271
C43	C	0.643300	0.682000	0.533980	-0.101892
C44	C	0.711300	0.683700	0.565310	-0.121151
C45	C	0.441800	0.410500	0.203430	0.098488
C46	C	0.437800	0.476200	0.171150	-0.150952
C47	C	0.503300	0.473100	0.137140	0.050863
C48	C	0.566900	0.407100	0.139230	-0.132262
C49	C	0.563300	0.346200	0.171510	0.107376
C50	C	0.503900	0.540700	0.101820	0.032400
C51	C	0.424000	0.590500	0.093080	-0.108551
C52	C	0.421500	0.654100	0.059940	-0.090454
C53	C	0.498600	0.669300	0.034140	0.038681
C54	C	0.575500	0.619500	0.042970	-0.097700
C55	C	0.576000	0.556800	0.076070	-0.107215
C56	C	0.147700	0.823600	0.807000	0.090238
C57	C	0.205800	0.825600	0.841800	-0.148690
C58	C	0.212300	0.754300	0.869680	0.055424
C59	C	0.157900	0.679700	0.861900	-0.148276
C60	C	0.101200	0.685100	0.825000	0.106605
C61	C	0.280600	0.759800	0.907190	0.032945
C62	C	0.338400	0.830200	0.913430	-0.104063
C63	C	0.405500	0.826200	0.944730	-0.077115
C64	C	0.415400	0.752600	0.971610	0.034271
C65	C	0.356700	0.682000	0.966020	-0.101892
C66	C	0.288700	0.683700	0.934690	-0.121151
C67	C	0.441800	0.089500	0.296570	0.098488
C68	C	0.437800	0.023800	0.328850	-0.150952
C69	C	0.503300	0.026900	0.362860	0.050863
C70	C	0.566900	0.092900	0.360770	-0.132262
C71	C	0.563300	0.153800	0.328490	0.107376
C72	C	0.503900	0.959300	0.398180	0.032400
C73	C	0.424000	0.909500	0.406920	-0.108551
C74	C	0.421500	0.845900	0.440060	-0.090454
C75	C	0.498600	0.830700	0.465860	0.038681
C76	C	0.575500	0.880500	0.457030	-0.097700
C77	C	0.576000	0.943200	0.423930	-0.107215
C78	C	0.147700	0.676400	0.693000	0.090238
C79	C	0.205800	0.674400	0.658200	-0.148690
C80	C	0.212300	0.745700	0.630320	0.055424
C81	C	0.157900	0.820300	0.638100	-0.148276
C82	C	0.101200	0.814900	0.675000	0.106605
C83	C	0.280600	0.740200	0.592810	0.032945
C84	C	0.338400	0.669800	0.586570	-0.104063
C85	C	0.405500	0.673800	0.555270	-0.077115
C86	C	0.415400	0.747400	0.528390	0.034271
C87	C	0.356700	0.818000	0.533980	-0.101892
C88	C	0.288700	0.816300	0.565310	-0.121151
C89	C	0.500000	0.750000	0.003030	-0.046623
C90	C	0.500000	0.750000	0.496970	-0.046623
C91	C	0.441800	0.910500	0.796570	0.098488
C92	C	0.437800	0.976200	0.828850	-0.150952
C93	C	0.503300	0.973100	0.862860	0.050863
C94	C	0.566900	0.907100	0.860770	-0.132262
C95	C	0.563300	0.846200	0.828490	0.107376
C96	C	0.503900	0.040700	0.898180	0.032400
C97	C	0.424000	0.090500	0.906920	-0.108551
C98	C	0.421500	0.154100	0.940060	-0.090454
C99	C	0.498600	0.169300	0.965860	0.038681
C100	C	0.575500	0.119500	0.957030	-0.097700
C101	C	0.576000	0.056800	0.923930	-0.107215
C102	C	0.147700	0.323600	0.193000	0.090238
C103	C	0.205800	0.325600	0.158200	-0.148690
C104	C	0.212300	0.254300	0.130320	0.055424
C105	C	0.157900	0.179700	0.138100	-0.148276
C106	C	0.101200	0.185100	0.175000	0.106605
C107	C	0.280600	0.259800	0.092810	0.032945
C108	C	0.338400	0.330200	0.086570	-0.104063
C109	C	0.405500	0.326200	0.055270	-0.077115
C110	C	0.415400	0.252600	0.028390	0.034271
C111	C	0.356700	0.182000	0.033980	-0.101892
C112	C	0.288700	0.183700	0.065310	-0.121151
C113	C	0.441800	0.589500	0.703430	0.098488
C114	C	0.437800	0.523800	0.671150	-0.150952
C115	C	0.503300	0.526900	0.637140	0.050863
C116	C	0.566900	0.592900	0.639230	-0.132262
C117	C	0.563300	0.653800	0.671510	0.107376
C118	C	0.503900	0.459300	0.601820	0.032400
C119	C	0.424000	0.409500	0.593080	-0.108551
C120	C	0.421500	0.345900	0.559940	-0.090454
C121	C	0.498600	0.330700	0.534140	0.038681
C122	C	0.575500	0.380500	0.542970	-0.097700
C123	C	0.576000	0.443200	0.576070	-0.107215
C124	C	0.147700	0.176400	0.307000	0.090238
C125	C	0.205800	0.174400	0.341800	-0.148690
C126	C	0.212300	0.245700	0.369680	0.055424
C127	C	0.157900	0.320300	0.361900	-0.148276
C128	C	0.101200	0.314900	0.325000	0.106605
C129	C	0.280600	0.240200	0.407190	0.032945
C130	C	0.338400	0.169800	0.413430	-0.104063
C131	C	0.405500	0.173800	0.444730	-0.077115
C132	C	0.415400	0.247400	0.471610	0.034271
C133	C	0.356700	0.318000	0.466020	-0.101892
C134	C	0.288700	0.316300	0.434690	-0.121151
C135	C	0.558200	0.589500	0.796570	0.098488
C136	C	0.562200	0.523800	0.828850	-0.150952
C137	C	0.496700	0.526900	0.862860	0.050863
C138	C	0.433100	0.592900	0.860770	-0.132262
C139	C	0.436700	0.653800	0.828490	0.107376
C140	C	0.496100	0.459300	0.898180	0.032400
C141	C	0.576000	0.409500	0.906920	-0.108551
C142	C	0.578500	0.345900	0.940060	-0.090454
C143	C	0.501400	0.330700	0.965860	0.038681
C144	C	0.424500	0.380500	0.957030	-0.097700
C145	C	0.424000	0.443200	0.923930	-0.107215
C146	C	0.852300	0.176400	0.193000	0.090238
C147	C	0.794200	0.174400	0.158200	-0.148690
C148	C	0.787700	0.245700	0.130320	0.055424
C149	C	0.842100	0.320300	0.138100	-0.148276
C150	C	0.898800	0.314900	0.175000	0.106605
C151	C	0.719400	0.240200	0.092810	0.032945
C152	C	0.661600	0.169800	0.086570	-0.104063
C153	C	0.594500	0.173800	0.055270	-0.077115
C154	C	0.584600	0.247400	0.028390	0.034271
C155	C	0.643300	0.318000	0.033980	-0.101892
C156	C	0.711300	0.316300	0.065310	-0.121151
C157	C	0.558200	0.910500	0.703430	0.098488
C158	C	0.562200	0.976200	0.671150	-0.150952
C159	C	0.496700	0.973100	0.637140	0.050863
C160	C	0.433100	0.907100	0.639230	-0.132262
C161	C	0.436700	0.846200	0.671510	0.107376
C162	C	0.496100	0.040700	0.601820	0.032400
C163	C	0.576000	0.090500	0.593080	-0.108551
C164	C	0.578500	0.154100	0.559940	-0.090454
C165	C	0.501400	0.169300	0.534140	0.038681
C166	C	0.424500	0.119500	0.542970	-0.097700
C167	C	0.424000	0.056800	0.576070	-0.107215
C168	C	0.852300	0.323600	0.307000	0.090238
C169	C	0.794200	0.325600	0.341800	-0.148690
C170	C	0.787700	0.254300	0.369680	0.055424
C171	C	0.842100	0.179700	0.361900	-0.148276
C172	C	0.898800	0.185100	0.325000	0.106605
C173	C	0.719400	0.259800	0.407190	0.032945
C174	C	0.661600	0.330200	0.413430	-0.104063
C175	C	0.594500	0.326200	0.444730	-0.077115
C176	C	0.584600	0.252600	0.471610	0.034271
C177	C	0.643300	0.182000	0.466020	-0.101892
C178	C	0.711300	0.183700	0.434690	-0.121151
C179	C	0.500000	0.250000	0.996970	-0.046623
C180	C	0.500000	0.250000	0.503030	-0.046623
N1	N	0.496600	0.154000	0.203150	-0.502482
N2	N	0.905400	0.747700	0.798810	-0.493663
N3	N	0.496600	0.346000	0.296850	-0.502482
N4	N	0.905400	0.752300	0.701190	-0.493663
N5	N	0.503400	0.346000	0.203150	-0.502482
N6	N	0.094600	0.752300	0.798810	-0.493663
N7	N	0.503400	0.154000	0.296850	-0.502482
N8	N	0.094600	0.747700	0.701190	-0.493663
N9	N	0.503400	0.846000	0.796850	-0.502482
N10	N	0.094600	0.252300	0.201190	-0.493663
N11	N	0.503400	0.654000	0.703150	-0.502482
N12	N	0.094600	0.247700	0.298810	-0.493663
N13	N	0.496600	0.654000	0.796850	-0.502482
N14	N	0.905400	0.247700	0.201190	-0.493663
N15	N	0.496600	0.846000	0.703150	-0.502482
N16	N	0.905400	0.252300	0.298810	-0.493663
