data_JAVTAC_clean_PM
_symmetry_space_group_name_H-M	'P1'
_cell_length_a	8.421200
_cell_length_b	12.131500
_cell_length_c	12.131500
_cell_angle_alpha	66.436199
_cell_angle_beta	69.691299
_cell_angle_gamma	69.691300
_symmetry_Int_Tables_number 1

loop_
_symmetry_equiv_pos_as_xyz
'x,y,z'

loop_
_atom_site_label
_atom_site_type_symbol
_atom_site_fract_x
_atom_site_fract_y
_atom_site_fract_z
_atom_site_charge
Al1	Al	0.212700	0.836900	0.097100	-2.357234
Al2	Al	0.802300	0.944400	0.844800	-2.456674
Al3	Al	0.146700	0.163100	0.902900	-2.356506
Al4	Al	0.591500	0.055600	0.155200	-2.457476
Al5	Al	0.712700	0.597100	0.336900	-2.357234
Al6	Al	0.302300	0.344800	0.444400	-2.456674
Al7	Al	0.646700	0.402900	0.663100	-2.356506
Al8	Al	0.091500	0.655200	0.555600	-2.457476
Al9	Al	0.438000	0.897800	0.602200	-2.395139
Al10	Al	0.938000	0.102200	0.397800	-2.395139
P1	P	0.845000	0.810700	0.114300	0.744550
P2	P	0.433400	0.940600	0.839400	0.744333
P3	P	0.770000	0.189300	0.885700	0.745908
P4	P	0.213400	0.059400	0.160600	0.744020
P5	P	0.345000	0.614300	0.310700	0.744550
P6	P	0.933400	0.339400	0.440600	0.744333
P7	P	0.270000	0.385700	0.689300	0.745908
P8	P	0.713400	0.660600	0.559400	0.744020
P9	P	0.072700	0.886000	0.614000	0.757455
P10	P	0.572700	0.114000	0.386000	0.757455
O1	O	0.021500	0.812100	0.108500	0.386677
O2	O	0.613300	0.939600	0.825600	0.412497
O3	O	0.818900	0.685700	0.186700	0.334356
O4	O	0.842600	0.839300	0.985100	0.403219
O5	O	0.365300	0.847600	0.956200	0.384017
O6	O	0.720500	0.908500	0.167300	0.442718
O7	O	0.314500	0.066900	0.833300	0.406261
O8	O	0.974100	0.892800	0.734400	0.405591
O9	O	0.434200	0.914400	0.733200	0.392146
O10	O	0.942100	0.187900	0.891500	0.386031
O11	O	0.378500	0.060400	0.174400	0.412581
O12	O	0.691300	0.314300	0.813300	0.334454
O13	O	0.667000	0.160700	0.014900	0.403059
O14	O	0.169100	0.152400	0.043800	0.384239
O15	O	0.796300	0.091500	0.832700	0.442539
O16	O	0.214700	0.933100	0.166700	0.406490
O17	O	0.601300	0.107200	0.265600	0.406120
O18	O	0.081800	0.085600	0.266800	0.391964
O19	O	0.521500	0.608500	0.312100	0.386677
O20	O	0.113300	0.325600	0.439600	0.412497
O21	O	0.318900	0.686700	0.185700	0.334356
O22	O	0.342600	0.485100	0.339300	0.403219
O23	O	0.865300	0.456200	0.347600	0.384017
O24	O	0.220500	0.667300	0.408500	0.442718
O25	O	0.814500	0.333300	0.566900	0.406261
O26	O	0.474100	0.234400	0.392800	0.405591
O27	O	0.934200	0.233200	0.414400	0.392146
O28	O	0.442100	0.391500	0.687900	0.386031
O29	O	0.878500	0.674400	0.560400	0.412581
O30	O	0.191300	0.313300	0.814300	0.334454
O31	O	0.167000	0.514900	0.660700	0.403059
O32	O	0.669100	0.543800	0.652400	0.384239
O33	O	0.296300	0.332700	0.591500	0.442539
O34	O	0.714700	0.666700	0.433100	0.406490
O35	O	0.101300	0.765600	0.607200	0.406120
O36	O	0.581800	0.766800	0.585600	0.391964
O37	O	0.237000	0.902000	0.598000	0.396515
O38	O	0.009000	0.982800	0.517200	0.408984
O39	O	0.737000	0.098000	0.402000	0.396515
O40	O	0.509000	0.017200	0.482800	0.408984
F1	F	0.086500	0.000000	0.000000	0.346304
F2	F	0.586500	0.500000	0.500000	0.346304
