data_KIFKAM_clean_PM
_symmetry_space_group_name_H-M	'P1'
_cell_length_a	8.977800
_cell_length_b	9.873000
_cell_length_c	17.253000
_cell_angle_alpha	90.000000
_cell_angle_beta	90.000000
_cell_angle_gamma	92.617999
_symmetry_Int_Tables_number 1

loop_
_symmetry_equiv_pos_as_xyz
'x,y,z'

loop_
_atom_site_label
_atom_site_type_symbol
_atom_site_fract_x
_atom_site_fract_y
_atom_site_fract_z
_atom_site_charge
Mg1	Mg	0.622290	0.397320	0.979900	1.094230
Mg2	Mg	0.877710	0.102680	0.479900	1.094230
Mg3	Mg	0.377710	0.602680	0.020100	1.094230
Mg4	Mg	0.122290	0.897320	0.520100	1.094230
Mg5	Mg	0.000000	0.500000	-0.000000	1.108133
Mg6	Mg	0.500000	0.000000	0.500000	1.108133
H1	H	0.016500	0.707500	0.788300	0.115227
H2	H	0.009700	0.835600	0.674600	0.121178
H3	H	0.582600	0.700600	0.639100	0.109831
H4	H	0.589700	0.572400	0.752600	0.104648
H5	H	0.808000	0.983900	0.908100	0.116924
H6	H	0.038200	0.198000	0.073200	0.117395
H7	H	0.483500	0.792500	0.288300	0.115227
H8	H	0.490300	0.664400	0.174600	0.121178
H9	H	0.917400	0.799400	0.139100	0.109831
H10	H	0.910300	0.927600	0.252600	0.104648
H11	H	0.692000	0.516100	0.408100	0.116924
H12	H	0.461800	0.302000	0.573200	0.117395
H13	H	0.983500	0.292500	0.211700	0.115227
H14	H	0.990300	0.164400	0.325400	0.121178
H15	H	0.417400	0.299400	0.360900	0.109831
H16	H	0.410300	0.427600	0.247400	0.104648
H17	H	0.192000	0.016100	0.091900	0.116924
H18	H	0.961800	0.802000	0.926800	0.117395
H19	H	0.516500	0.207500	0.711700	0.115227
H20	H	0.509700	0.335600	0.825400	0.121178
H21	H	0.082600	0.200600	0.860900	0.109831
H22	H	0.089700	0.072400	0.747400	0.104648
H23	H	0.308000	0.483900	0.591900	0.116924
H24	H	0.538200	0.698000	0.426800	0.117395
C1	C	0.806800	0.553050	0.858040	0.435466
C2	C	0.803500	0.628810	0.782420	0.048382
C3	C	0.927860	0.706400	0.758210	-0.115119
C4	C	0.924110	0.782510	0.690390	-0.027498
C5	C	0.795520	0.780900	0.645930	0.031267
C6	C	0.670900	0.702300	0.669530	-0.061807
C7	C	0.674900	0.626300	0.737150	-0.094501
C8	C	0.783280	0.868010	0.575140	0.475715
C9	C	0.808280	0.223420	0.977720	0.438456
C10	C	0.909500	0.108540	0.988710	0.040355
C11	C	0.886000	0.990410	0.945310	-0.120593
C12	C	0.022900	0.117600	0.043410	-0.031235
C13	C	0.693200	0.946950	0.358040	0.435466
C14	C	0.696500	0.871190	0.282420	0.048382
C15	C	0.572140	0.793600	0.258210	-0.115119
C16	C	0.575890	0.717490	0.190390	-0.027498
C17	C	0.704480	0.719100	0.145930	0.031267
C18	C	0.829100	0.797700	0.169530	-0.061807
C19	C	0.825100	0.873700	0.237150	-0.094501
C20	C	0.716720	0.631990	0.075140	0.475715
C21	C	0.691720	0.276580	0.477720	0.438456
C22	C	0.590500	0.391460	0.488710	0.040355
C23	C	0.614000	0.509590	0.445310	-0.120593
C24	C	0.477100	0.382400	0.543410	-0.031235
C25	C	0.193200	0.446950	0.141960	0.435466
C26	C	0.196500	0.371190	0.217580	0.048382
C27	C	0.072140	0.293600	0.241790	-0.115119
C28	C	0.075890	0.217490	0.309610	-0.027498
C29	C	0.204480	0.219100	0.354070	0.031267
C30	C	0.329100	0.297700	0.330470	-0.061807
C31	C	0.325100	0.373700	0.262850	-0.094501
C32	C	0.216720	0.131990	0.424860	0.475715
C33	C	0.191720	0.776580	0.022280	0.438456
C34	C	0.090500	0.891460	0.011290	0.040355
C35	C	0.114000	0.009590	0.054690	-0.120593
C36	C	0.977100	0.882400	0.956590	-0.031235
C37	C	0.306800	0.053050	0.641960	0.435466
C38	C	0.303500	0.128810	0.717580	0.048382
C39	C	0.427860	0.206400	0.741790	-0.115119
C40	C	0.424110	0.282510	0.809610	-0.027498
C41	C	0.295520	0.280900	0.854070	0.031267
C42	C	0.170900	0.202300	0.830470	-0.061807
C43	C	0.174900	0.126300	0.762850	-0.094501
C44	C	0.283280	0.368010	0.924860	0.475715
C45	C	0.308280	0.723420	0.522280	0.438456
C46	C	0.409500	0.608540	0.511290	0.040355
C47	C	0.386000	0.490410	0.554690	-0.120593
C48	C	0.522900	0.617600	0.456590	-0.031235
O1	O	0.682190	0.507440	0.884360	-0.530149
O2	O	0.930060	0.542600	0.889990	-0.483179
O3	O	0.901650	0.928510	0.547790	-0.680022
O4	O	0.657330	0.881850	0.547550	-0.501179
O5	O	0.687450	0.205380	0.941800	-0.552958
O6	O	0.842060	0.338530	0.008400	-0.604902
O7	O	0.817810	0.992560	0.384360	-0.530149
O8	O	0.569940	0.957400	0.389990	-0.483179
O9	O	0.598350	0.571490	0.047790	-0.680022
O10	O	0.842670	0.618150	0.047550	-0.501179
O11	O	0.812550	0.294620	0.441800	-0.552958
O12	O	0.657940	0.161470	0.508400	-0.604902
O13	O	0.317810	0.492560	0.115640	-0.530149
O14	O	0.069940	0.457400	0.110010	-0.483179
O15	O	0.098350	0.071490	0.452210	-0.680022
O16	O	0.342670	0.118150	0.452450	-0.501179
O17	O	0.312550	0.794620	0.058200	-0.552958
O18	O	0.157940	0.661470	0.991600	-0.604902
O19	O	0.182190	0.007440	0.615640	-0.530149
O20	O	0.430060	0.042600	0.610010	-0.483179
O21	O	0.401650	0.428510	0.952210	-0.680022
O22	O	0.157330	0.381850	0.952450	-0.501179
O23	O	0.187450	0.705380	0.558200	-0.552958
O24	O	0.342060	0.838530	0.491600	-0.604902
