data_LERNAY01_clean_PM
_symmetry_space_group_name_H-M	'P1'
_cell_length_a	10.081600
_cell_length_b	12.808600
_cell_length_c	12.999600
_cell_angle_alpha	70.947603
_cell_angle_beta	67.184500
_cell_angle_gamma	66.824601
_symmetry_Int_Tables_number 1

loop_
_symmetry_equiv_pos_as_xyz
'x,y,z'

loop_
_atom_site_label
_atom_site_type_symbol
_atom_site_fract_x
_atom_site_fract_y
_atom_site_fract_z
_atom_site_charge
Co1	Co	0.966610	0.614810	0.897030	1.448617
Co2	Co	0.317520	0.666980	0.763720	1.464792
Co3	Co	0.478450	0.885190	0.602970	1.448574
Co4	Co	0.748220	0.833020	0.736280	1.464643
Co5	Co	0.033390	0.385190	0.102970	1.448617
Co6	Co	0.682480	0.333020	0.236280	1.464792
Co7	Co	0.521550	0.114810	0.397030	1.448574
Co8	Co	0.251780	0.166980	0.263720	1.464643
H1	H	0.102400	0.390800	0.650400	0.111063
H2	H	0.208300	0.255600	0.538400	0.117534
H3	H	0.612000	0.230100	0.519500	0.103473
H4	H	0.518400	0.370000	0.624600	0.123129
H5	H	0.135000	0.957200	0.739000	0.114295
H6	H	0.139400	0.913200	0.538000	0.134294
H7	H	0.019600	0.016600	0.594200	0.131809
H8	H	0.143600	0.109200	0.849600	0.110758
H9	H	0.002300	0.244400	0.961600	0.117521
H10	H	0.361600	0.269900	0.980500	0.103593
H11	H	0.513000	0.130000	0.875400	0.123506
H12	H	0.831200	0.542800	0.761000	0.114310
H13	H	0.590600	0.586800	0.962000	0.134273
H14	H	0.630400	0.483400	0.905800	0.131856
H15	H	0.897600	0.609200	0.349600	0.111063
H16	H	0.791700	0.744400	0.461600	0.117534
H17	H	0.388000	0.769900	0.480500	0.103473
H18	H	0.481600	0.630000	0.375400	0.123129
H19	H	0.865000	0.042800	0.261000	0.114295
H20	H	0.860600	0.086800	0.462000	0.134294
H21	H	0.980400	0.983400	0.405800	0.131809
H22	H	0.856400	0.890800	0.150400	0.110758
H23	H	0.997700	0.755600	0.038400	0.117521
H24	H	0.638400	0.730100	0.019500	0.103593
H25	H	0.487000	0.870000	0.124600	0.123506
H26	H	0.168800	0.457200	0.239000	0.114310
H27	H	0.409400	0.413200	0.038000	0.134273
H28	H	0.369600	0.516600	0.094200	0.131856
C1	C	0.236600	0.487400	0.721400	0.495924
C2	C	0.299200	0.396600	0.649800	0.070886
C3	C	0.206800	0.360800	0.622800	-0.107033
C4	C	0.272100	0.278700	0.556100	0.108934
C5	C	0.508000	0.263700	0.545300	0.093636
C6	C	0.452400	0.347100	0.609300	-0.064861
C7	C	0.032200	0.839600	0.750000	0.529147
C8	C	0.150800	0.903300	0.693300	0.224360
C9	C	0.124700	0.969300	0.579700	-0.157949
C10	C	0.221300	0.048200	0.501600	0.541286
C11	C	0.445400	0.012600	0.778600	0.495899
C12	C	0.345600	0.103400	0.850200	0.070807
C13	C	0.190400	0.139200	0.877200	-0.106054
C14	C	0.106900	0.221300	0.943900	0.108709
C15	C	0.317000	0.236300	0.954700	0.093976
C16	C	0.408800	0.152900	0.890700	-0.066152
C17	C	0.621800	0.660400	0.750000	0.529423
C18	C	0.747400	0.596700	0.806700	0.224367
C19	C	0.673700	0.530700	0.920300	-0.158018
C20	C	0.771100	0.451800	0.998400	0.541383
C21	C	0.763400	0.512600	0.278600	0.495924
C22	C	0.700800	0.603400	0.350200	0.070886
C23	C	0.793200	0.639200	0.377200	-0.107033
C24	C	0.727900	0.721300	0.443900	0.108934
C25	C	0.492000	0.736300	0.454700	0.093636
C26	C	0.547600	0.652900	0.390700	-0.064861
C27	C	0.967800	0.160400	0.250000	0.529147
C28	C	0.849200	0.096700	0.306700	0.224360
C29	C	0.875300	0.030700	0.420300	-0.157949
C30	C	0.778700	0.951800	0.498400	0.541286
C31	C	0.554600	0.987400	0.221400	0.495899
C32	C	0.654400	0.896600	0.149800	0.070807
C33	C	0.809600	0.860800	0.122800	-0.106054
C34	C	0.893100	0.778700	0.056100	0.108709
C35	C	0.683000	0.763700	0.045300	0.093976
C36	C	0.591200	0.847100	0.109300	-0.066152
C37	C	0.378200	0.339600	0.250000	0.529423
C38	C	0.252600	0.403300	0.193300	0.224367
C39	C	0.326300	0.469300	0.079700	-0.158018
C40	C	0.228900	0.548200	0.001600	0.541383
N1	N	0.420370	0.229760	0.515700	-0.365377
N2	N	0.165830	0.270240	0.984300	-0.365359
N3	N	0.579630	0.770240	0.484300	-0.365377
N4	N	0.834170	0.729760	0.015700	-0.365359
O1	O	0.330660	0.530580	0.717500	-0.681923
O2	O	0.100850	0.507900	0.779000	-0.575754
O3	O	0.080800	0.734800	0.793800	-0.825923
O4	O	0.897260	0.892880	0.758400	-0.636888
O5	O	0.299800	0.824200	0.676200	-0.926046
O6	O	0.358520	0.023560	0.497000	-0.800060
O7	O	0.158700	0.127500	0.433100	-0.671219
O8	O	0.578740	0.969420	0.782500	-0.681636
O9	O	0.387750	0.992100	0.721000	-0.575825
O10	O	0.609400	0.765200	0.706200	-0.825984
O11	O	0.548540	0.607120	0.741600	-0.637156
O12	O	0.800200	0.675800	0.823800	-0.926130
O13	O	0.879080	0.476440	0.003000	-0.800122
O14	O	0.719300	0.372500	0.066900	-0.671306
O15	O	0.669340	0.469420	0.282500	-0.681923
O16	O	0.899150	0.492100	0.221000	-0.575754
O17	O	0.919200	0.265200	0.206200	-0.825923
O18	O	0.102740	0.107120	0.241600	-0.636888
O19	O	0.700200	0.175800	0.323800	-0.926046
O20	O	0.641480	0.976440	0.503000	-0.800060
O21	O	0.841300	0.872500	0.566900	-0.671219
O22	O	0.421260	0.030580	0.217500	-0.681636
O23	O	0.612250	0.007900	0.279000	-0.575825
O24	O	0.390600	0.234800	0.293800	-0.825984
O25	O	0.451460	0.392880	0.258400	-0.637156
O26	O	0.199800	0.324200	0.176200	-0.926130
O27	O	0.120920	0.523560	0.997000	-0.800122
O28	O	0.280700	0.627500	0.933100	-0.671306
