data_LOJFUL_clean_PM
_symmetry_space_group_name_H-M	'P1'
_cell_length_a	16.315000
_cell_length_b	17.405000
_cell_length_c	18.410000
_cell_angle_alpha	89.592000
_cell_angle_beta	84.330001
_cell_angle_gamma	82.520999
_symmetry_Int_Tables_number 1

loop_
_symmetry_equiv_pos_as_xyz
'x,y,z'

loop_
_atom_site_label
_atom_site_type_symbol
_atom_site_fract_x
_atom_site_fract_y
_atom_site_fract_z
_atom_site_charge
Na1	Na	0.088780	0.050660	0.000200	-2.367358
Na2	Na	0.911220	0.949340	0.999800	-2.367358
Zn1	Zn	0.525300	0.498900	0.190100	1.034716
Zn2	Zn	0.474700	0.501100	0.809900	1.034716
H1	H	0.605300	0.204900	0.156700	0.103535
H2	H	0.455000	0.222200	0.160100	0.097559
H3	H	0.217800	0.465500	0.175900	0.090338
H4	H	0.218000	0.604800	0.174500	0.092075
H5	H	0.449500	0.794000	0.178800	0.098678
H6	H	0.598500	0.777800	0.178200	0.100909
H7	H	0.836200	0.533800	0.162500	0.091689
H8	H	0.837100	0.392500	0.157500	0.093492
H9	H	0.735300	0.252300	0.049500	0.109563
H10	H	0.837100	0.148200	0.035800	0.194689
H11	H	0.885200	0.168900	0.242000	0.109569
H12	H	0.780700	0.274300	0.259500	0.104342
H13	H	0.304900	0.342300	0.058900	0.101869
H14	H	0.208400	0.258000	0.045000	0.103742
H15	H	0.206100	0.203500	0.257600	0.102600
H16	H	0.302600	0.287800	0.271500	0.104594
H17	H	0.361100	0.757600	0.069600	0.106749
H18	H	0.265500	0.866400	0.056300	0.130064
H19	H	0.141300	0.820500	0.246200	0.109336
H20	H	0.240400	0.715600	0.263100	0.104625
H21	H	0.723400	0.714300	0.067200	0.108615
H22	H	0.823500	0.795100	0.058200	0.189204
H23	H	0.881600	0.737400	0.258100	0.104871
H24	H	0.779700	0.654200	0.268200	0.102780
H25	H	0.394700	0.795100	0.843300	0.103535
H26	H	0.545000	0.777800	0.839900	0.097559
H27	H	0.782200	0.534500	0.824100	0.090338
H28	H	0.782000	0.395200	0.825500	0.092075
H29	H	0.550500	0.206000	0.821200	0.098678
H30	H	0.401500	0.222200	0.821800	0.100909
H31	H	0.163800	0.466200	0.837500	0.091689
H32	H	0.162900	0.607500	0.842500	0.093492
H33	H	0.264700	0.747700	0.950500	0.109563
H34	H	0.162900	0.851800	0.964200	0.194689
H35	H	0.114800	0.831100	0.758000	0.109569
H36	H	0.219300	0.725700	0.740500	0.104342
H37	H	0.695100	0.657700	0.941100	0.101869
H38	H	0.791600	0.742000	0.955000	0.103742
H39	H	0.793900	0.796500	0.742400	0.102600
H40	H	0.697400	0.712200	0.728500	0.104594
H41	H	0.638900	0.242400	0.930400	0.106749
H42	H	0.734500	0.133600	0.943700	0.130064
H43	H	0.858700	0.179500	0.753800	0.109336
H44	H	0.759600	0.284400	0.736900	0.104625
H45	H	0.276600	0.285700	0.932800	0.108615
H46	H	0.176500	0.204900	0.941800	0.189204
H47	H	0.118400	0.262600	0.741900	0.104871
H48	H	0.220300	0.345800	0.731800	0.102780
C1	C	0.704300	0.415500	0.168800	0.131299
C2	C	0.679100	0.342100	0.165800	-0.029436
C3	C	0.595800	0.326700	0.166800	0.132812
C4	C	0.570600	0.251800	0.161100	-0.081067
C5	C	0.488200	0.261400	0.163200	-0.071255
C6	C	0.459600	0.342500	0.171200	0.126848
C7	C	0.377500	0.377200	0.174300	-0.032987
C8	C	0.349600	0.456400	0.177800	0.130501
C9	C	0.264100	0.491500	0.176400	-0.085233
C10	C	0.264300	0.567800	0.176000	-0.081633
C11	C	0.348400	0.583400	0.178300	0.129589
C12	C	0.375400	0.656200	0.176000	-0.024936
C13	C	0.458000	0.671900	0.176000	0.131319
C14	C	0.484000	0.747000	0.177700	-0.086810
C15	C	0.565300	0.738200	0.177500	-0.062814
C16	C	0.594200	0.655400	0.175700	0.126327
C17	C	0.676100	0.622000	0.173600	-0.034541
C18	C	0.704000	0.541400	0.172600	0.133241
C19	C	0.790000	0.507400	0.165100	-0.094468
C20	C	0.790500	0.429700	0.162400	-0.074565
C21	C	0.745300	0.273800	0.156100	0.048575
C22	C	0.764300	0.235600	0.088900	-0.168157
C23	C	0.825600	0.173400	0.080800	0.034181
C24	C	0.870300	0.147600	0.137400	0.053239
C25	C	0.854200	0.185600	0.203800	-0.035192
C26	C	0.791500	0.249000	0.214500	-0.139026
C27	C	0.937000	0.079200	0.127200	0.310492
C28	C	0.313300	0.323400	0.166600	0.048451
C29	C	0.285100	0.314500	0.098700	-0.144692
C30	C	0.227300	0.264000	0.090400	-0.043212
C31	C	0.197700	0.222400	0.149900	0.029058
C32	C	0.225900	0.231300	0.217700	-0.025433
C33	C	0.283700	0.281800	0.226100	-0.152875
C34	C	0.133800	0.169000	0.137800	0.227990
C35	C	0.311500	0.725200	0.167300	0.050104
C36	C	0.317800	0.770500	0.105900	-0.161747
C37	C	0.259900	0.835800	0.097600	-0.025765
C38	C	0.194500	0.854900	0.150300	0.024146
C39	C	0.186400	0.808800	0.211300	-0.023725
C40	C	0.245200	0.745100	0.221000	-0.151433
C41	C	0.134400	0.925800	0.140000	0.231263
C42	C	0.741400	0.675000	0.168400	0.052814
C43	C	0.755200	0.718300	0.106000	-0.176113
C44	C	0.814900	0.766800	0.100700	0.019162
C45	C	0.863300	0.774700	0.158000	0.038956
C46	C	0.849800	0.732800	0.219400	-0.038011
C47	C	0.788400	0.682400	0.225700	-0.148723
C48	C	0.926300	0.829500	0.149300	0.250713
C49	C	0.453000	0.464700	0.346700	0.107347
C50	C	0.447000	0.464800	0.422500	0.002988
C51	C	0.503400	0.499400	0.458940	0.006548
C52	C	0.565900	0.533800	0.419500	0.003004
C53	C	0.572000	0.533700	0.343700	0.107798
C54	C	0.295700	0.584500	0.831200	0.131299
C55	C	0.320900	0.657900	0.834200	-0.029436
C56	C	0.404200	0.673300	0.833200	0.132812
C57	C	0.429400	0.748200	0.838900	-0.081067
C58	C	0.511800	0.738600	0.836800	-0.071255
C59	C	0.540400	0.657500	0.828800	0.126848
C60	C	0.622500	0.622800	0.825700	-0.032987
C61	C	0.650400	0.543600	0.822200	0.130501
C62	C	0.735900	0.508500	0.823600	-0.085233
C63	C	0.735700	0.432200	0.824000	-0.081633
C64	C	0.651600	0.416600	0.821700	0.129589
C65	C	0.624600	0.343800	0.824000	-0.024936
C66	C	0.542000	0.328100	0.824000	0.131319
C67	C	0.516000	0.253000	0.822300	-0.086810
C68	C	0.434700	0.261800	0.822500	-0.062814
C69	C	0.405800	0.344600	0.824300	0.126327
C70	C	0.323900	0.378000	0.826400	-0.034541
C71	C	0.296000	0.458600	0.827400	0.133241
C72	C	0.210000	0.492600	0.834900	-0.094468
C73	C	0.209500	0.570300	0.837600	-0.074565
C74	C	0.254700	0.726200	0.843900	0.048575
C75	C	0.235700	0.764400	0.911100	-0.168157
C76	C	0.174400	0.826600	0.919200	0.034181
C77	C	0.129700	0.852400	0.862600	0.053239
C78	C	0.145800	0.814400	0.796200	-0.035192
C79	C	0.208500	0.751000	0.785500	-0.139026
C80	C	0.063000	0.920800	0.872800	0.310492
C81	C	0.686700	0.676600	0.833400	0.048451
C82	C	0.714900	0.685500	0.901300	-0.144692
C83	C	0.772700	0.736000	0.909600	-0.043212
C84	C	0.802300	0.777600	0.850100	0.029058
C85	C	0.774100	0.768700	0.782300	-0.025433
C86	C	0.716300	0.718200	0.773900	-0.152875
C87	C	0.866200	0.831000	0.862200	0.227990
C88	C	0.688500	0.274800	0.832700	0.050104
C89	C	0.682200	0.229500	0.894100	-0.161747
C90	C	0.740100	0.164200	0.902400	-0.025765
C91	C	0.805500	0.145100	0.849700	0.024146
C92	C	0.813600	0.191200	0.788700	-0.023725
C93	C	0.754800	0.254900	0.779000	-0.151433
C94	C	0.865600	0.074200	0.860000	0.231263
C95	C	0.258600	0.325000	0.831600	0.052814
C96	C	0.244800	0.281700	0.894000	-0.176113
C97	C	0.185100	0.233200	0.899300	0.019162
C98	C	0.136700	0.225300	0.842000	0.038956
C99	C	0.150200	0.267200	0.780600	-0.038011
C100	C	0.211600	0.317600	0.774300	-0.148723
C101	C	0.073700	0.170500	0.850700	0.250713
C102	C	0.547000	0.535300	0.653300	0.107347
C103	C	0.553000	0.535200	0.577500	0.002988
C104	C	0.496600	0.500600	0.541060	0.006548
C105	C	0.434100	0.466200	0.580500	0.003004
C106	C	0.428000	0.466300	0.656300	0.107798
N1	N	0.528100	0.381300	0.173700	-0.441634
N2	N	0.399500	0.513900	0.179900	-0.438676
N3	N	0.525700	0.616400	0.177100	-0.440685
N4	N	0.654300	0.484400	0.174700	-0.438758
N5	N	0.515500	0.499200	0.307250	-0.400964
N6	N	0.471900	0.618700	0.826300	-0.441634
N7	N	0.600500	0.486100	0.820100	-0.438676
N8	N	0.474300	0.383600	0.822900	-0.440685
N9	N	0.345700	0.515600	0.825300	-0.438758
N10	N	0.484500	0.500800	0.692750	-0.400964
O1	O	0.954700	0.048500	0.067100	0.388122
O2	O	0.973400	0.058400	0.183300	-0.056379
O3	O	0.117100	0.151900	0.077800	0.147921
O4	O	0.088900	0.152100	0.202200	-0.211386
O5	O	0.147400	0.970600	0.090000	0.189028
O6	O	0.070800	0.937100	0.188400	-0.064902
O7	O	0.940900	0.866100	0.095700	0.200839
O8	O	0.967200	0.832500	0.208800	-0.250292
O9	O	0.045300	0.951500	0.932900	0.388122
O10	O	0.026600	0.941600	0.816700	-0.056379
O11	O	0.882900	0.848100	0.922200	0.147921
O12	O	0.911100	0.847900	0.797800	-0.211386
O13	O	0.852600	0.029400	0.910000	0.189028
O14	O	0.929200	0.062900	0.811600	-0.064902
O15	O	0.059100	0.133900	0.904300	0.200839
O16	O	0.032800	0.167500	0.791200	-0.250292
