data_Mg-DOBDC_PM
_symmetry_space_group_name_H-M	'P1'
_cell_length_a	6.785600
_cell_length_b	15.110056
_cell_length_c	15.110056
_cell_angle_alpha	117.800093
_cell_angle_beta	98.609126
_cell_angle_gamma	98.609126
_symmetry_Int_Tables_number 1

loop_
_symmetry_equiv_pos_as_xyz
'x,y,z'

loop_
_atom_site_label
_atom_site_type_symbol
_atom_site_fract_x
_atom_site_fract_y
_atom_site_fract_z
_atom_site_charge
Mg1	Mg	0.886520	0.673270	0.401960	1.110229
Mg2	Mg	0.213250	0.728690	0.326730	1.110229
Mg3	Mg	0.484560	0.598040	0.271310	1.110229
Mg4	Mg	0.113480	0.326730	0.598040	1.110229
Mg5	Mg	0.786750	0.271310	0.673270	1.110229
Mg6	Mg	0.515440	0.401960	0.728690	1.110229
H1	H	0.355530	0.976680	0.527450	0.136522
H2	H	0.378850	0.550770	0.023320	0.136522
H3	H	0.828080	0.472550	0.449230	0.136522
H4	H	0.644470	0.023320	0.472550	0.136522
H5	H	0.621150	0.449230	0.976680	0.136522
H6	H	0.171920	0.527450	0.550770	0.136522
C1	C	0.646300	0.827530	0.392460	0.454196
C2	C	0.818770	0.564930	0.172470	0.454196
C3	C	0.253840	0.607540	0.435070	0.454196
C4	C	0.353700	0.172470	0.607540	0.454196
C5	C	0.181230	0.435070	0.827530	0.454196
C6	C	0.746160	0.392460	0.564930	0.454196
C7	C	0.829990	0.913710	0.448750	0.002769
C8	C	0.916280	0.535040	0.086290	0.002769
C9	C	0.381240	0.551250	0.464960	0.002769
C10	C	0.170010	0.086290	0.551250	0.002769
C11	C	0.083720	0.464960	0.913710	0.002769
C12	C	0.618760	0.448750	0.535040	0.002769
C13	C	0.032560	0.898200	0.464180	0.219578
C14	C	0.134360	0.565980	0.101800	0.219578
C15	C	0.568380	0.535820	0.434020	0.219578
C16	C	0.967440	0.101800	0.535820	0.219578
C17	C	0.865640	0.434020	0.898200	0.219578
C18	C	0.431620	0.464180	0.565980	0.219578
C19	C	0.198120	0.986110	0.514990	-0.080420
C20	C	0.212010	0.528880	0.013890	-0.080420
C21	C	0.683130	0.485010	0.471120	-0.080420
C22	C	0.801880	0.013890	0.485010	-0.080420
C23	C	0.787990	0.471120	0.986110	-0.080420
C24	C	0.316870	0.514990	0.528880	-0.080420
O1	O	0.670190	0.732810	0.358900	-0.625555
O2	O	0.937380	0.626090	0.267190	-0.625555
O3	O	0.311290	0.641100	0.373910	-0.625555
O4	O	0.329810	0.267190	0.641100	-0.625555
O5	O	0.062620	0.373910	0.732810	-0.625555
O6	O	0.688710	0.358900	0.626090	-0.625555
O7	O	0.462170	0.841890	0.375220	-0.574895
O8	O	0.620280	0.533330	0.158110	-0.574895
O9	O	0.086950	0.624780	0.466670	-0.574895
O10	O	0.537830	0.158110	0.624780	-0.574895
O11	O	0.379720	0.466670	0.841890	-0.574895
O12	O	0.913050	0.375220	0.533330	-0.574895
O13	O	0.071230	0.803010	0.432170	-0.642425
O14	O	0.268220	0.629160	0.196990	-0.642425
O15	O	0.639060	0.567830	0.370840	-0.642425
O16	O	0.928770	0.196990	0.567830	-0.642425
O17	O	0.731780	0.370840	0.803010	-0.642425
O18	O	0.360940	0.432170	0.629160	-0.642425
