data_MIL-88B-dry_PM
_symmetry_space_group_name_H-M	'P1'
_cell_length_a	9.600000
_cell_length_b	9.600000
_cell_length_c	19.100000
_cell_angle_alpha	90.000000
_cell_angle_beta	90.000000
_cell_angle_gamma	120.000000
_symmetry_Int_Tables_number 1

loop_
_symmetry_equiv_pos_as_xyz
'x,y,z'

loop_
_atom_site_label
_atom_site_type_symbol
_atom_site_fract_x
_atom_site_fract_y
_atom_site_fract_z
_atom_site_charge
Cr1	Cr	0.156300	0.711000	0.750000	-2.191699
Cr2	Cr	0.289000	0.445300	0.750000	-2.192012
Cr3	Cr	0.554700	0.843700	0.750000	-2.191732
Cr4	Cr	0.711000	0.156300	0.250000	-2.191699
Cr5	Cr	0.445300	0.289000	0.250000	-2.192012
Cr6	Cr	0.843700	0.554700	0.250000	-2.191732
H1	H	0.373500	0.356200	0.438000	0.115428
H2	H	0.643800	0.017300	0.438000	0.115312
H3	H	0.982700	0.626500	0.438000	0.115310
H4	H	0.373500	0.356200	0.062000	0.115428
H5	H	0.643800	0.017300	0.062000	0.115312
H6	H	0.982700	0.626500	0.062000	0.115310
H7	H	0.356200	0.373500	0.562000	0.115428
H8	H	0.017300	0.643800	0.562000	0.115312
H9	H	0.626500	0.982700	0.562000	0.115310
H10	H	0.356200	0.373500	0.938000	0.115428
H11	H	0.017300	0.643800	0.938000	0.115312
H12	H	0.626500	0.982700	0.938000	0.115310
H13	H	0.826000	0.803100	0.436200	0.100325
H14	H	0.196900	0.022900	0.436200	0.100449
H15	H	0.977100	0.174000	0.436200	0.100395
H16	H	0.826000	0.803100	0.063800	0.100325
H17	H	0.196900	0.022900	0.063800	0.100449
H18	H	0.977100	0.174000	0.063800	0.100395
H19	H	0.803100	0.826000	0.563800	0.100325
H20	H	0.022900	0.196900	0.563800	0.100449
H21	H	0.174000	0.977100	0.563800	0.100395
H22	H	0.803100	0.826000	0.936200	0.100325
H23	H	0.022900	0.196900	0.936200	0.100449
H24	H	0.174000	0.977100	0.936200	0.100395
C1	C	0.068800	0.453300	0.648100	0.267934
C2	C	0.546700	0.615500	0.648100	0.267952
C3	C	0.384500	0.931200	0.648100	0.267957
C4	C	0.068800	0.453300	0.851900	0.267934
C5	C	0.546700	0.615500	0.851900	0.267952
C6	C	0.384500	0.931200	0.851900	0.267957
C7	C	0.453300	0.068800	0.351900	0.267934
C8	C	0.615500	0.546700	0.351900	0.267952
C9	C	0.931200	0.384500	0.351900	0.267956
C10	C	0.453300	0.068800	0.148100	0.267934
C11	C	0.615500	0.546700	0.148100	0.267952
C12	C	0.931200	0.384500	0.148100	0.267956
C13	C	0.599600	0.580200	0.426300	0.024369
C14	C	0.419800	0.019400	0.426300	0.024154
C15	C	0.980600	0.400400	0.426300	0.024316
C16	C	0.599600	0.580200	0.073700	0.024369
C17	C	0.419800	0.019400	0.073700	0.024154
C18	C	0.980600	0.400400	0.073700	0.024316
C19	C	0.580200	0.599600	0.573700	0.024369
C20	C	0.019400	0.419800	0.573700	0.024154
C21	C	0.400400	0.980600	0.573700	0.024316
C22	C	0.580200	0.599600	0.926300	0.024369
C23	C	0.019400	0.419800	0.926300	0.024154
C24	C	0.400400	0.980600	0.926300	0.024316
C25	C	0.468700	0.460700	0.463900	-0.059345
C26	C	0.539300	0.008000	0.463900	-0.058746
C27	C	0.992000	0.531300	0.463900	-0.058929
C28	C	0.468700	0.460700	0.036100	-0.059345
C29	C	0.539300	0.008000	0.036100	-0.058746
C30	C	0.992000	0.531300	0.036100	-0.058929
C31	C	0.460700	0.468700	0.536100	-0.059345
C32	C	0.008000	0.539300	0.536100	-0.058746
C33	C	0.531300	0.992000	0.536100	-0.058929
C34	C	0.460700	0.468700	0.963900	-0.059345
C35	C	0.008000	0.539300	0.963900	-0.058746
C36	C	0.531300	0.992000	0.963900	-0.058929
C37	C	0.722100	0.710900	0.463400	-0.088010
C38	C	0.289100	0.011200	0.463400	-0.088165
C39	C	0.988800	0.277900	0.463400	-0.088358
C40	C	0.722100	0.710900	0.036600	-0.088010
C41	C	0.289100	0.011200	0.036600	-0.088165
C42	C	0.988800	0.277900	0.036600	-0.088358
C43	C	0.710900	0.722100	0.536600	-0.088010
C44	C	0.011200	0.289100	0.536600	-0.088165
C45	C	0.277900	0.988800	0.536600	-0.088358
C46	C	0.710900	0.722100	0.963400	-0.088010
C47	C	0.011200	0.289100	0.963400	-0.088165
C48	C	0.277900	0.988800	0.963400	-0.088358
O1	O	0.137600	0.384800	0.676700	0.231441
O2	O	0.615200	0.752800	0.676700	0.231385
O3	O	0.247200	0.862400	0.676700	0.231367
O4	O	0.137600	0.384800	0.823300	0.231441
O5	O	0.615200	0.752800	0.823300	0.231385
O6	O	0.247200	0.862400	0.823300	0.231367
O7	O	0.384800	0.137600	0.323300	0.231441
O8	O	0.752800	0.615200	0.323300	0.231385
O9	O	0.862400	0.247200	0.323300	0.231367
O10	O	0.384800	0.137600	0.176700	0.231441
O11	O	0.752800	0.615200	0.176700	0.231385
O12	O	0.862400	0.247200	0.176700	0.231367
O13	O	0.053500	0.562900	0.822400	0.241833
O14	O	0.437100	0.490600	0.822400	0.241840
O15	O	0.509400	0.946500	0.822400	0.241825
O16	O	0.053500	0.562900	0.677600	0.241833
O17	O	0.437100	0.490600	0.677600	0.241840
O18	O	0.509400	0.946500	0.677600	0.241825
O19	O	0.562900	0.053500	0.177600	0.241833
O20	O	0.490600	0.437100	0.177600	0.241840
O21	O	0.946500	0.509400	0.177600	0.241825
O22	O	0.562900	0.053500	0.322400	0.241833
O23	O	0.490600	0.437100	0.322400	0.241840
O24	O	0.946500	0.509400	0.322400	0.241825
O25	O	0.775300	0.018200	0.750000	0.266382
O26	O	0.981800	0.757100	0.750000	0.266152
O27	O	0.242900	0.224700	0.750000	0.266452
O28	O	0.018200	0.775300	0.250000	0.266382
O29	O	0.757100	0.981800	0.250000	0.266152
O30	O	0.224700	0.242900	0.250000	0.266452
O31	O	0.333300	0.666700	0.750000	0.772379
O32	O	0.666700	0.333300	0.250000	0.772379
