data_NEJRUR_clean_PM
_symmetry_space_group_name_H-M	'P1'
_cell_length_a	10.811100
_cell_length_b	10.847500
_cell_length_c	14.021000
_cell_angle_alpha	87.530999
_cell_angle_beta	89.038999
_cell_angle_gamma	85.997000
_symmetry_Int_Tables_number 1

loop_
_symmetry_equiv_pos_as_xyz
'x,y,z'

loop_
_atom_site_label
_atom_site_type_symbol
_atom_site_fract_x
_atom_site_fract_y
_atom_site_fract_z
_atom_site_charge
Cu1	Cu	0.775710	0.652110	0.386260	1.209191
Cu2	Cu	0.779080	0.663220	0.197380	1.210963
Cu3	Cu	0.224290	0.347890	0.613740	1.209191
Cu4	Cu	0.220920	0.336780	0.802620	1.210963
H1	H	0.769300	0.254800	0.434400	0.117437
H2	H	0.764500	0.043000	0.432900	0.120694
H3	H	0.784500	0.058700	0.147300	0.119240
H4	H	0.788700	0.271800	0.147900	0.120375
H5	H	0.381700	0.639800	0.435700	0.127525
H6	H	0.168100	0.633400	0.435400	0.130218
H7	H	0.173300	0.675300	0.147700	0.117978
H8	H	0.386100	0.681000	0.148700	0.118119
H9	H	0.595400	0.662600	0.558900	0.109488
H10	H	0.590900	0.669900	0.722200	0.102737
H11	H	0.962700	0.660500	0.714800	0.108949
H12	H	0.955900	0.655400	0.553000	0.122411
H13	H	0.947200	0.588900	0.027800	0.095142
H14	H	0.951600	0.584500	0.864500	0.119615
H15	H	0.612500	0.759900	0.864200	0.096654
H16	H	0.617100	0.754700	0.027400	0.103407
H17	H	0.230700	0.745200	0.565600	0.117437
H18	H	0.235500	0.957000	0.567100	0.120694
H19	H	0.215500	0.941300	0.852700	0.119240
H20	H	0.211300	0.728200	0.852100	0.120375
H21	H	0.618300	0.360200	0.564300	0.127525
H22	H	0.831900	0.366600	0.564600	0.130218
H23	H	0.826700	0.324700	0.852300	0.117978
H24	H	0.613900	0.319000	0.851300	0.118119
H25	H	0.404600	0.337400	0.441100	0.109488
H26	H	0.409100	0.330100	0.277800	0.102737
H27	H	0.037300	0.339500	0.285200	0.108949
H28	H	0.044100	0.344600	0.447000	0.122411
H29	H	0.052800	0.411100	0.972200	0.095142
H30	H	0.048400	0.415500	0.135500	0.119615
H31	H	0.387500	0.240100	0.135800	0.096654
H32	H	0.382900	0.245300	0.972600	0.103407
C1	C	0.780100	0.424200	0.292600	0.477297
C2	C	0.543400	0.663300	0.292490	0.479190
C3	C	0.772100	0.891100	0.289600	0.476719
C4	C	0.011100	0.651700	0.291010	0.483031
C5	C	0.776400	0.285900	0.291600	0.062821
C6	C	0.771200	0.215700	0.375800	-0.107624
C7	C	0.768800	0.089300	0.374900	-0.042368
C8	C	0.772400	0.029800	0.290100	0.055216
C9	C	0.780500	0.098600	0.205600	-0.057205
C10	C	0.782800	0.225700	0.205900	-0.101204
C11	C	0.405500	0.661400	0.292060	0.059455
C12	C	0.339300	0.647100	0.377500	-0.075859
C13	C	0.212200	0.643500	0.377600	-0.045758
C14	C	0.148900	0.655100	0.290890	0.055871
C15	C	0.215300	0.668500	0.206000	-0.074655
C16	C	0.342100	0.671700	0.206600	-0.070510
C17	C	0.670900	0.662200	0.591200	0.101357
C18	C	0.667400	0.666300	0.689200	-0.132397
C19	C	0.776900	0.665200	0.739130	0.042387
C20	C	0.885600	0.661000	0.684700	-0.099637
C21	C	0.880900	0.657800	0.587900	0.105625
C22	C	0.877000	0.621400	0.994000	0.096763
C23	C	0.880800	0.618500	0.896200	-0.133012
C24	C	0.777700	0.667000	0.844500	0.050526
C25	C	0.681400	0.721000	0.896000	-0.137622
C26	C	0.685400	0.718400	0.993900	0.103302
C27	C	0.219900	0.575800	0.707400	0.477297
C28	C	0.456600	0.336700	0.707510	0.479190
C29	C	0.227900	0.108900	0.710400	0.476719
C30	C	0.988900	0.348300	0.708990	0.483031
C31	C	0.223600	0.714100	0.708400	0.062821
C32	C	0.228800	0.784300	0.624200	-0.107624
C33	C	0.231200	0.910700	0.625100	-0.042368
C34	C	0.227600	0.970200	0.709900	0.055216
C35	C	0.219500	0.901400	0.794400	-0.057205
C36	C	0.217200	0.774300	0.794100	-0.101204
C37	C	0.594500	0.338600	0.707940	0.059455
C38	C	0.660700	0.352900	0.622500	-0.075859
C39	C	0.787800	0.356500	0.622400	-0.045758
C40	C	0.851100	0.344900	0.709110	0.055871
C41	C	0.784700	0.331500	0.794000	-0.074655
C42	C	0.657900	0.328300	0.793400	-0.070510
C43	C	0.329100	0.337800	0.408800	0.101357
C44	C	0.332600	0.333700	0.310800	-0.132397
C45	C	0.223100	0.334800	0.260870	0.042387
C46	C	0.114400	0.339000	0.315300	-0.099637
C47	C	0.119100	0.342200	0.412100	0.105625
C48	C	0.123000	0.378600	0.006000	0.096763
C49	C	0.119200	0.381500	0.103800	-0.133012
C50	C	0.222300	0.333000	0.155500	0.050526
C51	C	0.318600	0.279000	0.104000	-0.137622
C52	C	0.314600	0.281600	0.006100	0.103302
N1	N	0.775600	0.657800	0.540010	-0.358613
N2	N	0.780000	0.667400	0.043800	-0.349387
N3	N	0.224400	0.342200	0.459990	-0.358613
N4	N	0.220000	0.332600	0.956200	-0.349387
O1	O	0.782200	0.471370	0.371880	-0.649977
O2	O	0.780500	0.481620	0.213190	-0.639388
O3	O	0.595850	0.655900	0.372400	-0.641667
O4	O	0.598670	0.671100	0.213060	-0.637463
O5	O	0.768100	0.834140	0.368590	-0.616261
O6	O	0.775300	0.843100	0.210150	-0.620880
O7	O	0.955920	0.648800	0.370610	-0.651918
O8	O	0.959550	0.653000	0.211330	-0.656299
O9	O	0.217800	0.528630	0.628120	-0.649977
O10	O	0.219500	0.518380	0.786810	-0.639388
O11	O	0.404150	0.344100	0.627600	-0.641667
O12	O	0.401330	0.328900	0.786940	-0.637463
O13	O	0.231900	0.165860	0.631410	-0.616261
O14	O	0.224700	0.156900	0.789850	-0.620880
O15	O	0.044080	0.351200	0.629390	-0.651918
O16	O	0.040450	0.347000	0.788670	-0.656299
