data_NOFHUM_clean_PM
_symmetry_space_group_name_H-M	'P1'
_cell_length_a	9.297400
_cell_length_b	15.881600
_cell_length_c	25.287000
_cell_angle_alpha	90.000000
_cell_angle_beta	90.000000
_cell_angle_gamma	90.000000
_symmetry_Int_Tables_number 1

loop_
_symmetry_equiv_pos_as_xyz
'x,y,z'

loop_
_atom_site_label
_atom_site_type_symbol
_atom_site_fract_x
_atom_site_fract_y
_atom_site_fract_z
_atom_site_charge
Zn1	Zn	0.103530	0.570140	0.991060	1.099881
Zn2	Zn	0.896470	0.929860	0.491060	1.099881
Zn3	Zn	0.896470	0.429860	0.008940	1.099881
Zn4	Zn	0.103530	0.070140	0.508940	1.099881
Zn5	Zn	0.603530	0.429860	0.508940	1.099881
Zn6	Zn	0.396470	0.070140	0.008940	1.099881
Zn7	Zn	0.396470	0.570140	0.491060	1.099881
Zn8	Zn	0.603530	0.929860	0.991060	1.099881
H1	H	0.617900	0.980900	0.628500	0.101385
H2	H	0.481700	0.030500	0.699300	0.096921
H3	H	0.773400	0.215200	0.723700	0.103187
H4	H	0.911200	0.162800	0.654100	0.107620
H5	H	0.332100	0.440000	0.873400	0.102050
H6	H	0.461300	0.362100	0.812200	0.098434
H7	H	0.282900	0.147900	0.867900	0.115308
H8	H	0.146500	0.226800	0.927800	0.113416
H9	H	0.382100	0.519100	0.128500	0.101385
H10	H	0.518300	0.469500	0.199300	0.096921
H11	H	0.226600	0.284800	0.223700	0.103187
H12	H	0.088800	0.337200	0.154100	0.107620
H13	H	0.667900	0.060000	0.373400	0.102050
H14	H	0.538700	0.137900	0.312200	0.098434
H15	H	0.717100	0.352100	0.367900	0.115308
H16	H	0.853500	0.273200	0.427800	0.113416
H17	H	0.382100	0.019100	0.371500	0.101385
H18	H	0.518300	0.969500	0.300700	0.096921
H19	H	0.226600	0.784800	0.276300	0.103187
H20	H	0.088800	0.837200	0.345900	0.107620
H21	H	0.667900	0.560000	0.126600	0.102050
H22	H	0.538700	0.637900	0.187800	0.098434
H23	H	0.717100	0.852100	0.132100	0.115308
H24	H	0.853500	0.773200	0.072200	0.113416
H25	H	0.617900	0.480900	0.871500	0.101385
H26	H	0.481700	0.530500	0.800700	0.096921
H27	H	0.773400	0.715200	0.776300	0.103187
H28	H	0.911200	0.662800	0.845900	0.107620
H29	H	0.332100	0.940000	0.626600	0.102050
H30	H	0.461300	0.862100	0.687800	0.098434
H31	H	0.282900	0.647900	0.632100	0.115308
H32	H	0.146500	0.726800	0.572200	0.113416
H33	H	0.117900	0.019100	0.871500	0.101385
H34	H	0.981700	0.969500	0.800700	0.096921
H35	H	0.273400	0.784800	0.776300	0.103187
H36	H	0.411200	0.837200	0.845900	0.107620
H37	H	0.832100	0.560000	0.626600	0.102050
H38	H	0.961300	0.637900	0.687800	0.098434
H39	H	0.782900	0.852100	0.632100	0.115308
H40	H	0.646500	0.773200	0.572200	0.113416
H41	H	0.882100	0.480900	0.371500	0.101385
H42	H	0.018300	0.530500	0.300700	0.096921
H43	H	0.726600	0.715200	0.276300	0.103187
H44	H	0.588800	0.662800	0.345900	0.107620
H45	H	0.167900	0.940000	0.126600	0.102050
H46	H	0.038700	0.862100	0.187800	0.098434
H47	H	0.217100	0.647900	0.132100	0.115308
H48	H	0.353500	0.726800	0.072200	0.113416
H49	H	0.882100	0.980900	0.128500	0.101385
H50	H	0.018300	0.030500	0.199300	0.096921
H51	H	0.726600	0.215200	0.223700	0.103187
H52	H	0.588800	0.162800	0.154100	0.107620
H53	H	0.167900	0.440000	0.373400	0.102050
H54	H	0.038700	0.362100	0.312200	0.098434
H55	H	0.217100	0.147900	0.367900	0.115308
H56	H	0.353500	0.226800	0.427800	0.113416
H57	H	0.117900	0.519100	0.628500	0.101385
H58	H	0.981700	0.469500	0.699300	0.096921
H59	H	0.273400	0.284800	0.723700	0.103187
H60	H	0.411200	0.337200	0.654100	0.107620
H61	H	0.832100	0.060000	0.873400	0.102050
H62	H	0.961300	0.137900	0.812200	0.098434
H63	H	0.782900	0.352100	0.867900	0.115308
H64	H	0.646500	0.273200	0.927800	0.113416
C1	C	0.859300	0.040900	0.585100	0.469357
C2	C	0.774700	0.068500	0.633100	0.040463
C3	C	0.649400	0.029000	0.647500	-0.024787
C4	C	0.568100	0.058600	0.689800	-0.149398
C5	C	0.612100	0.129200	0.718200	0.055003
C6	C	0.740800	0.167500	0.704400	-0.153330
C7	C	0.822200	0.136800	0.662600	-0.006255
C8	C	0.528600	0.164400	0.760300	-0.016680
C9	C	0.138800	0.392600	0.944810	0.477637
C10	C	0.224800	0.341200	0.905750	0.042344
C11	C	0.320100	0.380700	0.871800	0.001507
C12	C	0.397500	0.334200	0.835800	-0.176569
C13	C	0.383700	0.247400	0.833320	0.050578
C14	C	0.291300	0.207500	0.868400	-0.097025
C15	C	0.210900	0.254300	0.904300	-0.014985
C16	C	0.463300	0.199900	0.794400	-0.018843
C17	C	0.140700	0.459100	0.085100	0.469357
C18	C	0.225300	0.431500	0.133100	0.040463
C19	C	0.350600	0.471000	0.147500	-0.024787
C20	C	0.431900	0.441400	0.189800	-0.149398
C21	C	0.387900	0.370800	0.218200	0.055003
C22	C	0.259200	0.332500	0.204400	-0.153330
C23	C	0.177800	0.363200	0.162600	-0.006255
C24	C	0.471400	0.335600	0.260300	-0.016680
C25	C	0.861200	0.107400	0.444810	0.477637
C26	C	0.775200	0.158800	0.405750	0.042344
C27	C	0.679900	0.119300	0.371800	0.001507
C28	C	0.602500	0.165800	0.335800	-0.176569
C29	C	0.616300	0.252600	0.333320	0.050578
C30	C	0.708700	0.292500	0.368400	-0.097025
C31	C	0.789100	0.245700	0.404300	-0.014985
C32	C	0.536700	0.300100	0.294400	-0.018843
C33	C	0.140700	0.959100	0.414900	0.469357
C34	C	0.225300	0.931500	0.366900	0.040463
C35	C	0.350600	0.971000	0.352500	-0.024787
C36	C	0.431900	0.941400	0.310200	-0.149398
C37	C	0.387900	0.870800	0.281800	0.055003
C38	C	0.259200	0.832500	0.295600	-0.153330
C39	C	0.177800	0.863200	0.337400	-0.006255
C40	C	0.471400	0.835600	0.239700	-0.016680
C41	C	0.861200	0.607400	0.055190	0.477637
C42	C	0.775200	0.658800	0.094250	0.042344
C43	C	0.679900	0.619300	0.128200	0.001507
C44	C	0.602500	0.665800	0.164200	-0.176569
C45	C	0.616300	0.752600	0.166680	0.050578
C46	C	0.708700	0.792500	0.131600	-0.097025
C47	C	0.789100	0.745700	0.095700	-0.014985
C48	C	0.536700	0.800100	0.205600	-0.018843
C49	C	0.859300	0.540900	0.914900	0.469357
C50	C	0.774700	0.568500	0.866900	0.040463
C51	C	0.649400	0.529000	0.852500	-0.024787
C52	C	0.568100	0.558600	0.810200	-0.149398
C53	C	0.612100	0.629200	0.781800	0.055003
C54	C	0.740800	0.667500	0.795600	-0.153330
C55	C	0.822200	0.636800	0.837400	-0.006255
C56	C	0.528600	0.664400	0.739700	-0.016680
C57	C	0.138800	0.892600	0.555190	0.477637
C58	C	0.224800	0.841200	0.594250	0.042344
C59	C	0.320100	0.880700	0.628200	0.001507
C60	C	0.397500	0.834200	0.664200	-0.176569
C61	C	0.383700	0.747400	0.666680	0.050578
C62	C	0.291300	0.707500	0.631600	-0.097025
C63	C	0.210900	0.754300	0.595700	-0.014985
C64	C	0.463300	0.699900	0.705600	-0.018843
C65	C	0.359300	0.959100	0.914900	0.469357
C66	C	0.274700	0.931500	0.866900	0.040463
C67	C	0.149400	0.971000	0.852500	-0.024787
C68	C	0.068100	0.941400	0.810200	-0.149398
C69	C	0.112100	0.870800	0.781800	0.055003
C70	C	0.240800	0.832500	0.795600	-0.153330
C71	C	0.322200	0.863200	0.837400	-0.006255
C72	C	0.028600	0.835600	0.739700	-0.016680
C73	C	0.638800	0.607400	0.555190	0.477637
C74	C	0.724800	0.658800	0.594250	0.042344
C75	C	0.820100	0.619300	0.628200	0.001507
C76	C	0.897500	0.665800	0.664200	-0.176569
C77	C	0.883700	0.752600	0.666680	0.050578
C78	C	0.791300	0.792500	0.631600	-0.097025
C79	C	0.710900	0.745700	0.595700	-0.014985
C80	C	0.963300	0.800100	0.705600	-0.018843
C81	C	0.640700	0.540900	0.414900	0.469357
C82	C	0.725300	0.568500	0.366900	0.040463
C83	C	0.850600	0.529000	0.352500	-0.024787
C84	C	0.931900	0.558600	0.310200	-0.149398
C85	C	0.887900	0.629200	0.281800	0.055003
C86	C	0.759200	0.667500	0.295600	-0.153330
C87	C	0.677800	0.636800	0.337400	-0.006255
C88	C	0.971400	0.664400	0.239700	-0.016680
C89	C	0.361200	0.892600	0.055190	0.477637
C90	C	0.275200	0.841200	0.094250	0.042344
C91	C	0.179900	0.880700	0.128200	0.001507
C92	C	0.102500	0.834200	0.164200	-0.176569
C93	C	0.116300	0.747400	0.166680	0.050578
C94	C	0.208700	0.707500	0.131600	-0.097025
C95	C	0.289100	0.754300	0.095700	-0.014985
C96	C	0.036700	0.699900	0.205600	-0.018843
C97	C	0.640700	0.040900	0.085100	0.469357
C98	C	0.725300	0.068500	0.133100	0.040463
C99	C	0.850600	0.029000	0.147500	-0.024787
C100	C	0.931900	0.058600	0.189800	-0.149398
C101	C	0.887900	0.129200	0.218200	0.055003
C102	C	0.759200	0.167500	0.204400	-0.153330
C103	C	0.677800	0.136800	0.162600	-0.006255
C104	C	0.971400	0.164400	0.260300	-0.016680
C105	C	0.361200	0.392600	0.444810	0.477637
C106	C	0.275200	0.341200	0.405750	0.042344
C107	C	0.179900	0.380700	0.371800	0.001507
C108	C	0.102500	0.334200	0.335800	-0.176569
C109	C	0.116300	0.247400	0.333320	0.050578
C110	C	0.208700	0.207500	0.368400	-0.097025
C111	C	0.289100	0.254300	0.404300	-0.014985
C112	C	0.036700	0.199900	0.294400	-0.018843
C113	C	0.359300	0.459100	0.585100	0.469357
C114	C	0.274700	0.431500	0.633100	0.040463
C115	C	0.149400	0.471000	0.647500	-0.024787
C116	C	0.068100	0.441400	0.689800	-0.149398
C117	C	0.112100	0.370800	0.718200	0.055003
C118	C	0.240800	0.332500	0.704400	-0.153330
C119	C	0.322200	0.363200	0.662600	-0.006255
C120	C	0.028600	0.335600	0.760300	-0.016680
C121	C	0.638800	0.107400	0.944810	0.477637
C122	C	0.724800	0.158800	0.905750	0.042344
C123	C	0.820100	0.119300	0.871800	0.001507
C124	C	0.897500	0.165800	0.835800	-0.176569
C125	C	0.883700	0.252600	0.833320	0.050578
C126	C	0.791300	0.292500	0.868400	-0.097025
C127	C	0.710900	0.245700	0.904300	-0.014985
C128	C	0.963300	0.300100	0.794400	-0.018843
O1	O	0.970700	0.082500	0.574270	-0.583646
O2	O	0.811600	0.980000	0.559380	-0.611172
O3	O	0.032600	0.358600	0.966450	-0.612221
O4	O	0.179300	0.466800	0.951810	-0.610181
O5	O	0.029300	0.417500	0.074270	-0.583646
O6	O	0.188400	0.520000	0.059380	-0.611172
O7	O	0.967400	0.141400	0.466450	-0.612221
O8	O	0.820700	0.033200	0.451810	-0.610181
O9	O	0.029300	0.917500	0.425730	-0.583646
O10	O	0.188400	0.020000	0.440620	-0.611172
O11	O	0.967400	0.641400	0.033550	-0.612221
O12	O	0.820700	0.533200	0.048190	-0.610181
O13	O	0.970700	0.582500	0.925730	-0.583646
O14	O	0.811600	0.480000	0.940620	-0.611172
O15	O	0.032600	0.858600	0.533550	-0.612221
O16	O	0.179300	0.966800	0.548190	-0.610181
O17	O	0.470700	0.917500	0.925730	-0.583646
O18	O	0.311600	0.020000	0.940620	-0.611172
O19	O	0.532600	0.641400	0.533550	-0.612221
O20	O	0.679300	0.533200	0.548190	-0.610181
O21	O	0.529300	0.582500	0.425730	-0.583646
O22	O	0.688400	0.480000	0.440620	-0.611172
O23	O	0.467400	0.858600	0.033550	-0.612221
O24	O	0.320700	0.966800	0.048190	-0.610181
O25	O	0.529300	0.082500	0.074270	-0.583646
O26	O	0.688400	0.980000	0.059380	-0.611172
O27	O	0.467400	0.358600	0.466450	-0.612221
O28	O	0.320700	0.466800	0.451810	-0.610181
O29	O	0.470700	0.417500	0.574270	-0.583646
O30	O	0.311600	0.520000	0.559380	-0.611172
O31	O	0.532600	0.141400	0.966450	-0.612221
O32	O	0.679300	0.033200	0.951810	-0.610181
