data_OFODET_clean_PM
_symmetry_space_group_name_H-M	'P1'
_cell_length_a	9.667700
_cell_length_b	11.366700
_cell_length_c	22.105600
_cell_angle_alpha	90.000000
_cell_angle_beta	90.000000
_cell_angle_gamma	102.986000
_symmetry_Int_Tables_number 1

loop_
_symmetry_equiv_pos_as_xyz
'x,y,z'

loop_
_atom_site_label
_atom_site_type_symbol
_atom_site_fract_x
_atom_site_fract_y
_atom_site_fract_z
_atom_site_charge
Mn1	Mn	0.259970	0.260080	0.405120	1.159382
Mn2	Mn	0.240030	0.739920	0.905120	1.159382
Mn3	Mn	0.740030	0.739920	0.594880	1.159382
Mn4	Mn	0.759970	0.260080	0.094880	1.159382
H1	H	0.803000	0.456000	0.982600	0.343671
H2	H	0.154000	0.077000	0.816300	0.130040
H3	H	0.928000	0.335000	0.509200	0.147353
H4	H	0.072000	0.171000	0.647700	0.129824
H5	H	0.065000	0.157800	0.983700	0.148996
H6	H	0.838000	0.414000	0.679000	0.128312
H7	H	0.929000	0.330000	0.844300	0.129853
H8	H	0.283000	0.955000	0.012000	0.347200
H9	H	0.697000	0.544000	0.482600	0.343671
H10	H	0.346000	0.923000	0.316300	0.130040
H11	H	0.572000	0.665000	0.009200	0.147353
H12	H	0.428000	0.829000	0.147700	0.129824
H13	H	0.435000	0.842200	0.483700	0.148996
H14	H	0.662000	0.586000	0.179000	0.128312
H15	H	0.571000	0.670000	0.344300	0.129853
H16	H	0.217000	0.045000	0.512000	0.347200
H17	H	0.197000	0.544000	0.017400	0.343671
H18	H	0.846000	0.923000	0.183700	0.130040
H19	H	0.072000	0.665000	0.490800	0.147353
H20	H	0.928000	0.829000	0.352300	0.129824
H21	H	0.935000	0.842200	0.016300	0.148996
H22	H	0.162000	0.586000	0.321000	0.128312
H23	H	0.071000	0.670000	0.155700	0.129853
H24	H	0.717000	0.045000	0.988000	0.347200
H25	H	0.303000	0.456000	0.517400	0.343671
H26	H	0.654000	0.077000	0.683700	0.130040
H27	H	0.428000	0.335000	0.990800	0.147353
H28	H	0.572000	0.171000	0.852300	0.129824
H29	H	0.565000	0.157800	0.516300	0.148996
H30	H	0.338000	0.414000	0.821000	0.128312
H31	H	0.429000	0.330000	0.655700	0.129853
H32	H	0.783000	0.955000	0.488000	0.347200
C1	C	0.792300	0.481800	0.565580	0.447660
C2	C	0.867500	0.388300	0.589050	0.039708
C3	C	0.932200	0.323800	0.549260	-0.037293
C4	C	0.009800	0.242900	0.570200	0.049774
C5	C	0.086500	0.181000	0.525550	0.434174
C6	C	0.020800	0.225500	0.631950	-0.051897
C7	C	0.955600	0.290100	0.672420	0.092088
C8	C	0.879400	0.370900	0.650790	-0.085674
C9	C	0.041800	0.205100	0.820480	0.093083
C10	C	0.979700	0.273600	0.860200	-0.054231
C11	C	0.986100	0.254600	0.921750	0.047859
C12	C	0.912600	0.319600	0.966350	0.439352
C13	C	0.057100	0.169500	0.943690	-0.033771
C14	C	0.119500	0.101800	0.904900	0.039495
C15	C	0.191900	0.007700	0.929230	0.449585
C16	C	0.112100	0.120300	0.843150	-0.095882
C17	C	0.707700	0.518200	0.065580	0.447660
C18	C	0.632500	0.611700	0.089050	0.039708
C19	C	0.567800	0.676200	0.049260	-0.037293
C20	C	0.490200	0.757100	0.070200	0.049774
C21	C	0.413500	0.819000	0.025550	0.434174
C22	C	0.479200	0.774500	0.131950	-0.051897
C23	C	0.544400	0.709900	0.172420	0.092088
C24	C	0.620600	0.629100	0.150790	-0.085674
C25	C	0.458200	0.794900	0.320480	0.093083
C26	C	0.520300	0.726400	0.360200	-0.054231
C27	C	0.513900	0.745400	0.421750	0.047859
C28	C	0.587400	0.680400	0.466350	0.439352
C29	C	0.442900	0.830500	0.443690	-0.033771
C30	C	0.380500	0.898200	0.404900	0.039495
C31	C	0.308100	0.992300	0.429230	0.449585
C32	C	0.387900	0.879700	0.343150	-0.095882
C33	C	0.207700	0.518200	0.434420	0.447660
C34	C	0.132500	0.611700	0.410950	0.039708
C35	C	0.067800	0.676200	0.450740	-0.037293
C36	C	0.990200	0.757100	0.429800	0.049774
C37	C	0.913500	0.819000	0.474450	0.434174
C38	C	0.979200	0.774500	0.368050	-0.051897
C39	C	0.044400	0.709900	0.327580	0.092088
C40	C	0.120600	0.629100	0.349210	-0.085674
C41	C	0.958200	0.794900	0.179520	0.093083
C42	C	0.020300	0.726400	0.139800	-0.054231
C43	C	0.013900	0.745400	0.078250	0.047859
C44	C	0.087400	0.680400	0.033650	0.439352
C45	C	0.942900	0.830500	0.056310	-0.033771
C46	C	0.880500	0.898200	0.095100	0.039495
C47	C	0.808100	0.992300	0.070770	0.449585
C48	C	0.887900	0.879700	0.156850	-0.095882
C49	C	0.292300	0.481800	0.934420	0.447660
C50	C	0.367500	0.388300	0.910950	0.039708
C51	C	0.432200	0.323800	0.950740	-0.037293
C52	C	0.509800	0.242900	0.929800	0.049774
C53	C	0.586500	0.181000	0.974450	0.434174
C54	C	0.520800	0.225500	0.868050	-0.051897
C55	C	0.455600	0.290100	0.827580	0.092088
C56	C	0.379400	0.370900	0.849210	-0.085674
C57	C	0.541800	0.205100	0.679520	0.093083
C58	C	0.479700	0.273600	0.639800	-0.054231
C59	C	0.486100	0.254600	0.578250	0.047859
C60	C	0.412600	0.319600	0.533650	0.439352
C61	C	0.557100	0.169500	0.556310	-0.033771
C62	C	0.619500	0.101800	0.595100	0.039495
C63	C	0.691900	0.007700	0.570770	0.449585
C64	C	0.612100	0.120300	0.656850	-0.095882
N1	N	0.961800	0.281200	0.736630	-0.139899
N2	N	0.036800	0.213700	0.755930	-0.136352
N3	N	0.538200	0.718800	0.236630	-0.139899
N4	N	0.463200	0.786300	0.255930	-0.136352
N5	N	0.038200	0.718800	0.263370	-0.139899
N6	N	0.963200	0.786300	0.244070	-0.136352
N7	N	0.461800	0.281200	0.763370	-0.139899
N8	N	0.536800	0.213700	0.744070	-0.136352
O1	O	0.771900	0.560080	0.601040	-0.642250
O2	O	0.757300	0.472320	0.509980	-0.455171
O3	O	0.091300	0.214000	0.471820	-0.530806
O4	O	0.143900	0.099470	0.546130	-0.430225
O5	O	0.857700	0.403000	0.945070	-0.458895
O6	O	0.907700	0.288250	0.020050	-0.544485
O7	O	0.228500	0.021170	0.984690	-0.485880
O8	O	0.209600	0.925530	0.895880	-0.614698
O9	O	0.728100	0.439920	0.101040	-0.642250
O10	O	0.742700	0.527680	0.009980	-0.455171
O11	O	0.408700	0.786000	0.971820	-0.530806
O12	O	0.356100	0.900530	0.046130	-0.430225
O13	O	0.642300	0.597000	0.445070	-0.458895
O14	O	0.592300	0.711750	0.520050	-0.544485
O15	O	0.271500	0.978830	0.484690	-0.485880
O16	O	0.290400	0.074470	0.395880	-0.614698
O17	O	0.228100	0.439920	0.398960	-0.642250
O18	O	0.242700	0.527680	0.490020	-0.455171
O19	O	0.908700	0.786000	0.528180	-0.530806
O20	O	0.856100	0.900530	0.453870	-0.430225
O21	O	0.142300	0.597000	0.054930	-0.458895
O22	O	0.092300	0.711750	0.979950	-0.544485
O23	O	0.771500	0.978830	0.015310	-0.485880
O24	O	0.790400	0.074470	0.104120	-0.614698
O25	O	0.271900	0.560080	0.898960	-0.642250
O26	O	0.257300	0.472320	0.990020	-0.455171
O27	O	0.591300	0.214000	0.028180	-0.530806
O28	O	0.643900	0.099470	0.953870	-0.430225
O29	O	0.357700	0.403000	0.554930	-0.458895
O30	O	0.407700	0.288250	0.479950	-0.544485
O31	O	0.728500	0.021170	0.515310	-0.485880
O32	O	0.709600	0.925530	0.604120	-0.614698
