data_OFUYUL_clean_PM
_symmetry_space_group_name_H-M	'P1'
_cell_length_a	12.925600
_cell_length_b	14.555000
_cell_length_c	16.784000
_cell_angle_alpha	108.565001
_cell_angle_beta	90.000000
_cell_angle_gamma	90.000000
_symmetry_Int_Tables_number 1

loop_
_symmetry_equiv_pos_as_xyz
'x,y,z'

loop_
_atom_site_label
_atom_site_type_symbol
_atom_site_fract_x
_atom_site_fract_y
_atom_site_fract_z
_atom_site_charge
Zn1	Zn	0.513780	0.819720	0.817900	1.186564
Zn2	Zn	0.447070	0.099250	0.345510	1.172689
Zn3	Zn	0.013780	0.680280	0.182100	1.186564
Zn4	Zn	0.947070	0.400750	0.654490	1.172689
Zn5	Zn	0.486220	0.180280	0.182100	1.186564
Zn6	Zn	0.552930	0.900750	0.654490	1.172689
Zn7	Zn	0.986220	0.319720	0.817900	1.186564
Zn8	Zn	0.052930	0.599250	0.345510	1.172689
H1	H	0.330800	0.716700	0.501500	0.148521
H2	H	0.074600	0.564400	0.509100	0.158110
H3	H	0.261900	0.648200	0.710400	0.159966
H4	H	0.237500	0.780100	0.042800	0.153487
H5	H	0.272800	0.984300	0.267600	0.141743
H6	H	0.440500	0.996400	0.069200	0.158378
H7	H	0.830800	0.783300	0.498500	0.148521
H8	H	0.574600	0.935600	0.490900	0.158110
H9	H	0.761900	0.851800	0.289600	0.159966
H10	H	0.737500	0.719900	0.957200	0.153487
H11	H	0.772800	0.515700	0.732400	0.141743
H12	H	0.940500	0.503600	0.930800	0.158378
H13	H	0.669200	0.283300	0.498500	0.148521
H14	H	0.925400	0.435600	0.490900	0.158110
H15	H	0.738100	0.351800	0.289600	0.159966
H16	H	0.762500	0.219900	0.957200	0.153487
H17	H	0.727200	0.015700	0.732400	0.141743
H18	H	0.559500	0.003600	0.930800	0.158378
H19	H	0.169200	0.216700	0.501500	0.148521
H20	H	0.425400	0.064400	0.509100	0.158110
H21	H	0.238100	0.148200	0.710400	0.159966
H22	H	0.262500	0.280100	0.042800	0.153487
H23	H	0.227200	0.484300	0.267600	0.141743
H24	H	0.059500	0.496400	0.069200	0.158378
C1	C	0.400500	0.750600	0.657100	0.484555
C2	C	0.309200	0.694100	0.613500	0.038872
C3	C	0.286000	0.688600	0.530500	-0.007435
C4	C	0.196800	0.641700	0.490500	0.211803
C5	C	0.134000	0.596600	0.534700	-0.056446
C6	C	0.157400	0.598300	0.615400	0.039349
C7	C	0.094300	0.541300	0.659300	0.404515
C8	C	0.245700	0.647100	0.656100	-0.044695
C9	C	0.378200	0.835700	0.952600	0.392284
C10	C	0.344300	0.882500	0.042300	0.031945
C11	C	0.269400	0.836300	0.076400	-0.048464
C12	C	0.243200	0.874900	0.160500	0.043273
C13	C	0.162300	0.824400	0.196600	0.393332
C14	C	0.291100	0.958800	0.211200	-0.074765
C15	C	0.366300	0.004700	0.177700	0.262201
C16	C	0.391400	0.965700	0.092400	-0.019335
C17	C	0.900500	0.749400	0.342900	0.484555
C18	C	0.809200	0.805900	0.386500	0.038872
C19	C	0.786000	0.811400	0.469500	-0.007435
C20	C	0.696800	0.858300	0.509500	0.211803
C21	C	0.634000	0.903400	0.465300	-0.056446
C22	C	0.657400	0.901700	0.384600	0.039349
C23	C	0.594300	0.958700	0.340700	0.404515
C24	C	0.745700	0.852900	0.343900	-0.044695
C25	C	0.878200	0.664300	0.047400	0.392284
C26	C	0.844300	0.617500	0.957700	0.031945
C27	C	0.769400	0.663700	0.923600	-0.048464
C28	C	0.743200	0.625100	0.839500	0.043273
C29	C	0.662300	0.675600	0.803400	0.393332
C30	C	0.791100	0.541200	0.788800	-0.074765
C31	C	0.866300	0.495300	0.822300	0.262201
C32	C	0.891400	0.534300	0.907600	-0.019335
C33	C	0.599500	0.249400	0.342900	0.484555
C34	C	0.690800	0.305900	0.386500	0.038872
C35	C	0.714000	0.311400	0.469500	-0.007435
C36	C	0.803200	0.358300	0.509500	0.211803
C37	C	0.866000	0.403400	0.465300	-0.056446
C38	C	0.842600	0.401700	0.384600	0.039349
C39	C	0.905700	0.458700	0.340700	0.404515
C40	C	0.754300	0.352900	0.343900	-0.044695
C41	C	0.621800	0.164300	0.047400	0.392284
C42	C	0.655700	0.117500	0.957700	0.031945
C43	C	0.730600	0.163700	0.923600	-0.048464
C44	C	0.756800	0.125100	0.839500	0.043273
C45	C	0.837700	0.175600	0.803400	0.393332
C46	C	0.708900	0.041200	0.788800	-0.074765
C47	C	0.633700	0.995300	0.822300	0.262201
C48	C	0.608600	0.034300	0.907600	-0.019335
C49	C	0.099500	0.250600	0.657100	0.484555
C50	C	0.190800	0.194100	0.613500	0.038872
C51	C	0.214000	0.188600	0.530500	-0.007435
C52	C	0.303200	0.141700	0.490500	0.211803
C53	C	0.366000	0.096600	0.534700	-0.056446
C54	C	0.342600	0.098300	0.615400	0.039349
C55	C	0.405700	0.041300	0.659300	0.404515
C56	C	0.254300	0.147100	0.656100	-0.044695
C57	C	0.121800	0.335700	0.952600	0.392284
C58	C	0.155700	0.382500	0.042300	0.031945
C59	C	0.230600	0.336300	0.076400	-0.048464
C60	C	0.256800	0.374900	0.160500	0.043273
C61	C	0.337700	0.324400	0.196600	0.393332
C62	C	0.208900	0.458800	0.211200	-0.074765
C63	C	0.133700	0.504700	0.177700	0.262201
C64	C	0.108600	0.465700	0.092400	-0.019335
O1	O	0.457800	0.789000	0.616000	-0.602579
O2	O	0.414100	0.755300	0.731800	-0.602366
O3	O	0.177100	0.641600	0.411900	-0.558463
O4	O	0.011800	0.504100	0.622200	-0.651766
O5	O	0.123900	0.532200	0.725700	-0.312585
O6	O	0.442000	0.882900	0.923600	-0.598957
O7	O	0.346400	0.754200	0.911500	-0.281896
O8	O	0.117700	0.753000	0.145000	-0.591289
O9	O	0.140500	0.854200	0.271200	-0.290633
O10	O	0.415200	0.085800	0.227500	-0.839914
O11	O	0.957800	0.711000	0.384000	-0.602579
O12	O	0.914100	0.744700	0.268200	-0.602366
O13	O	0.677100	0.858400	0.588100	-0.558463
O14	O	0.511800	0.995900	0.377800	-0.651766
O15	O	0.623900	0.967800	0.274300	-0.312585
O16	O	0.942000	0.617100	0.076400	-0.598957
O17	O	0.846400	0.745800	0.088500	-0.281896
O18	O	0.617700	0.747000	0.855000	-0.591289
O19	O	0.640500	0.645800	0.728800	-0.290633
O20	O	0.915200	0.414200	0.772500	-0.839914
O21	O	0.542200	0.211000	0.384000	-0.602579
O22	O	0.585900	0.244700	0.268200	-0.602366
O23	O	0.822900	0.358400	0.588100	-0.558463
O24	O	0.988200	0.495900	0.377800	-0.651766
O25	O	0.876100	0.467800	0.274300	-0.312585
O26	O	0.558000	0.117100	0.076400	-0.598957
O27	O	0.653600	0.245800	0.088500	-0.281896
O28	O	0.882300	0.247000	0.855000	-0.591289
O29	O	0.859500	0.145800	0.728800	-0.290633
O30	O	0.584800	0.914200	0.772500	-0.839914
O31	O	0.042200	0.289000	0.616000	-0.602579
O32	O	0.085900	0.255300	0.731800	-0.602366
O33	O	0.322900	0.141600	0.411900	-0.558463
O34	O	0.488200	0.004100	0.622200	-0.651766
O35	O	0.376100	0.032200	0.725700	-0.312585
O36	O	0.058000	0.382900	0.923600	-0.598957
O37	O	0.153600	0.254200	0.911500	-0.281896
O38	O	0.382300	0.253000	0.145000	-0.591289
O39	O	0.359500	0.354200	0.271200	-0.290633
O40	O	0.084800	0.585800	0.227500	-0.839914
