data_OVIZUP_clean_PM
_symmetry_space_group_name_H-M	'P1'
_cell_length_a	17.657400
_cell_length_b	17.657400
_cell_length_c	18.651800
_cell_angle_alpha	90.000000
_cell_angle_beta	90.000000
_cell_angle_gamma	90.000000
_symmetry_Int_Tables_number 1

loop_
_symmetry_equiv_pos_as_xyz
'x,y,z'

loop_
_atom_site_label
_atom_site_type_symbol
_atom_site_fract_x
_atom_site_fract_y
_atom_site_fract_z
_atom_site_charge
Ni1	Ni	0.617790	0.419940	0.926300	1.095355
Ni2	Ni	0.723920	0.532930	0.813450	1.191174
Ni3	Ni	0.382210	0.580060	0.426300	1.095355
Ni4	Ni	0.276080	0.467070	0.313450	1.191174
Ni5	Ni	0.080060	0.117790	0.676300	1.095355
Ni6	Ni	0.967070	0.223920	0.563450	1.191174
Ni7	Ni	0.919940	0.882210	0.176300	1.095355
Ni8	Ni	0.032930	0.776080	0.063450	1.191174
Ni9	Ni	0.882210	0.919940	0.823700	1.095355
Ni10	Ni	0.776080	0.032930	0.936550	1.191174
Ni11	Ni	0.117790	0.080060	0.323700	1.095355
Ni12	Ni	0.223920	0.967070	0.436550	1.191174
Ni13	Ni	0.419940	0.617790	0.073700	1.095355
Ni14	Ni	0.532930	0.723920	0.186550	1.191174
Ni15	Ni	0.580060	0.382210	0.573700	1.095355
Ni16	Ni	0.467070	0.276080	0.686550	1.191174
H1	H	0.668300	0.078100	0.263100	0.142310
H2	H	0.583900	0.088200	0.287100	0.129006
H3	H	0.684800	0.969100	0.161300	0.123504
H4	H	0.656600	0.844500	0.141300	0.094824
H5	H	0.507500	0.979900	0.294400	0.104193
H6	H	0.484500	0.854500	0.271300	0.113693
H7	H	0.657800	0.699100	0.696800	0.088316
H8	H	0.738600	0.685200	0.729800	0.085745
H9	H	0.724600	0.767700	0.805200	0.120967
H10	H	0.574300	0.634900	0.904500	0.147902
H11	H	0.540700	0.644000	0.780500	0.083001
H12	H	0.576200	0.591800	0.721500	0.127863
H13	H	0.644800	0.826900	0.999500	0.132806
H14	H	0.718200	0.373000	0.049200	0.104895
H15	H	0.718900	0.298200	0.149800	0.093468
H16	H	0.507900	0.239800	0.107800	0.089255
H17	H	0.510400	0.315500	0.009400	0.088921
H18	H	0.661300	0.214100	0.229600	0.140643
H19	H	0.573500	0.223400	0.237600	0.130593
H20	H	0.637300	0.112900	0.146700	0.104039
H21	H	0.551500	0.118500	0.167600	0.076064
H22	H	0.331700	0.921900	0.763100	0.142310
H23	H	0.416100	0.911800	0.787100	0.129006
H24	H	0.315200	0.030900	0.661300	0.123504
H25	H	0.343400	0.155500	0.641300	0.094824
H26	H	0.492500	0.020100	0.794400	0.104193
H27	H	0.515500	0.145500	0.771300	0.113693
H28	H	0.342200	0.300900	0.196800	0.088316
H29	H	0.261400	0.314800	0.229800	0.085745
H30	H	0.275400	0.232300	0.305200	0.120967
H31	H	0.425700	0.365100	0.404500	0.147902
H32	H	0.459300	0.356000	0.280500	0.083001
H33	H	0.423800	0.408200	0.221500	0.127863
H34	H	0.355200	0.173100	0.499500	0.132806
H35	H	0.281800	0.627000	0.549200	0.104895
H36	H	0.281100	0.701800	0.649800	0.093468
H37	H	0.492100	0.760200	0.607800	0.089255
H38	H	0.489600	0.684500	0.509400	0.088921
H39	H	0.338700	0.785900	0.729600	0.140643
H40	H	0.426500	0.776600	0.737600	0.130593
H41	H	0.362700	0.887100	0.646700	0.104039
H42	H	0.448500	0.881500	0.667600	0.076064
H43	H	0.421900	0.168300	0.013100	0.142310
H44	H	0.411800	0.083900	0.037100	0.129006
H45	H	0.530900	0.184800	0.911300	0.123504
H46	H	0.655500	0.156600	0.891300	0.094824
H47	H	0.520100	0.007500	0.044400	0.104193
H48	H	0.645500	0.984500	0.021300	0.113693
H49	H	0.800900	0.157800	0.446800	0.088316
H50	H	0.814800	0.238600	0.479800	0.085745
H51	H	0.732300	0.224600	0.555200	0.120967
H52	H	0.865100	0.074300	0.654500	0.147902
H53	H	0.856000	0.040700	0.530500	0.083001
H54	H	0.908200	0.076200	0.471500	0.127863
H55	H	0.673100	0.144800	0.749500	0.132806
H56	H	0.127000	0.218200	0.799200	0.104895
H57	H	0.201800	0.218900	0.899800	0.093468
H58	H	0.260200	0.007900	0.857800	0.089255
H59	H	0.184500	0.010400	0.759400	0.088921
H60	H	0.285900	0.161300	0.979600	0.140643
H61	H	0.276600	0.073500	0.987600	0.130593
H62	H	0.387100	0.137300	0.896700	0.104039
H63	H	0.381500	0.051500	0.917600	0.076064
H64	H	0.578100	0.831700	0.513100	0.142310
H65	H	0.588200	0.916100	0.537100	0.129006
H66	H	0.469100	0.815200	0.411300	0.123504
H67	H	0.344500	0.843400	0.391300	0.094824
H68	H	0.479900	0.992500	0.544400	0.104193
H69	H	0.354500	0.015500	0.521300	0.113693
H70	H	0.199100	0.842200	0.946800	0.088316
H71	H	0.185200	0.761400	0.979800	0.085745
H72	H	0.267700	0.775400	0.055200	0.120967
H73	H	0.134900	0.925700	0.154500	0.147902
H74	H	0.144000	0.959300	0.030500	0.083001
H75	H	0.091800	0.923800	0.971500	0.127863
H76	H	0.326900	0.855200	0.249500	0.132806
H77	H	0.873000	0.781800	0.299200	0.104895
H78	H	0.798200	0.781100	0.399800	0.093468
H79	H	0.739800	0.992100	0.357800	0.089255
H80	H	0.815500	0.989600	0.259400	0.088921
H81	H	0.714100	0.838700	0.479600	0.140643
H82	H	0.723400	0.926500	0.487600	0.130593
H83	H	0.612900	0.862700	0.396700	0.104039
H84	H	0.618500	0.948500	0.417600	0.076064
H85	H	0.831700	0.578100	0.486900	0.142310
H86	H	0.916100	0.588200	0.462900	0.129006
H87	H	0.815200	0.469100	0.588700	0.123504
H88	H	0.843400	0.344500	0.608700	0.094824
H89	H	0.992500	0.479900	0.455600	0.104193
H90	H	0.015500	0.354500	0.478700	0.113693
H91	H	0.842200	0.199100	0.053200	0.088316
H92	H	0.761400	0.185200	0.020200	0.085745
H93	H	0.775400	0.267700	0.944800	0.120967
H94	H	0.925700	0.134900	0.845500	0.147902
H95	H	0.959300	0.144000	0.969500	0.083001
H96	H	0.923800	0.091800	0.028500	0.127863
H97	H	0.855200	0.326900	0.750500	0.132806
H98	H	0.781800	0.873000	0.700800	0.104895
H99	H	0.781100	0.798200	0.600200	0.093468
H100	H	0.992100	0.739800	0.642200	0.089255
H101	H	0.989600	0.815500	0.740600	0.088921
H102	H	0.838700	0.714100	0.520400	0.140643
H103	H	0.926500	0.723400	0.512400	0.130593
H104	H	0.862700	0.612900	0.603300	0.104039
H105	H	0.948500	0.618500	0.582400	0.076064
H106	H	0.168300	0.421900	0.986900	0.142310
H107	H	0.083900	0.411800	0.962900	0.129006
H108	H	0.184800	0.530900	0.088700	0.123504
H109	H	0.156600	0.655500	0.108700	0.094824
H110	H	0.007500	0.520100	0.955600	0.104193
H111	H	0.984500	0.645500	0.978700	0.113693
H112	H	0.157800	0.800900	0.553200	0.088316
H113	H	0.238600	0.814800	0.520200	0.085745
H114	H	0.224600	0.732300	0.444800	0.120967
H115	H	0.074300	0.865100	0.345500	0.147902
H116	H	0.040700	0.856000	0.469500	0.083001
H117	H	0.076200	0.908200	0.528500	0.127863
H118	H	0.144800	0.673100	0.250500	0.132806
H119	H	0.218200	0.127000	0.200800	0.104895
H120	H	0.218900	0.201800	0.100200	0.093468
H121	H	0.007900	0.260200	0.142200	0.089255
H122	H	0.010400	0.184500	0.240600	0.088921
H123	H	0.161300	0.285900	0.020400	0.140643
H124	H	0.073500	0.276600	0.012400	0.130593
H125	H	0.137300	0.387100	0.103300	0.104039
H126	H	0.051500	0.381500	0.082400	0.076064
H127	H	0.078100	0.668300	0.736900	0.142310
H128	H	0.088200	0.583900	0.712900	0.129006
H129	H	0.969100	0.684800	0.838700	0.123504
H130	H	0.844500	0.656600	0.858700	0.094824
H131	H	0.979900	0.507500	0.705600	0.104193
H132	H	0.854500	0.484500	0.728700	0.113693
H133	H	0.699100	0.657800	0.303200	0.088316
H134	H	0.685200	0.738600	0.270200	0.085745
H135	H	0.767700	0.724600	0.194800	0.120967
H136	H	0.634900	0.574300	0.095500	0.147902
H137	H	0.644000	0.540700	0.219500	0.083001
H138	H	0.591800	0.576200	0.278500	0.127863
H139	H	0.826900	0.644800	0.000500	0.132806
H140	H	0.373000	0.718200	0.950800	0.104895
H141	H	0.298200	0.718900	0.850200	0.093468
H142	H	0.239800	0.507900	0.892200	0.089255
H143	H	0.315500	0.510400	0.990600	0.088921
H144	H	0.214100	0.661300	0.770400	0.140643
H145	H	0.223400	0.573500	0.762400	0.130593
H146	H	0.112900	0.637300	0.853300	0.104039
H147	H	0.118500	0.551500	0.832400	0.076064
H148	H	0.921900	0.331700	0.236900	0.142310
H149	H	0.911800	0.416100	0.212900	0.129006
H150	H	0.030900	0.315200	0.338700	0.123504
H151	H	0.155500	0.343400	0.358700	0.094824
H152	H	0.020100	0.492500	0.205600	0.104193
H153	H	0.145500	0.515500	0.228700	0.113693
H154	H	0.300900	0.342200	0.803200	0.088316
H155	H	0.314800	0.261400	0.770200	0.085745
H156	H	0.232300	0.275400	0.694800	0.120967
H157	H	0.365100	0.425700	0.595500	0.147902
H158	H	0.356000	0.459300	0.719500	0.083001
H159	H	0.408200	0.423800	0.778500	0.127863
H160	H	0.173100	0.355200	0.500500	0.132806
H161	H	0.627000	0.281800	0.450800	0.104895
H162	H	0.701800	0.281100	0.350200	0.093468
H163	H	0.760200	0.492100	0.392200	0.089255
H164	H	0.684500	0.489600	0.490600	0.088921
H165	H	0.785900	0.338700	0.270400	0.140643
H166	H	0.776600	0.426500	0.262400	0.130593
H167	H	0.887100	0.362700	0.353300	0.104039
H168	H	0.881500	0.448500	0.332400	0.076064
C1	C	0.616100	0.072900	0.247600	-0.369377
C2	C	0.600900	0.990000	0.231000	0.097280
C3	C	0.643900	0.947200	0.184900	-0.139489
C4	C	0.626900	0.871900	0.173300	0.095969
C5	C	0.539200	0.953300	0.263500	-0.161952
C6	C	0.525700	0.877800	0.249500	0.108733
C7	C	0.700200	0.593800	0.671900	0.368536
C8	C	0.689900	0.661900	0.720100	-0.062039
C9	C	0.693800	0.757200	0.844400	-0.124894
C10	C	0.651500	0.691070	0.844920	0.108874
C11	C	0.604900	0.677800	0.904000	-0.060954
C12	C	0.578500	0.605200	0.771800	0.016313
C13	C	0.559800	0.535700	0.816800	0.433931
C14	C	0.691100	0.808300	0.901500	0.055438
C15	C	0.646100	0.793400	0.961100	-0.085814
C16	C	0.602800	0.726900	0.962180	0.046339
C17	C	0.552800	0.706200	0.025800	0.477999
C18	C	0.737400	0.878800	0.895200	0.455953
C19	C	0.674700	0.346100	0.061100	0.111912
C20	C	0.675400	0.300900	0.121800	-0.142561
C21	C	0.612300	0.259700	0.141300	0.103936
C22	C	0.551800	0.266700	0.097500	-0.121562
C23	C	0.553600	0.312500	0.037800	0.093092
C24	C	0.613400	0.208400	0.204800	-0.372290
C25	C	0.602600	0.125700	0.185200	0.011165
C26	C	0.383900	0.927100	0.747600	-0.369377
C27	C	0.399100	0.010000	0.731000	0.097280
C28	C	0.356100	0.052800	0.684900	-0.139489
C29	C	0.373100	0.128100	0.673300	0.095969
C30	C	0.460800	0.046700	0.763500	-0.161952
C31	C	0.474300	0.122200	0.749500	0.108733
C32	C	0.299800	0.406200	0.171900	0.368536
C33	C	0.310100	0.338100	0.220100	-0.062039
C34	C	0.306200	0.242800	0.344400	-0.124894
C35	C	0.348500	0.308930	0.344920	0.108874
C36	C	0.395100	0.322200	0.404000	-0.060954
C37	C	0.421500	0.394800	0.271800	0.016313
C38	C	0.440200	0.464300	0.316800	0.433931
C39	C	0.308900	0.191700	0.401500	0.055438
C40	C	0.353900	0.206600	0.461100	-0.085814
C41	C	0.397200	0.273100	0.462180	0.046339
C42	C	0.447200	0.293800	0.525800	0.477999
C43	C	0.262600	0.121200	0.395200	0.455953
C44	C	0.325300	0.653900	0.561100	0.111912
C45	C	0.324600	0.699100	0.621800	-0.142561
C46	C	0.387700	0.740300	0.641300	0.103936
C47	C	0.448200	0.733300	0.597500	-0.121562
C48	C	0.446400	0.687500	0.537800	0.093092
C49	C	0.386600	0.791600	0.704800	-0.372290
C50	C	0.397400	0.874300	0.685200	0.011165
C51	C	0.427100	0.116100	0.997600	-0.369377
C52	C	0.510000	0.100900	0.981000	0.097280
C53	C	0.552800	0.143900	0.934900	-0.139489
C54	C	0.628100	0.126900	0.923300	0.095969
C55	C	0.546700	0.039200	0.013500	-0.161952
C56	C	0.622200	0.025700	0.999500	0.108733
C57	C	0.906200	0.200200	0.421900	0.368536
C58	C	0.838100	0.189900	0.470100	-0.062039
C59	C	0.742800	0.193800	0.594400	-0.124894
C60	C	0.808930	0.151500	0.594920	0.108874
C61	C	0.822200	0.104900	0.654000	-0.060954
C62	C	0.894800	0.078500	0.521800	0.016313
C63	C	0.964300	0.059800	0.566800	0.433931
C64	C	0.691700	0.191100	0.651500	0.055438
C65	C	0.706600	0.146100	0.711100	-0.085814
C66	C	0.773100	0.102800	0.712180	0.046339
C67	C	0.793800	0.052800	0.775800	0.477999
C68	C	0.621200	0.237400	0.645200	0.455953
C69	C	0.153900	0.174700	0.811100	0.111912
C70	C	0.199100	0.175400	0.871800	-0.142561
C71	C	0.240300	0.112300	0.891300	0.103936
C72	C	0.233300	0.051800	0.847500	-0.121562
C73	C	0.187500	0.053600	0.787800	0.093092
C74	C	0.291600	0.113400	0.954800	-0.372290
C75	C	0.374300	0.102600	0.935200	0.011165
C76	C	0.572900	0.883900	0.497600	-0.369377
C77	C	0.490000	0.899100	0.481000	0.097280
C78	C	0.447200	0.856100	0.434900	-0.139489
C79	C	0.371900	0.873100	0.423300	0.095969
C80	C	0.453300	0.960800	0.513500	-0.161952
C81	C	0.377800	0.974300	0.499500	0.108733
C82	C	0.093800	0.799800	0.921900	0.368536
C83	C	0.161900	0.810100	0.970100	-0.062039
C84	C	0.257200	0.806200	0.094400	-0.124894
C85	C	0.191070	0.848500	0.094920	0.108874
C86	C	0.177800	0.895100	0.154000	-0.060954
C87	C	0.105200	0.921500	0.021800	0.016313
C88	C	0.035700	0.940200	0.066800	0.433931
C89	C	0.308300	0.808900	0.151500	0.055438
C90	C	0.293400	0.853900	0.211100	-0.085814
C91	C	0.226900	0.897200	0.212180	0.046339
C92	C	0.206200	0.947200	0.275800	0.477999
C93	C	0.378800	0.762600	0.145200	0.455953
C94	C	0.846100	0.825300	0.311100	0.111912
C95	C	0.800900	0.824600	0.371800	-0.142561
C96	C	0.759700	0.887700	0.391300	0.103936
C97	C	0.766700	0.948200	0.347500	-0.121562
C98	C	0.812500	0.946400	0.287800	0.093092
C99	C	0.708400	0.886600	0.454800	-0.372290
C100	C	0.625700	0.897400	0.435200	0.011165
C101	C	0.883900	0.572900	0.502400	-0.369377
C102	C	0.899100	0.490000	0.519000	0.097280
C103	C	0.856100	0.447200	0.565100	-0.139489
C104	C	0.873100	0.371900	0.576700	0.095969
C105	C	0.960800	0.453300	0.486500	-0.161952
C106	C	0.974300	0.377800	0.500500	0.108733
C107	C	0.799800	0.093800	0.078100	0.368536
C108	C	0.810100	0.161900	0.029900	-0.062039
C109	C	0.806200	0.257200	0.905600	-0.124894
C110	C	0.848500	0.191070	0.905080	0.108874
C111	C	0.895100	0.177800	0.846000	-0.060954
C112	C	0.921500	0.105200	0.978200	0.016313
C113	C	0.940200	0.035700	0.933200	0.433931
C114	C	0.808900	0.308300	0.848500	0.055438
C115	C	0.853900	0.293400	0.788900	-0.085814
C116	C	0.897200	0.226900	0.787820	0.046339
C117	C	0.947200	0.206200	0.724200	0.477999
C118	C	0.762600	0.378800	0.854800	0.455953
C119	C	0.825300	0.846100	0.688900	0.111912
C120	C	0.824600	0.800900	0.628200	-0.142561
C121	C	0.887700	0.759700	0.608700	0.103936
C122	C	0.948200	0.766700	0.652500	-0.121562
C123	C	0.946400	0.812500	0.712200	0.093092
C124	C	0.886600	0.708400	0.545200	-0.372290
C125	C	0.897400	0.625700	0.564800	0.011165
C126	C	0.116100	0.427100	0.002400	-0.369377
C127	C	0.100900	0.510000	0.019000	0.097280
C128	C	0.143900	0.552800	0.065100	-0.139489
C129	C	0.126900	0.628100	0.076700	0.095969
C130	C	0.039200	0.546700	0.986500	-0.161952
C131	C	0.025700	0.622200	0.000500	0.108733
C132	C	0.200200	0.906200	0.578100	0.368536
C133	C	0.189900	0.838100	0.529900	-0.062039
C134	C	0.193800	0.742800	0.405600	-0.124894
C135	C	0.151500	0.808930	0.405080	0.108874
C136	C	0.104900	0.822200	0.346000	-0.060954
C137	C	0.078500	0.894800	0.478200	0.016313
C138	C	0.059800	0.964300	0.433200	0.433931
C139	C	0.191100	0.691700	0.348500	0.055438
C140	C	0.146100	0.706600	0.288900	-0.085814
C141	C	0.102800	0.773100	0.287820	0.046339
C142	C	0.052800	0.793800	0.224200	0.477999
C143	C	0.237400	0.621200	0.354800	0.455953
C144	C	0.174700	0.153900	0.188900	0.111912
C145	C	0.175400	0.199100	0.128200	-0.142561
C146	C	0.112300	0.240300	0.108700	0.103936
C147	C	0.051800	0.233300	0.152500	-0.121562
C148	C	0.053600	0.187500	0.212200	0.093092
C149	C	0.113400	0.291600	0.045200	-0.372290
C150	C	0.102600	0.374300	0.064800	0.011165
C151	C	0.072900	0.616100	0.752400	-0.369377
C152	C	0.990000	0.600900	0.769000	0.097280
C153	C	0.947200	0.643900	0.815100	-0.139489
C154	C	0.871900	0.626900	0.826700	0.095969
C155	C	0.953300	0.539200	0.736500	-0.161952
C156	C	0.877800	0.525700	0.750500	0.108733
C157	C	0.593800	0.700200	0.328100	0.368536
C158	C	0.661900	0.689900	0.279900	-0.062039
C159	C	0.757200	0.693800	0.155600	-0.124894
C160	C	0.691070	0.651500	0.155080	0.108874
C161	C	0.677800	0.604900	0.096000	-0.060954
C162	C	0.605200	0.578500	0.228200	0.016313
C163	C	0.535700	0.559800	0.183200	0.433931
C164	C	0.808300	0.691100	0.098500	0.055438
C165	C	0.793400	0.646100	0.038900	-0.085814
C166	C	0.726900	0.602800	0.037820	0.046339
C167	C	0.706200	0.552800	0.974200	0.477999
C168	C	0.878800	0.737400	0.104800	0.455953
C169	C	0.346100	0.674700	0.938900	0.111912
C170	C	0.300900	0.675400	0.878200	-0.142561
C171	C	0.259700	0.612300	0.858700	0.103936
C172	C	0.266700	0.551800	0.902500	-0.121562
C173	C	0.312500	0.553600	0.962200	0.093092
C174	C	0.208400	0.613400	0.795200	-0.372290
C175	C	0.125700	0.602600	0.814800	0.011165
C176	C	0.927100	0.383900	0.252400	-0.369377
C177	C	0.010000	0.399100	0.269000	0.097280
C178	C	0.052800	0.356100	0.315100	-0.139489
C179	C	0.128100	0.373100	0.326700	0.095969
C180	C	0.046700	0.460800	0.236500	-0.161952
C181	C	0.122200	0.474300	0.250500	0.108733
C182	C	0.406200	0.299800	0.828100	0.368536
C183	C	0.338100	0.310100	0.779900	-0.062039
C184	C	0.242800	0.306200	0.655600	-0.124894
C185	C	0.308930	0.348500	0.655080	0.108874
C186	C	0.322200	0.395100	0.596000	-0.060954
C187	C	0.394800	0.421500	0.728200	0.016313
C188	C	0.464300	0.440200	0.683200	0.433931
C189	C	0.191700	0.308900	0.598500	0.055438
C190	C	0.206600	0.353900	0.538900	-0.085814
C191	C	0.273100	0.397200	0.537820	0.046339
C192	C	0.293800	0.447200	0.474200	0.477999
C193	C	0.121200	0.262600	0.604800	0.455953
C194	C	0.653900	0.325300	0.438900	0.111912
C195	C	0.699100	0.324600	0.378200	-0.142561
C196	C	0.740300	0.387700	0.358700	0.103936
C197	C	0.733300	0.448200	0.402500	-0.121562
C198	C	0.687500	0.446400	0.462200	0.093092
C199	C	0.791600	0.386600	0.295200	-0.372290
C200	C	0.874300	0.397400	0.314800	0.011165
N1	N	0.569300	0.836700	0.206070	-0.385745
N2	N	0.613900	0.352400	0.018950	-0.419996
N3	N	0.654690	0.636590	0.787930	-0.399632
N4	N	0.430700	0.163300	0.706070	-0.385745
N5	N	0.386100	0.647600	0.518950	-0.419996
N6	N	0.345310	0.363410	0.287930	-0.399632
N7	N	0.663300	0.069300	0.956070	-0.385745
N8	N	0.147600	0.113900	0.768950	-0.419996
N9	N	0.863410	0.154690	0.537930	-0.399632
N10	N	0.336700	0.930700	0.456070	-0.385745
N11	N	0.852400	0.886100	0.268950	-0.419996
N12	N	0.136590	0.845310	0.037930	-0.399632
N13	N	0.930700	0.336700	0.543930	-0.385745
N14	N	0.886100	0.852400	0.731050	-0.419996
N15	N	0.845310	0.136590	0.962070	-0.399632
N16	N	0.069300	0.663300	0.043930	-0.385745
N17	N	0.113900	0.147600	0.231050	-0.419996
N18	N	0.154690	0.863410	0.462070	-0.399632
N19	N	0.836700	0.569300	0.793930	-0.385745
N20	N	0.352400	0.613900	0.981050	-0.419996
N21	N	0.636590	0.654690	0.212070	-0.399632
N22	N	0.163300	0.430700	0.293930	-0.385745
N23	N	0.647600	0.386100	0.481050	-0.419996
N24	N	0.363410	0.345310	0.712070	-0.399632
O1	O	0.698500	0.601800	0.606710	-0.377469
O2	O	0.710520	0.529650	0.703100	-0.512911
O3	O	0.493430	0.523430	0.831250	-0.364805
O4	O	0.616110	0.494580	0.836300	-0.716124
O5	O	0.737800	0.924830	0.946180	-0.558850
O6	O	0.772630	0.887690	0.837540	-0.614708
O7	O	0.509100	0.651160	0.015230	-0.586784
O8	O	0.560590	0.743500	0.082340	-0.616055
O9	O	0.301500	0.398200	0.106710	-0.377469
O10	O	0.289480	0.470350	0.203100	-0.512911
O11	O	0.506570	0.476570	0.331250	-0.364805
O12	O	0.383890	0.505420	0.336300	-0.716124
O13	O	0.262200	0.075170	0.446180	-0.558850
O14	O	0.227370	0.112310	0.337540	-0.614708
O15	O	0.490900	0.348840	0.515230	-0.586784
O16	O	0.439410	0.256500	0.582340	-0.616055
O17	O	0.898200	0.198500	0.356710	-0.377469
O18	O	0.970350	0.210520	0.453100	-0.512911
O19	O	0.976570	0.993430	0.581250	-0.364805
O20	O	0.005420	0.116110	0.586300	-0.716124
O21	O	0.575170	0.237800	0.696180	-0.558850
O22	O	0.612310	0.272630	0.587540	-0.614708
O23	O	0.848840	0.009100	0.765230	-0.586784
O24	O	0.756500	0.060590	0.832340	-0.616055
O25	O	0.101800	0.801500	0.856710	-0.377469
O26	O	0.029650	0.789480	0.953100	-0.512911
O27	O	0.023430	0.006570	0.081250	-0.364805
O28	O	0.994580	0.883890	0.086300	-0.716124
O29	O	0.424830	0.762200	0.196180	-0.558850
O30	O	0.387690	0.727370	0.087540	-0.614708
O31	O	0.151160	0.990900	0.265230	-0.586784
O32	O	0.243500	0.939410	0.332340	-0.616055
O33	O	0.801500	0.101800	0.143290	-0.377469
O34	O	0.789480	0.029650	0.046900	-0.512911
O35	O	0.006570	0.023430	0.918750	-0.364805
O36	O	0.883890	0.994580	0.913700	-0.716124
O37	O	0.762200	0.424830	0.803820	-0.558850
O38	O	0.727370	0.387690	0.912460	-0.614708
O39	O	0.990900	0.151160	0.734770	-0.586784
O40	O	0.939410	0.243500	0.667660	-0.616055
O41	O	0.198500	0.898200	0.643290	-0.377469
O42	O	0.210520	0.970350	0.546900	-0.512911
O43	O	0.993430	0.976570	0.418750	-0.364805
O44	O	0.116110	0.005420	0.413700	-0.716124
O45	O	0.237800	0.575170	0.303820	-0.558850
O46	O	0.272630	0.612310	0.412460	-0.614708
O47	O	0.009100	0.848840	0.234770	-0.586784
O48	O	0.060590	0.756500	0.167660	-0.616055
O49	O	0.601800	0.698500	0.393290	-0.377469
O50	O	0.529650	0.710520	0.296900	-0.512911
O51	O	0.523430	0.493430	0.168750	-0.364805
O52	O	0.494580	0.616110	0.163700	-0.716124
O53	O	0.924830	0.737800	0.053820	-0.558850
O54	O	0.887690	0.772630	0.162460	-0.614708
O55	O	0.651160	0.509100	0.984770	-0.586784
O56	O	0.743500	0.560590	0.917660	-0.616055
O57	O	0.398200	0.301500	0.893290	-0.377469
O58	O	0.470350	0.289480	0.796900	-0.512911
O59	O	0.476570	0.506570	0.668750	-0.364805
O60	O	0.505420	0.383890	0.663700	-0.716124
O61	O	0.075170	0.262200	0.553820	-0.558850
O62	O	0.112310	0.227370	0.662460	-0.614708
O63	O	0.348840	0.490900	0.484770	-0.586784
O64	O	0.256500	0.439410	0.417660	-0.616055
