data_PEDMOB_clean_PM
_symmetry_space_group_name_H-M	'P1'
_cell_length_a	7.917200
_cell_length_b	17.776800
_cell_length_c	20.385400
_cell_angle_alpha	90.000000
_cell_angle_beta	90.000000
_cell_angle_gamma	90.000000
_symmetry_Int_Tables_number 1

loop_
_symmetry_equiv_pos_as_xyz
'x,y,z'

loop_
_atom_site_label
_atom_site_type_symbol
_atom_site_fract_x
_atom_site_fract_y
_atom_site_fract_z
_atom_site_charge
Cu1	Cu	0.330310	0.893780	0.951390	1.194127
Cu2	Cu	0.669690	0.893780	0.048610	1.194127
Cu3	Cu	0.830310	0.106220	0.548610	1.194127
Cu4	Cu	0.169690	0.106220	0.451390	1.194127
Cu5	Cu	0.669690	0.106220	0.048610	1.194127
Cu6	Cu	0.330310	0.106220	0.951390	1.194127
Cu7	Cu	0.169690	0.893780	0.451390	1.194127
Cu8	Cu	0.830310	0.893780	0.548610	1.194127
P1	P	0.271120	0.844860	0.800650	0.908822
P2	P	0.728880	0.844860	0.199350	0.908822
P3	P	0.771120	0.155140	0.699350	0.908822
P4	P	0.228880	0.155140	0.300650	0.908822
P5	P	0.728880	0.155140	0.199350	0.908822
P6	P	0.271120	0.155140	0.800650	0.908822
P7	P	0.228880	0.844860	0.300650	0.908822
P8	P	0.771120	0.844860	0.699350	0.908822
P9	P	0.119700	0.000000	0.571550	1.068658
P10	P	0.880300	0.000000	0.428450	1.068658
P11	P	0.619700	0.000000	0.928450	1.068658
P12	P	0.380300	0.000000	0.071550	1.068658
H1	H	0.029100	0.812400	0.789700	0.410055
H2	H	0.196100	0.885600	0.665800	0.137613
H3	H	0.261700	0.612500	0.933300	0.096574
H4	H	0.075900	0.703800	0.100100	0.119975
H5	H	0.107900	0.567300	0.092000	0.137072
H6	H	0.966100	0.569700	0.039700	0.147727
H7	H	0.304500	0.731000	0.897000	0.134459
H8	H	0.201000	0.818000	0.068000	0.131485
H9	H	0.970900	0.812400	0.210300	0.410055
H10	H	0.803900	0.885600	0.334200	0.137613
H11	H	0.738300	0.612500	0.066700	0.096574
H12	H	0.924100	0.703800	0.899900	0.119975
H13	H	0.892100	0.567300	0.908000	0.137072
H14	H	0.033900	0.569700	0.960300	0.147727
H15	H	0.695500	0.731000	0.103000	0.134459
H16	H	0.799000	0.818000	0.932000	0.131485
H17	H	0.529100	0.187600	0.710300	0.410055
H18	H	0.696100	0.114400	0.834200	0.137613
H19	H	0.761700	0.387500	0.566700	0.096574
H20	H	0.575900	0.296200	0.399900	0.119975
H21	H	0.607900	0.432700	0.408000	0.137072
H22	H	0.466100	0.430300	0.460300	0.147727
H23	H	0.804500	0.269000	0.603000	0.134459
H24	H	0.701000	0.182000	0.432000	0.131485
H25	H	0.470900	0.187600	0.289700	0.410055
H26	H	0.303900	0.114400	0.165800	0.137613
H27	H	0.238300	0.387500	0.433300	0.096574
H28	H	0.424100	0.296200	0.600100	0.119975
H29	H	0.392100	0.432700	0.592000	0.137072
H30	H	0.533900	0.430300	0.539700	0.147727
H31	H	0.195500	0.269000	0.397000	0.134459
H32	H	0.299000	0.182000	0.568000	0.131485
H33	H	0.970900	0.187600	0.210300	0.410055
H34	H	0.803900	0.114400	0.334200	0.137613
H35	H	0.738300	0.387500	0.066700	0.096574
H36	H	0.924100	0.296200	0.899900	0.119975
H37	H	0.892100	0.432700	0.908000	0.137072
H38	H	0.033900	0.430300	0.960300	0.147727
H39	H	0.695500	0.269000	0.103000	0.134459
H40	H	0.799000	0.182000	0.932000	0.131485
H41	H	0.029100	0.187600	0.789700	0.410055
H42	H	0.196100	0.114400	0.665800	0.137613
H43	H	0.261700	0.387500	0.933300	0.096574
H44	H	0.075900	0.296200	0.100100	0.119975
H45	H	0.107900	0.432700	0.092000	0.137072
H46	H	0.966100	0.430300	0.039700	0.147727
H47	H	0.304500	0.269000	0.897000	0.134459
H48	H	0.201000	0.182000	0.068000	0.131485
H49	H	0.470900	0.812400	0.289700	0.410055
H50	H	0.303900	0.885600	0.165800	0.137613
H51	H	0.238300	0.612500	0.433300	0.096574
H52	H	0.424100	0.703800	0.600100	0.119975
H53	H	0.392100	0.567300	0.592000	0.137072
H54	H	0.533900	0.569700	0.539700	0.147727
H55	H	0.195500	0.731000	0.397000	0.134459
H56	H	0.299000	0.818000	0.568000	0.131485
H57	H	0.529100	0.812400	0.710300	0.410055
H58	H	0.696100	0.885600	0.834200	0.137613
H59	H	0.761700	0.612500	0.566700	0.096574
H60	H	0.575900	0.703800	0.399900	0.119975
H61	H	0.607900	0.567300	0.408000	0.137072
H62	H	0.466100	0.569700	0.460300	0.147727
H63	H	0.804500	0.731000	0.603000	0.134459
H64	H	0.701000	0.818000	0.432000	0.131485
H65	H	0.309000	0.000000	0.826000	0.153187
H66	H	0.691000	0.000000	0.174000	0.153187
H67	H	0.809000	0.000000	0.674000	0.153187
H68	H	0.191000	0.000000	0.326000	0.153187
C1	C	0.248400	0.931900	0.755900	0.001322
C2	C	0.208300	0.932300	0.689000	-0.058397
C3	C	0.235000	0.654600	0.960900	-0.152003
C4	C	0.156600	0.644100	0.020300	0.085175
C5	C	0.140000	0.706700	0.060200	-0.074654
C6	C	0.086000	0.570200	0.045700	-0.354308
C7	C	0.283000	0.722600	0.942700	0.113549
C8	C	0.220500	0.776000	0.042600	0.104270
C9	C	0.751600	0.931900	0.244100	0.001322
C10	C	0.791700	0.932300	0.311000	-0.058397
C11	C	0.765000	0.654600	0.039100	-0.152003
C12	C	0.843400	0.644100	0.979700	0.085175
C13	C	0.860000	0.706700	0.939800	-0.074654
C14	C	0.914000	0.570200	0.954300	-0.354308
C15	C	0.717000	0.722600	0.057300	0.113549
C16	C	0.779500	0.776000	0.957400	0.104270
C17	C	0.748400	0.068100	0.744100	0.001322
C18	C	0.708300	0.067700	0.811000	-0.058397
C19	C	0.735000	0.345400	0.539100	-0.152003
C20	C	0.656600	0.355900	0.479700	0.085175
C21	C	0.640000	0.293300	0.439800	-0.074654
C22	C	0.586000	0.429800	0.454300	-0.354308
C23	C	0.783000	0.277400	0.557300	0.113549
C24	C	0.720500	0.224000	0.457400	0.104270
C25	C	0.251600	0.068100	0.255900	0.001322
C26	C	0.291700	0.067700	0.189000	-0.058397
C27	C	0.265000	0.345400	0.460900	-0.152003
C28	C	0.343400	0.355900	0.520300	0.085175
C29	C	0.360000	0.293300	0.560200	-0.074654
C30	C	0.414000	0.429800	0.545700	-0.354308
C31	C	0.217000	0.277400	0.442700	0.113549
C32	C	0.279500	0.224000	0.542600	0.104270
C33	C	0.751600	0.068100	0.244100	0.001322
C34	C	0.791700	0.067700	0.311000	-0.058397
C35	C	0.765000	0.345400	0.039100	-0.152003
C36	C	0.843400	0.355900	0.979700	0.085175
C37	C	0.860000	0.293300	0.939800	-0.074654
C38	C	0.914000	0.429800	0.954300	-0.354308
C39	C	0.717000	0.277400	0.057300	0.113549
C40	C	0.779500	0.224000	0.957400	0.104270
C41	C	0.248400	0.068100	0.755900	0.001322
C42	C	0.208300	0.067700	0.689000	-0.058397
C43	C	0.235000	0.345400	0.960900	-0.152003
C44	C	0.156600	0.355900	0.020300	0.085175
C45	C	0.140000	0.293300	0.060200	-0.074654
C46	C	0.086000	0.429800	0.045700	-0.354308
C47	C	0.283000	0.277400	0.942700	0.113549
C48	C	0.220500	0.224000	0.042600	0.104270
C49	C	0.251600	0.931900	0.255900	0.001322
C50	C	0.291700	0.932300	0.189000	-0.058397
C51	C	0.265000	0.654600	0.460900	-0.152003
C52	C	0.343400	0.644100	0.520300	0.085175
C53	C	0.360000	0.706700	0.560200	-0.074654
C54	C	0.414000	0.570200	0.545700	-0.354308
C55	C	0.217000	0.722600	0.442700	0.113549
C56	C	0.279500	0.776000	0.542600	0.104270
C57	C	0.748400	0.931900	0.744100	0.001322
C58	C	0.708300	0.932300	0.811000	-0.058397
C59	C	0.735000	0.654600	0.539100	-0.152003
C60	C	0.656600	0.644100	0.479700	0.085175
C61	C	0.640000	0.706700	0.439800	-0.074654
C62	C	0.586000	0.570200	0.454300	-0.354308
C63	C	0.783000	0.722600	0.557300	0.113549
C64	C	0.720500	0.776000	0.457400	0.104270
C65	C	0.268000	0.000000	0.788500	-0.138980
C66	C	0.186700	0.000000	0.656100	0.021299
C67	C	0.732000	0.000000	0.211500	-0.138980
C68	C	0.813300	0.000000	0.343900	0.021299
C69	C	0.768000	0.000000	0.711500	-0.138980
C70	C	0.686700	0.000000	0.843900	0.021299
C71	C	0.232000	0.000000	0.288500	-0.138980
C72	C	0.313300	0.000000	0.156100	0.021299
C73	C	0.161000	0.500000	0.012100	0.064542
C74	C	0.839000	0.500000	0.987900	0.064542
C75	C	0.661000	0.500000	0.487900	0.064542
C76	C	0.339000	0.500000	0.512100	0.064542
N1	N	0.289600	0.787500	0.983000	-0.423833
N2	N	0.710400	0.787500	0.017000	-0.423833
N3	N	0.789600	0.212500	0.517000	-0.423833
N4	N	0.210400	0.212500	0.483000	-0.423833
N5	N	0.710400	0.212500	0.017000	-0.423833
N6	N	0.289600	0.212500	0.983000	-0.423833
N7	N	0.210400	0.787500	0.483000	-0.423833
N8	N	0.789600	0.787500	0.517000	-0.423833
O1	O	0.369200	0.860970	0.862860	-0.741939
O2	O	0.088400	0.821650	0.822900	-0.791572
O3	O	0.349500	0.786600	0.756350	-0.452518
O4	O	0.183000	0.072300	0.541290	-0.825178
O5	O	0.630800	0.860970	0.137140	-0.741939
O6	O	0.911600	0.821650	0.177100	-0.791572
O7	O	0.650500	0.786600	0.243650	-0.452518
O8	O	0.817000	0.072300	0.458710	-0.825178
O9	O	0.869200	0.139030	0.637140	-0.741939
O10	O	0.588400	0.178350	0.677100	-0.791572
O11	O	0.849500	0.213400	0.743650	-0.452518
O12	O	0.683000	0.927700	0.958710	-0.825178
O13	O	0.130800	0.139030	0.362860	-0.741939
O14	O	0.411600	0.178350	0.322900	-0.791572
O15	O	0.150500	0.213400	0.256350	-0.452518
O16	O	0.317000	0.927700	0.041290	-0.825178
O17	O	0.630800	0.139030	0.137140	-0.741939
O18	O	0.911600	0.178350	0.177100	-0.791572
O19	O	0.650500	0.213400	0.243650	-0.452518
O20	O	0.817000	0.927700	0.458710	-0.825178
O21	O	0.369200	0.139030	0.862860	-0.741939
O22	O	0.088400	0.178350	0.822900	-0.791572
O23	O	0.349500	0.213400	0.756350	-0.452518
O24	O	0.183000	0.927700	0.541290	-0.825178
O25	O	0.130800	0.860970	0.362860	-0.741939
O26	O	0.411600	0.821650	0.322900	-0.791572
O27	O	0.150500	0.786600	0.256350	-0.452518
O28	O	0.317000	0.072300	0.041290	-0.825178
O29	O	0.869200	0.860970	0.637140	-0.741939
O30	O	0.588400	0.821650	0.677100	-0.791572
O31	O	0.849500	0.786600	0.743650	-0.452518
O32	O	0.683000	0.072300	0.958710	-0.825178
O33	O	0.924400	0.000000	0.570070	-0.864353
O34	O	0.075600	0.000000	0.429930	-0.864353
O35	O	0.424400	0.000000	0.929930	-0.864353
O36	O	0.575600	0.000000	0.070070	-0.864353
