data_PEVPUD_clean_PM
_symmetry_space_group_name_H-M	'P1'
_cell_length_a	18.201600
_cell_length_b	18.201600
_cell_length_c	18.201600
_cell_angle_alpha	60.000000
_cell_angle_beta	60.000000
_cell_angle_gamma	60.000001
_symmetry_Int_Tables_number 1

loop_
_symmetry_equiv_pos_as_xyz
'x,y,z'

loop_
_atom_site_label
_atom_site_type_symbol
_atom_site_fract_x
_atom_site_fract_y
_atom_site_fract_z
_atom_site_charge
Zn1	Zn	0.543380	0.369860	0.543380	-4.930980
Zn2	Zn	0.369860	0.543380	0.543380	-4.930980
Zn3	Zn	0.543380	0.543380	0.543380	-4.930983
Zn4	Zn	0.543380	0.543380	0.369860	-4.930975
Zn5	Zn	0.130290	0.956570	0.956570	-3.415233
Zn6	Zn	0.956570	0.130290	0.956570	-3.415233
Zn7	Zn	0.956570	0.956570	0.130290	-3.415231
Zn8	Zn	0.956570	0.956570	0.956570	-3.415229
H1	H	0.314800	0.096800	0.794200	0.217016
H2	H	0.096800	0.314800	0.794200	0.217016
H3	H	0.794200	0.794200	0.314800	0.217013
H4	H	0.794200	0.794200	0.096800	0.217015
H5	H	0.314800	0.794200	0.794200	0.217013
H6	H	0.096800	0.794200	0.794200	0.217015
H7	H	0.794200	0.314800	0.096800	0.217016
H8	H	0.794200	0.096800	0.314800	0.217016
H9	H	0.314800	0.794200	0.096800	0.217016
H10	H	0.096800	0.794200	0.314800	0.217016
H11	H	0.794200	0.096800	0.794200	0.217015
H12	H	0.794200	0.314800	0.794200	0.217013
C1	C	0.330500	0.212500	0.728500	0.510439
C2	C	0.288100	0.158900	0.776500	0.018825
C3	C	0.212500	0.330500	0.728500	0.510439
C4	C	0.158900	0.288100	0.776500	0.018825
C5	C	0.728500	0.728500	0.330500	0.510442
C6	C	0.776500	0.776500	0.288100	0.018821
C7	C	0.728500	0.728500	0.212500	0.510440
C8	C	0.776500	0.776500	0.158900	0.018824
C9	C	0.330500	0.728500	0.728500	0.510442
C10	C	0.288100	0.776500	0.776500	0.018821
C11	C	0.212500	0.728500	0.728500	0.510440
C12	C	0.158900	0.776500	0.776500	0.018824
C13	C	0.728500	0.330500	0.212500	0.510439
C14	C	0.776500	0.288100	0.158900	0.018824
C15	C	0.728500	0.212500	0.330500	0.510439
C16	C	0.776500	0.158900	0.288100	0.018825
C17	C	0.330500	0.728500	0.212500	0.510439
C18	C	0.288100	0.776500	0.158900	0.018824
C19	C	0.212500	0.728500	0.330500	0.510439
C20	C	0.158900	0.776500	0.288100	0.018825
C21	C	0.728500	0.212500	0.728500	0.510440
C22	C	0.776500	0.158900	0.776500	0.018824
C23	C	0.728500	0.330500	0.728500	0.510442
C24	C	0.776500	0.288100	0.776500	0.018821
C25	C	0.304900	0.304900	0.695100	1.400594
C26	C	0.200700	0.200700	0.799300	-0.160775
C27	C	0.139300	0.139300	0.860700	0.603718
C28	C	0.361700	0.361700	0.638300	-4.892066
C29	C	0.695100	0.695100	0.304900	1.400594
C30	C	0.799300	0.799300	0.200700	-0.160772
C31	C	0.860700	0.860700	0.139300	0.603722
C32	C	0.638300	0.638300	0.361700	-4.892069
C33	C	0.304900	0.695100	0.695100	1.400594
C34	C	0.200700	0.799300	0.799300	-0.160771
C35	C	0.139300	0.860700	0.860700	0.603722
C36	C	0.361700	0.638300	0.638300	-4.892071
C37	C	0.695100	0.304900	0.304900	1.400593
C38	C	0.799300	0.200700	0.200700	-0.160774
C39	C	0.860700	0.139300	0.139300	0.603718
C40	C	0.638300	0.361700	0.361700	-4.892064
C41	C	0.304900	0.695100	0.304900	1.400593
C42	C	0.200700	0.799300	0.200700	-0.160774
C43	C	0.139300	0.860700	0.139300	0.603718
C44	C	0.361700	0.638300	0.361700	-4.892064
C45	C	0.695100	0.304900	0.695100	1.400594
C46	C	0.799300	0.200700	0.799300	-0.160771
C47	C	0.860700	0.139300	0.860700	0.603722
C48	C	0.638300	0.361700	0.638300	-4.892071
O1	O	0.178500	0.051700	0.884900	0.649037
O2	O	0.441500	0.324700	0.616900	2.170422
O3	O	0.051700	0.178500	0.884900	0.649037
O4	O	0.324700	0.441500	0.616900	2.170422
O5	O	0.884900	0.884900	0.178500	0.649034
O6	O	0.616900	0.616900	0.441500	2.170424
O7	O	0.884900	0.884900	0.051700	0.649036
O8	O	0.616900	0.616900	0.324700	2.170422
O9	O	0.178500	0.884900	0.884900	0.649035
O10	O	0.441500	0.616900	0.616900	2.170424
O11	O	0.051700	0.884900	0.884900	0.649036
O12	O	0.324700	0.616900	0.616900	2.170423
O13	O	0.884900	0.178500	0.051700	0.649036
O14	O	0.616900	0.441500	0.324700	2.170421
O15	O	0.884900	0.051700	0.178500	0.649036
O16	O	0.616900	0.324700	0.441500	2.170422
O17	O	0.178500	0.884900	0.051700	0.649036
O18	O	0.441500	0.616900	0.324700	2.170421
O19	O	0.051700	0.884900	0.178500	0.649036
O20	O	0.324700	0.616900	0.441500	2.170422
O21	O	0.884900	0.051700	0.884900	0.649036
O22	O	0.616900	0.324700	0.616900	2.170423
O23	O	0.884900	0.178500	0.884900	0.649035
O24	O	0.616900	0.441500	0.616900	2.170424
O25	O	0.000000	0.000000	0.000000	1.977309
O26	O	0.500000	0.500000	0.500000	6.909845
