data_PURQEZ_clean_PM
_symmetry_space_group_name_H-M	'P1'
_cell_length_a	8.940000
_cell_length_b	12.479999
_cell_length_c	14.020000
_cell_angle_alpha	90.000000
_cell_angle_beta	90.000000
_cell_angle_gamma	91.729999
_symmetry_Int_Tables_number 1

loop_
_symmetry_equiv_pos_as_xyz
'x,y,z'

loop_
_atom_site_label
_atom_site_type_symbol
_atom_site_fract_x
_atom_site_fract_y
_atom_site_fract_z
_atom_site_charge
Zn1	Zn	0.750000	0.250000	0.326330	1.149379
Zn2	Zn	0.750000	0.250000	0.838740	1.157304
Zn3	Zn	0.250000	0.750000	0.673670	1.149379
Zn4	Zn	0.250000	0.750000	0.161260	1.157304
H1	H	0.441000	0.464600	0.152500	0.146932
H2	H	0.451100	0.355700	0.093900	0.151810
H3	H	0.622200	0.546800	0.055600	0.133313
H4	H	0.025800	0.497600	0.662200	0.154081
H5	H	0.064800	0.380700	0.624700	0.158336
H6	H	0.849100	0.508700	0.532600	0.145080
H7	H	0.059000	0.035400	0.152500	0.146932
H8	H	0.048900	0.144300	0.093900	0.151810
H9	H	0.877800	0.953200	0.055600	0.133313
H10	H	0.474200	0.002400	0.662200	0.154081
H11	H	0.435200	0.119300	0.624700	0.158336
H12	H	0.650900	0.991300	0.532600	0.145080
H13	H	0.559000	0.535400	0.847500	0.146932
H14	H	0.548900	0.644300	0.906100	0.151810
H15	H	0.377800	0.453200	0.944400	0.133313
H16	H	0.974200	0.502400	0.337800	0.154081
H17	H	0.935200	0.619300	0.375300	0.158336
H18	H	0.150900	0.491300	0.467400	0.145080
H19	H	0.941000	0.964600	0.847500	0.146932
H20	H	0.951100	0.855700	0.906100	0.151810
H21	H	0.122200	0.046800	0.944400	0.133313
H22	H	0.525800	0.997600	0.337800	0.154081
H23	H	0.564800	0.880700	0.375300	0.158336
H24	H	0.349100	0.008700	0.467400	0.145080
C1	C	0.624300	0.378300	0.188300	0.375678
C2	C	0.510500	0.418500	0.117500	-0.160825
C3	C	0.568200	0.481000	0.031300	-0.014295
C4	C	0.681200	0.416800	0.973300	0.339774
C5	C	0.853900	0.384900	0.687200	0.372566
C6	C	0.984600	0.433600	0.628400	-0.141486
C7	C	0.941600	0.465800	0.527700	-0.038998
C8	C	0.904200	0.370500	0.467200	0.345009
C9	C	0.875700	0.121700	0.188300	0.375678
C10	C	0.989500	0.081500	0.117500	-0.160825
C11	C	0.931800	0.019000	0.031300	-0.014295
C12	C	0.818800	0.083200	0.973300	0.339774
C13	C	0.646100	0.115100	0.687200	0.372566
C14	C	0.515400	0.066400	0.628400	-0.141486
C15	C	0.558400	0.034200	0.527700	-0.038998
C16	C	0.595800	0.129500	0.467200	0.345009
C17	C	0.375700	0.621700	0.811700	0.375678
C18	C	0.489500	0.581500	0.882500	-0.160825
C19	C	0.431800	0.519000	0.968700	-0.014295
C20	C	0.318800	0.583200	0.026700	0.339774
C21	C	0.146100	0.615100	0.312800	0.372566
C22	C	0.015400	0.566400	0.371600	-0.141486
C23	C	0.058400	0.534200	0.472300	-0.038998
C24	C	0.095800	0.629500	0.532800	0.345009
C25	C	0.124300	0.878300	0.811700	0.375678
C26	C	0.010500	0.918500	0.882500	-0.160825
C27	C	0.068200	0.981000	0.968700	-0.014295
C28	C	0.181200	0.916800	0.026700	0.339774
C29	C	0.353900	0.884900	0.312800	0.372566
C30	C	0.484600	0.933600	0.371600	-0.141486
C31	C	0.441600	0.965800	0.472300	-0.038998
C32	C	0.404200	0.870500	0.532800	0.345009
O1	O	0.584800	0.303100	0.245400	-0.516932
O2	O	0.814200	0.439400	0.973700	-0.223864
O3	O	0.622700	0.336600	0.922300	-0.545160
O4	O	0.899600	0.335300	0.769200	-0.500095
O5	O	0.726600	0.393200	0.668300	-0.289426
O6	O	0.784500	0.372000	0.414600	-0.514610
O7	O	0.988800	0.293400	0.462500	-0.265222
O8	O	0.755000	0.425200	0.193400	-0.265005
O9	O	0.915200	0.196900	0.245400	-0.516932
O10	O	0.685800	0.060600	0.973700	-0.223864
O11	O	0.877300	0.163400	0.922300	-0.545160
O12	O	0.600400	0.164700	0.769200	-0.500095
O13	O	0.773400	0.106800	0.668300	-0.289426
O14	O	0.715500	0.128000	0.414600	-0.514610
O15	O	0.511200	0.206600	0.462500	-0.265222
O16	O	0.745000	0.074800	0.193400	-0.265005
O17	O	0.415200	0.696900	0.754600	-0.516932
O18	O	0.185800	0.560600	0.026300	-0.223864
O19	O	0.377300	0.663400	0.077700	-0.545160
O20	O	0.100400	0.664700	0.230800	-0.500095
O21	O	0.273400	0.606800	0.331700	-0.289426
O22	O	0.215500	0.628000	0.585400	-0.514610
O23	O	0.011200	0.706600	0.537500	-0.265222
O24	O	0.245000	0.574800	0.806600	-0.265005
O25	O	0.084800	0.803100	0.754600	-0.516932
O26	O	0.314200	0.939400	0.026300	-0.223864
O27	O	0.122700	0.836600	0.077700	-0.545160
O28	O	0.399600	0.835300	0.230800	-0.500095
O29	O	0.226600	0.893200	0.331700	-0.289426
O30	O	0.284500	0.872000	0.585400	-0.514610
O31	O	0.488800	0.793400	0.537500	-0.265222
O32	O	0.255000	0.925200	0.806600	-0.265005
