data_QUQFIS_clean_PM
_symmetry_space_group_name_H-M	'P1'
_cell_length_a	18.590000
_cell_length_b	18.590000
_cell_length_c	18.590000
_cell_angle_alpha	74.876500
_cell_angle_beta	74.876499
_cell_angle_gamma	74.876501
_symmetry_Int_Tables_number 1

loop_
_symmetry_equiv_pos_as_xyz
'x,y,z'

loop_
_atom_site_label
_atom_site_type_symbol
_atom_site_fract_x
_atom_site_fract_y
_atom_site_fract_z
_atom_site_charge
Zn1	Zn	0.502420	0.298420	0.080570	0.982802
Zn2	Zn	0.598890	0.267730	0.909700	1.173751
Zn3	Zn	0.080570	0.502420	0.298420	0.982802
Zn4	Zn	0.909700	0.598890	0.267730	1.173751
Zn5	Zn	0.298420	0.080570	0.502420	0.982802
Zn6	Zn	0.267730	0.909700	0.598890	1.173751
Zn7	Zn	0.798420	0.002420	0.580570	0.982802
Zn8	Zn	0.767730	0.098890	0.409700	1.173751
Zn9	Zn	0.002420	0.580570	0.798420	0.982802
Zn10	Zn	0.098890	0.409700	0.767730	1.173751
Zn11	Zn	0.580570	0.798420	0.002420	0.982802
Zn12	Zn	0.409700	0.767730	0.098890	1.173751
H1	H	0.498600	0.528600	0.022000	0.137930
H2	H	0.566500	0.710700	0.868600	0.103708
H3	H	0.630000	0.503000	0.815700	0.129333
H4	H	0.561600	0.744500	0.737700	0.108507
H5	H	0.686200	0.193500	0.181800	0.136202
H6	H	0.875900	0.028300	0.177100	0.124931
H7	H	0.802700	0.133600	0.980900	0.131994
H8	H	0.933600	0.112200	0.931700	0.107180
H9	H	0.022000	0.498600	0.528600	0.137930
H10	H	0.868600	0.566500	0.710700	0.103708
H11	H	0.815700	0.630000	0.503000	0.129333
H12	H	0.737700	0.561600	0.744500	0.108507
H13	H	0.181800	0.686200	0.193500	0.136202
H14	H	0.177100	0.875900	0.028300	0.124931
H15	H	0.980900	0.802700	0.133600	0.131994
H16	H	0.931700	0.933600	0.112200	0.107180
H17	H	0.528600	0.022000	0.498600	0.137930
H18	H	0.710700	0.868600	0.566500	0.103708
H19	H	0.503000	0.815700	0.630000	0.129333
H20	H	0.744500	0.737700	0.561600	0.108507
H21	H	0.193500	0.181800	0.686200	0.136202
H22	H	0.028300	0.177100	0.875900	0.124931
H23	H	0.133600	0.980900	0.802700	0.131994
H24	H	0.112200	0.931700	0.933600	0.107180
H25	H	0.028600	0.998600	0.522000	0.137930
H26	H	0.210700	0.066500	0.368600	0.103708
H27	H	0.003000	0.130000	0.315700	0.129333
H28	H	0.244500	0.061600	0.237700	0.108507
H29	H	0.693500	0.186200	0.681800	0.136202
H30	H	0.528300	0.375900	0.677100	0.124931
H31	H	0.633600	0.302700	0.480900	0.131994
H32	H	0.612200	0.433600	0.431700	0.107180
H33	H	0.998600	0.522000	0.028600	0.137930
H34	H	0.066500	0.368600	0.210700	0.103708
H35	H	0.130000	0.315700	0.003000	0.129333
H36	H	0.061600	0.237700	0.244500	0.108507
H37	H	0.186200	0.681800	0.693500	0.136202
H38	H	0.375900	0.677100	0.528300	0.124931
H39	H	0.302700	0.480900	0.633600	0.131994
H40	H	0.433600	0.431700	0.612200	0.107180
H41	H	0.522000	0.028600	0.998600	0.137930
H42	H	0.368600	0.210700	0.066500	0.103708
H43	H	0.315700	0.003000	0.130000	0.129333
H44	H	0.237700	0.244500	0.061600	0.108507
H45	H	0.681800	0.693500	0.186200	0.136202
H46	H	0.677100	0.528300	0.375900	0.124931
H47	H	0.480900	0.633600	0.302700	0.131994
H48	H	0.431700	0.612200	0.433600	0.107180
C1	C	0.559160	0.419660	0.942550	0.478971
C2	C	0.563220	0.504000	0.921650	0.057489
C3	C	0.525480	0.549970	0.973480	-0.045060
C4	C	0.526500	0.628010	0.954840	0.049792
C5	C	0.565730	0.657940	0.882230	-0.137579
C6	C	0.603060	0.612640	0.830260	0.025635
C7	C	0.602890	0.535030	0.850590	-0.081857
C8	C	0.484460	0.676220	0.011790	0.420132
C9	C	0.642830	0.647670	0.752580	0.044883
C10	C	0.610020	0.718610	0.714780	-0.149380
C11	C	0.673920	0.221010	0.035530	0.470246
C12	C	0.735260	0.168140	0.074610	0.053778
C13	C	0.727350	0.162230	0.154370	-0.039833
C14	C	0.780580	0.110440	0.190010	0.054215
C15	C	0.841190	0.065690	0.150090	-0.094649
C16	C	0.852960	0.073620	0.071740	0.020065
C17	C	0.796980	0.126840	0.034420	-0.081067
C18	C	0.922380	0.031100	0.029870	0.043099
C19	C	0.958540	0.064940	0.957440	-0.129532
C20	C	0.775210	0.100310	0.274810	0.355714
C21	C	0.942550	0.559160	0.419660	0.478971
C22	C	0.921650	0.563220	0.504000	0.057489
C23	C	0.973480	0.525480	0.549970	-0.045060
C24	C	0.954840	0.526500	0.628010	0.049792
C25	C	0.882230	0.565730	0.657940	-0.137579
C26	C	0.830260	0.603060	0.612640	0.025635
C27	C	0.850590	0.602890	0.535030	-0.081857
C28	C	0.011790	0.484460	0.676220	0.420132
C29	C	0.752580	0.642830	0.647670	0.044883
C30	C	0.714780	0.610020	0.718610	-0.149380
C31	C	0.035530	0.673920	0.221010	0.470246
C32	C	0.074610	0.735260	0.168140	0.053778
C33	C	0.154370	0.727350	0.162230	-0.039833
C34	C	0.190010	0.780580	0.110440	0.054215
C35	C	0.150090	0.841190	0.065690	-0.094649
C36	C	0.071740	0.852960	0.073620	0.020065
C37	C	0.034420	0.796980	0.126840	-0.081067
C38	C	0.029870	0.922380	0.031100	0.043099
C39	C	0.957440	0.958540	0.064940	-0.129532
C40	C	0.274810	0.775210	0.100310	0.355714
C41	C	0.419660	0.942550	0.559160	0.478971
C42	C	0.504000	0.921650	0.563220	0.057489
C43	C	0.549970	0.973480	0.525480	-0.045060
C44	C	0.628010	0.954840	0.526500	0.049792
C45	C	0.657940	0.882230	0.565730	-0.137579
C46	C	0.612640	0.830260	0.603060	0.025635
C47	C	0.535030	0.850590	0.602890	-0.081857
C48	C	0.676220	0.011790	0.484460	0.420132
C49	C	0.647670	0.752580	0.642830	0.044883
C50	C	0.718610	0.714780	0.610020	-0.149380
C51	C	0.221010	0.035530	0.673920	0.470246
C52	C	0.168140	0.074610	0.735260	0.053778
C53	C	0.162230	0.154370	0.727350	-0.039833
C54	C	0.110440	0.190010	0.780580	0.054215
C55	C	0.065690	0.150090	0.841190	-0.094649
C56	C	0.073620	0.071740	0.852960	0.020065
C57	C	0.126840	0.034420	0.796980	-0.081067
C58	C	0.031100	0.029870	0.922380	0.043099
C59	C	0.064940	0.957440	0.958540	-0.129532
C60	C	0.100310	0.274810	0.775210	0.355714
C61	C	0.919660	0.059160	0.442550	0.478971
C62	C	0.004000	0.063220	0.421650	0.057489
C63	C	0.049970	0.025480	0.473480	-0.045060
C64	C	0.128010	0.026500	0.454840	0.049792
C65	C	0.157940	0.065730	0.382230	-0.137579
C66	C	0.112640	0.103060	0.330260	0.025635
C67	C	0.035030	0.102890	0.350590	-0.081857
C68	C	0.176220	0.984460	0.511790	0.420132
C69	C	0.147670	0.142830	0.252580	0.044883
C70	C	0.218610	0.110020	0.214780	-0.149380
C71	C	0.721010	0.173920	0.535530	0.470246
C72	C	0.668140	0.235260	0.574610	0.053778
C73	C	0.662230	0.227350	0.654370	-0.039833
C74	C	0.610440	0.280580	0.690010	0.054215
C75	C	0.565690	0.341190	0.650090	-0.094649
C76	C	0.573620	0.352960	0.571740	0.020065
C77	C	0.626840	0.296980	0.534420	-0.081067
C78	C	0.531100	0.422380	0.529870	0.043099
C79	C	0.564940	0.458540	0.457440	-0.129532
C80	C	0.600310	0.275210	0.774810	0.355714
C81	C	0.059160	0.442550	0.919660	0.478971
C82	C	0.063220	0.421650	0.004000	0.057489
C83	C	0.025480	0.473480	0.049970	-0.045060
C84	C	0.026500	0.454840	0.128010	0.049792
C85	C	0.065730	0.382230	0.157940	-0.137579
C86	C	0.103060	0.330260	0.112640	0.025635
C87	C	0.102890	0.350590	0.035030	-0.081857
C88	C	0.984460	0.511790	0.176220	0.420132
C89	C	0.142830	0.252580	0.147670	0.044883
C90	C	0.110020	0.214780	0.218610	-0.149380
C91	C	0.173920	0.535530	0.721010	0.470246
C92	C	0.235260	0.574610	0.668140	0.053778
C93	C	0.227350	0.654370	0.662230	-0.039833
C94	C	0.280580	0.690010	0.610440	0.054215
C95	C	0.341190	0.650090	0.565690	-0.094649
C96	C	0.352960	0.571740	0.573620	0.020065
C97	C	0.296980	0.534420	0.626840	-0.081067
C98	C	0.422380	0.529870	0.531100	0.043099
C99	C	0.458540	0.457440	0.564940	-0.129532
C100	C	0.275210	0.774810	0.600310	0.355714
C101	C	0.442550	0.919660	0.059160	0.478971
C102	C	0.421650	0.004000	0.063220	0.057489
C103	C	0.473480	0.049970	0.025480	-0.045060
C104	C	0.454840	0.128010	0.026500	0.049792
C105	C	0.382230	0.157940	0.065730	-0.137579
C106	C	0.330260	0.112640	0.103060	0.025635
C107	C	0.350590	0.035030	0.102890	-0.081857
C108	C	0.511790	0.176220	0.984460	0.420132
C109	C	0.252580	0.147670	0.142830	0.044883
C110	C	0.214780	0.218610	0.110020	-0.149380
C111	C	0.535530	0.721010	0.173920	0.470246
C112	C	0.574610	0.668140	0.235260	0.053778
C113	C	0.654370	0.662230	0.227350	-0.039833
C114	C	0.690010	0.610440	0.280580	0.054215
C115	C	0.650090	0.565690	0.341190	-0.094649
C116	C	0.571740	0.573620	0.352960	0.020065
C117	C	0.534420	0.626840	0.296980	-0.081067
C118	C	0.529870	0.531100	0.422380	0.043099
C119	C	0.457440	0.564940	0.458540	-0.129532
C120	C	0.774810	0.600310	0.275210	0.355714
O1	O	0.599130	0.379080	0.896360	-0.544350
O2	O	0.514100	0.398930	0.003090	-0.637290
O3	O	0.441390	0.648700	0.070740	-0.418036
O4	O	0.491620	0.744900	0.000180	-0.768687
O5	O	0.744530	0.157910	0.304920	-0.479197
O6	O	0.802170	0.037390	0.311610	-0.405712
O7	O	0.682620	0.221050	0.966130	-0.548743
O8	O	0.619640	0.259530	0.074210	-0.649384
O9	O	0.896360	0.599130	0.379080	-0.544350
O10	O	0.003090	0.514100	0.398930	-0.637290
O11	O	0.070740	0.441390	0.648700	-0.418036
O12	O	0.000180	0.491620	0.744900	-0.768687
O13	O	0.304920	0.744530	0.157910	-0.479197
O14	O	0.311610	0.802170	0.037390	-0.405712
O15	O	0.966130	0.682620	0.221050	-0.548743
O16	O	0.074210	0.619640	0.259530	-0.649384
O17	O	0.379080	0.896360	0.599130	-0.544350
O18	O	0.398930	0.003090	0.514100	-0.637290
O19	O	0.648700	0.070740	0.441390	-0.418036
O20	O	0.744900	0.000180	0.491620	-0.768687
O21	O	0.157910	0.304920	0.744530	-0.479197
O22	O	0.037390	0.311610	0.802170	-0.405712
O23	O	0.221050	0.966130	0.682620	-0.548743
O24	O	0.259530	0.074210	0.619640	-0.649384
O25	O	0.879080	0.099130	0.396360	-0.544350
O26	O	0.898930	0.014100	0.503090	-0.637290
O27	O	0.148700	0.941390	0.570740	-0.418036
O28	O	0.244900	0.991620	0.500180	-0.768687
O29	O	0.657910	0.244530	0.804920	-0.479197
O30	O	0.537390	0.302170	0.811610	-0.405712
O31	O	0.721050	0.182620	0.466130	-0.548743
O32	O	0.759530	0.119640	0.574210	-0.649384
O33	O	0.099130	0.396360	0.879080	-0.544350
O34	O	0.014100	0.503090	0.898930	-0.637290
O35	O	0.941390	0.570740	0.148700	-0.418036
O36	O	0.991620	0.500180	0.244900	-0.768687
O37	O	0.244530	0.804920	0.657910	-0.479197
O38	O	0.302170	0.811610	0.537390	-0.405712
O39	O	0.182620	0.466130	0.721050	-0.548743
O40	O	0.119640	0.574210	0.759530	-0.649384
O41	O	0.396360	0.879080	0.099130	-0.544350
O42	O	0.503090	0.898930	0.014100	-0.637290
O43	O	0.570740	0.148700	0.941390	-0.418036
O44	O	0.500180	0.244900	0.991620	-0.768687
O45	O	0.804920	0.657910	0.244530	-0.479197
O46	O	0.811610	0.537390	0.302170	-0.405712
O47	O	0.466130	0.721050	0.182620	-0.548743
O48	O	0.574210	0.759530	0.119640	-0.649384
