data_RATDAS02_clean_PM
_symmetry_space_group_name_H-M	'P1'
_cell_length_a	9.842900
_cell_length_b	11.337600
_cell_length_c	14.469300
_cell_angle_alpha	91.312501
_cell_angle_beta	90.000000
_cell_angle_gamma	90.000000
_symmetry_Int_Tables_number 1

loop_
_symmetry_equiv_pos_as_xyz
'x,y,z'

loop_
_atom_site_label
_atom_site_type_symbol
_atom_site_fract_x
_atom_site_fract_y
_atom_site_fract_z
_atom_site_charge
Zn1	Zn	0.923000	0.756620	0.131810	1.229270
Zn2	Zn	0.109770	0.740910	0.312570	1.196577
Zn3	Zn	0.423000	0.743380	0.368190	1.229270
Zn4	Zn	0.609770	0.759090	0.187430	1.196577
Zn5	Zn	0.077000	0.243380	0.868190	1.229270
Zn6	Zn	0.890230	0.259090	0.687430	1.196577
Zn7	Zn	0.577000	0.256620	0.631810	1.229270
Zn8	Zn	0.390230	0.240910	0.812570	1.196577
Zn9	Zn	0.000000	0.500000	0.000000	1.197412
Zn10	Zn	0.500000	0.000000	0.500000	1.197412
Zn11	Zn	0.000000	0.000000	0.000000	1.194761
Zn12	Zn	0.500000	0.500000	0.500000	1.194761
H1	H	0.756300	0.858700	0.367800	0.158403
H2	H	0.036800	0.477700	0.265700	0.134495
H3	H	0.618100	0.566000	0.036700	0.129691
H4	H	0.190800	0.982600	0.232600	0.134050
H5	H	0.160600	0.698300	0.927700	0.139018
H6	H	0.704600	0.991200	0.010300	0.146619
H7	H	0.256300	0.641300	0.132200	0.158403
H8	H	0.536800	0.022300	0.234300	0.134495
H9	H	0.118100	0.934000	0.463300	0.129691
H10	H	0.690800	0.517400	0.267400	0.134050
H11	H	0.660600	0.801700	0.572300	0.139018
H12	H	0.204600	0.508800	0.489700	0.146619
H13	H	0.243700	0.141300	0.632200	0.158403
H14	H	0.963200	0.522300	0.734300	0.134495
H15	H	0.381900	0.434000	0.963300	0.129691
H16	H	0.809200	0.017400	0.767400	0.134050
H17	H	0.839400	0.301700	0.072300	0.139018
H18	H	0.295400	0.008800	0.989700	0.146619
H19	H	0.743700	0.358700	0.867800	0.158403
H20	H	0.463200	0.977700	0.765700	0.134495
H21	H	0.881900	0.066000	0.536700	0.129691
H22	H	0.309200	0.482600	0.732600	0.134050
H23	H	0.339400	0.198300	0.427700	0.139018
H24	H	0.795400	0.491200	0.510300	0.146619
C1	C	0.828700	0.829560	0.330260	0.470197
C2	C	0.014900	0.519370	0.211470	0.458970
C3	C	0.712500	0.577740	0.046840	0.458164
C4	C	0.130100	0.954650	0.185950	0.452440
C5	C	0.104900	0.742940	0.969140	0.467983
C6	C	0.721700	0.929290	0.051890	0.468090
C7	C	0.328700	0.670440	0.169740	0.470197
C8	C	0.514900	0.980630	0.288530	0.458970
C9	C	0.212500	0.922260	0.453160	0.458164
C10	C	0.630100	0.545350	0.314050	0.452440
C11	C	0.604900	0.757060	0.530860	0.467983
C12	C	0.221700	0.570710	0.448110	0.468090
C13	C	0.171300	0.170440	0.669740	0.470197
C14	C	0.985100	0.480630	0.788530	0.458970
C15	C	0.287500	0.422260	0.953160	0.458164
C16	C	0.869900	0.045350	0.814050	0.452440
C17	C	0.895100	0.257060	0.030860	0.467983
C18	C	0.278300	0.070710	0.948110	0.468090
C19	C	0.671300	0.329560	0.830260	0.470197
C20	C	0.485100	0.019370	0.711470	0.458970
C21	C	0.787500	0.077740	0.546840	0.458164
C22	C	0.369900	0.454650	0.685950	0.452440
C23	C	0.395100	0.242940	0.469140	0.467983
C24	C	0.778300	0.429290	0.551890	0.468090
O1	O	0.801450	0.807330	0.245760	-0.655054
O2	O	0.940840	0.816880	0.368740	-0.549852
O3	O	0.008140	0.630450	0.219310	-0.700035
O4	O	0.995940	0.459580	0.140010	-0.509459
O5	O	0.745490	0.653020	0.109860	-0.690031
O6	O	0.790840	0.518810	0.997690	-0.529679
O7	O	0.083940	0.850950	0.195070	-0.669651
O8	O	0.104660	0.023120	0.123200	-0.498575
O9	O	0.026940	0.684550	0.023050	-0.694196
O10	O	0.114060	0.850680	0.966090	-0.522712
O11	O	0.845470	0.897590	0.060990	-0.680546
O12	O	0.622040	0.887820	0.091480	-0.540263
O13	O	0.301450	0.692670	0.254240	-0.655054
O14	O	0.440840	0.683120	0.131260	-0.549852
O15	O	0.508140	0.869550	0.280690	-0.700035
O16	O	0.495940	0.040420	0.359990	-0.509459
O17	O	0.245490	0.846980	0.390140	-0.690031
O18	O	0.290840	0.981190	0.502310	-0.529679
O19	O	0.583940	0.649050	0.304930	-0.669651
O20	O	0.604660	0.476880	0.376800	-0.498575
O21	O	0.526940	0.815450	0.476950	-0.694196
O22	O	0.614060	0.649320	0.533910	-0.522712
O23	O	0.345470	0.602410	0.439010	-0.680546
O24	O	0.122040	0.612180	0.408520	-0.540263
O25	O	0.198550	0.192670	0.754240	-0.655054
O26	O	0.059160	0.183120	0.631260	-0.549852
O27	O	0.991860	0.369550	0.780690	-0.700035
O28	O	0.004060	0.540420	0.859990	-0.509459
O29	O	0.254510	0.346980	0.890140	-0.690031
O30	O	0.209160	0.481190	0.002310	-0.529679
O31	O	0.916060	0.149050	0.804930	-0.669651
O32	O	0.895340	0.976880	0.876800	-0.498575
O33	O	0.973060	0.315450	0.976950	-0.694196
O34	O	0.885940	0.149320	0.033910	-0.522712
O35	O	0.154530	0.102410	0.939010	-0.680546
O36	O	0.377960	0.112180	0.908520	-0.540263
O37	O	0.698550	0.307330	0.745760	-0.655054
O38	O	0.559160	0.316880	0.868740	-0.549852
O39	O	0.491860	0.130450	0.719310	-0.700035
O40	O	0.504060	0.959580	0.640010	-0.509459
O41	O	0.754510	0.153020	0.609860	-0.690031
O42	O	0.709160	0.018810	0.497690	-0.529679
O43	O	0.416060	0.350950	0.695070	-0.669651
O44	O	0.395340	0.523120	0.623200	-0.498575
O45	O	0.473060	0.184550	0.523050	-0.694196
O46	O	0.385940	0.350680	0.466090	-0.522712
O47	O	0.654530	0.397590	0.560990	-0.680546
O48	O	0.877960	0.387820	0.591480	-0.540263
