data_RAZGOQ_clean_PM
_symmetry_space_group_name_H-M	'P1'
_cell_length_a	4.761100
_cell_length_b	17.666500
_cell_length_c	17.666500
_cell_angle_alpha	88.959599
_cell_angle_beta	82.255799
_cell_angle_gamma	82.255900
_symmetry_Int_Tables_number 1

loop_
_symmetry_equiv_pos_as_xyz
'x,y,z'

loop_
_atom_site_label
_atom_site_type_symbol
_atom_site_fract_x
_atom_site_fract_y
_atom_site_fract_z
_atom_site_charge
Cu1	Cu	0.972730	0.732650	0.964210	1.080926
Cu2	Cu	0.169590	0.767350	0.535790	1.080921
Cu3	Cu	0.705390	0.464210	0.267340	1.080915
Cu4	Cu	0.936930	0.035790	0.232660	1.080922
Cu5	Cu	0.027270	0.267350	0.035790	1.080926
Cu6	Cu	0.830410	0.232650	0.464210	1.080921
Cu7	Cu	0.294610	0.535790	0.732660	1.080915
Cu8	Cu	0.063070	0.964210	0.767340	1.080922
H1	H	0.353000	0.928600	0.063000	0.133533
H2	H	0.801600	0.026600	0.047000	0.119830
H3	H	0.844600	0.571400	0.437000	0.133446
H4	H	0.375200	0.473400	0.453000	0.119762
H5	H	0.281600	0.563000	0.071400	0.133500
H6	H	0.828200	0.547000	0.973400	0.119865
H7	H	0.416000	0.937000	0.428600	0.133479
H8	H	0.848600	0.953000	0.526600	0.119722
H9	H	0.647000	0.071400	0.937000	0.133533
H10	H	0.198400	0.973400	0.953000	0.119830
H11	H	0.155400	0.428600	0.563000	0.133446
H12	H	0.624800	0.526600	0.547000	0.119762
H13	H	0.718400	0.437000	0.928600	0.133500
H14	H	0.171800	0.453000	0.026600	0.119865
H15	H	0.584000	0.063000	0.571400	0.133479
H16	H	0.151400	0.047000	0.473400	0.119722
C1	C	0.743030	0.875060	0.018880	0.376127
C2	C	0.517100	0.943560	0.025440	0.006442
C3	C	0.599500	0.021830	0.048170	-0.008826
C4	C	0.439750	0.053170	0.123330	0.416844
C5	C	0.136970	0.624940	0.481120	0.376003
C6	C	0.986100	0.556440	0.474560	0.006668
C7	C	0.169500	0.478170	0.451830	-0.008803
C8	C	0.116250	0.446830	0.376670	0.416994
C9	C	0.618090	0.518880	0.124940	0.376058
C10	C	0.460660	0.525440	0.056440	0.006592
C11	C	0.621330	0.548170	0.978170	-0.008971
C12	C	0.492920	0.623330	0.946830	0.416949
C13	C	0.761910	0.981120	0.375060	0.376096
C14	C	0.542540	0.974560	0.443560	0.006526
C15	C	0.647670	0.951830	0.521830	-0.008648
C16	C	0.563080	0.876670	0.553170	0.416932
C17	C	0.256970	0.124940	0.981120	0.376127
C18	C	0.482900	0.056440	0.974560	0.006442
C19	C	0.400500	0.978170	0.951830	-0.008826
C20	C	0.560250	0.946830	0.876670	0.416844
C21	C	0.863030	0.375060	0.518880	0.376003
C22	C	0.013900	0.443560	0.525440	0.006668
C23	C	0.830500	0.521830	0.548170	-0.008803
C24	C	0.883750	0.553170	0.623330	0.416994
C25	C	0.381910	0.481120	0.875060	0.376058
C26	C	0.539340	0.474560	0.943560	0.006592
C27	C	0.378670	0.451830	0.021830	-0.008971
C28	C	0.507080	0.376670	0.053170	0.416949
C29	C	0.238090	0.018880	0.624940	0.376096
C30	C	0.457460	0.025440	0.556440	0.006526
C31	C	0.352330	0.048170	0.478170	-0.008648
C32	C	0.436920	0.123330	0.446830	0.416932
O1	O	0.930800	0.867840	0.062560	-0.412315
O2	O	0.714800	0.825570	0.969830	-0.612521
O3	O	0.555970	0.092740	0.165720	-0.417492
O4	O	0.188740	0.035330	0.138590	-0.682439
O5	O	0.361200	0.632160	0.437440	-0.412363
O6	O	0.010200	0.674430	0.530170	-0.612444
O7	O	0.314430	0.407260	0.334280	-0.417613
O8	O	0.862660	0.464670	0.361410	-0.682541
O9	O	0.798640	0.562560	0.132160	-0.412338
O10	O	0.540370	0.469830	0.174430	-0.612496
O11	O	0.648710	0.665720	0.907260	-0.417588
O12	O	0.224070	0.638590	0.964670	-0.682539
O13	O	0.993360	0.937440	0.367840	-0.412365
O14	O	0.684630	0.030170	0.325570	-0.612607
O15	O	0.721690	0.834280	0.592740	-0.417564
O16	O	0.327330	0.861410	0.535330	-0.682581
O17	O	0.069200	0.132160	0.937440	-0.412315
O18	O	0.285200	0.174430	0.030170	-0.612521
O19	O	0.444030	0.907260	0.834280	-0.417492
O20	O	0.811260	0.964670	0.861410	-0.682439
O21	O	0.638800	0.367840	0.562560	-0.412363
O22	O	0.989800	0.325570	0.469830	-0.612444
O23	O	0.685570	0.592740	0.665720	-0.417613
O24	O	0.137340	0.535330	0.638590	-0.682541
O25	O	0.201360	0.437440	0.867840	-0.412338
O26	O	0.459630	0.530170	0.825570	-0.612496
O27	O	0.351290	0.334280	0.092740	-0.417588
O28	O	0.775930	0.361410	0.035330	-0.682539
O29	O	0.006640	0.062560	0.632160	-0.412365
O30	O	0.315370	0.969830	0.674430	-0.612607
O31	O	0.278310	0.165720	0.407260	-0.417564
O32	O	0.672670	0.138590	0.464670	-0.682581
