data_RAZXIA_clean_PM
_symmetry_space_group_name_H-M	'P1'
_cell_length_a	12.906400
_cell_length_b	12.906400
_cell_length_c	17.661400
_cell_angle_alpha	111.431002
_cell_angle_beta	111.431002
_cell_angle_gamma	89.999999
_symmetry_Int_Tables_number 1

loop_
_symmetry_equiv_pos_as_xyz
'x,y,z'

loop_
_atom_site_label
_atom_site_type_symbol
_atom_site_fract_x
_atom_site_fract_y
_atom_site_fract_z
_atom_site_charge
K1	K	0.625000	0.710410	0.750000	-2.546245
K2	K	0.125000	0.039590	0.750000	-2.546239
K3	K	0.289590	0.875000	0.250000	-2.546239
K4	K	0.960410	0.375000	0.250000	-2.546245
Co1	Co	0.855010	0.910190	0.919340	1.418913
Co2	Co	0.064330	0.009150	0.919340	1.418916
Co3	Co	0.089810	0.935670	0.080660	1.418915
Co4	Co	0.990850	0.144990	0.080660	1.418913
Co5	Co	0.185670	0.839810	0.580660	1.418915
Co6	Co	0.394990	0.740850	0.580660	1.418913
Co7	Co	0.259150	0.814330	0.419340	1.418916
Co8	Co	0.160190	0.605010	0.419340	1.418913
Co9	Co	0.442130	0.942130	0.884260	1.386856
Co10	Co	0.057870	0.557870	0.115740	1.386856
Co11	Co	0.807870	0.807870	0.615740	1.386856
Co12	Co	0.192130	0.192130	0.384260	1.386856
H1	H	0.719100	0.870900	0.084200	0.175970
H2	H	0.778500	0.808200	0.021000	0.194837
H3	H	0.936800	0.864100	0.162600	0.160207
H4	H	0.880200	0.949200	0.218600	0.152974
H5	H	0.365100	0.213300	0.084200	0.175968
H6	H	0.242500	0.212800	0.021000	0.194836
H7	H	0.225800	0.298500	0.162600	0.160207
H8	H	0.338400	0.269400	0.218600	0.152974
H9	H	0.129100	0.634900	0.915800	0.175969
H10	H	0.191800	0.757500	0.979000	0.194836
H11	H	0.135900	0.774200	0.837400	0.160207
H12	H	0.050800	0.661600	0.781400	0.152974
H13	H	0.786700	0.280900	0.915800	0.175970
H14	H	0.787200	0.221500	0.979000	0.194837
H15	H	0.701500	0.063200	0.837400	0.160207
H16	H	0.730600	0.119800	0.781400	0.152974
H17	H	0.884900	0.879100	0.415800	0.175969
H18	H	0.007500	0.941800	0.479000	0.194836
H19	H	0.024200	0.885900	0.337400	0.160207
H20	H	0.911600	0.800800	0.281400	0.152974
H21	H	0.530900	0.536700	0.415800	0.175970
H22	H	0.471500	0.537200	0.479000	0.194837
H23	H	0.313200	0.451500	0.337400	0.160207
H24	H	0.369800	0.480600	0.281400	0.152974
H25	H	0.463300	0.115100	0.584200	0.175968
H26	H	0.462800	0.992500	0.521000	0.194836
H27	H	0.548500	0.975800	0.662600	0.160207
H28	H	0.519400	0.088400	0.718600	0.152974
H29	H	0.120900	0.469100	0.584200	0.175970
H30	H	0.058200	0.528500	0.521000	0.194837
H31	H	0.114100	0.686800	0.662600	0.160207
H32	H	0.199200	0.630200	0.718600	0.152974
C1	C	0.669140	0.903760	0.973300	0.407671
C2	C	0.754510	0.879380	0.046480	-0.222187
C3	C	0.859700	0.971690	0.104020	0.286776
C4	C	0.925630	0.942200	0.184200	-0.216877
C5	C	0.038240	0.014330	0.243840	0.323321
C6	C	0.823180	0.087010	0.135940	0.222002
C7	C	0.304160	0.069540	0.973300	0.407669
C8	C	0.291970	0.167100	0.046480	-0.222180
C9	C	0.244320	0.132330	0.104020	0.286776
C10	C	0.258570	0.242000	0.184200	-0.216875
C11	C	0.205600	0.229510	0.243840	0.323323
C12	C	0.312760	0.048930	0.135940	0.222004
C13	C	0.096240	0.695840	0.026700	0.407672
C14	C	0.120620	0.708030	0.953520	-0.222181
C15	C	0.028310	0.755680	0.895980	0.286775
C16	C	0.057800	0.741430	0.815800	-0.216876
C17	C	0.985670	0.794400	0.756160	0.323321
C18	C	0.912990	0.687240	0.864060	0.222003
C19	C	0.930460	0.330860	0.026700	0.407668
C20	C	0.832900	0.245490	0.953520	-0.222186
C21	C	0.867670	0.140300	0.895980	0.286776
C22	C	0.758000	0.074370	0.815800	-0.216876
C23	C	0.770490	0.961760	0.756160	0.323323
C24	C	0.951070	0.176820	0.864060	0.222003
C25	C	0.945840	0.846240	0.526700	0.407672
C26	C	0.958030	0.870620	0.453520	-0.222181
C27	C	0.005680	0.778310	0.395980	0.286775
C28	C	0.991430	0.807800	0.315800	-0.216876
C29	C	0.044400	0.735670	0.256160	0.323321
C30	C	0.937240	0.662990	0.364060	0.222003
C31	C	0.580860	0.680460	0.526700	0.407668
C32	C	0.495490	0.582900	0.453520	-0.222186
C33	C	0.390300	0.617670	0.395980	0.286776
C34	C	0.324370	0.508000	0.315800	-0.216876
C35	C	0.211760	0.520490	0.256160	0.323323
C36	C	0.426820	0.701070	0.364060	0.222003
C37	C	0.319540	0.054160	0.473300	0.407669
C38	C	0.417100	0.041970	0.546480	-0.222180
C39	C	0.382330	0.994320	0.604020	0.286776
C40	C	0.492000	0.008570	0.684200	-0.216875
C41	C	0.479510	0.955600	0.743840	0.323323
C42	C	0.298930	0.062760	0.635940	0.222004
C43	C	0.153760	0.419140	0.473300	0.407671
C44	C	0.129380	0.504510	0.546480	-0.222187
C45	C	0.221690	0.609700	0.604020	0.286776
C46	C	0.192200	0.675630	0.684200	-0.216877
C47	C	0.264330	0.788240	0.743840	0.323321
C48	C	0.337010	0.573180	0.635940	0.222002
O1	O	0.694310	0.918550	0.915240	-0.231363
O2	O	0.568600	0.904870	0.970800	-0.447359
O3	O	0.118300	0.999390	0.218040	-0.065740
O4	O	0.048360	0.087850	0.317780	-0.461663
O5	O	0.862240	0.167030	0.123320	0.029665
O6	O	0.751530	0.096330	0.170220	0.009240
O7	O	0.928940	0.973870	0.057340	-1.156695
O8	O	0.220930	0.996690	0.915240	-0.231358
O9	O	0.402200	0.065930	0.970800	-0.447362
O10	O	0.099740	0.218650	0.218040	-0.065735
O11	O	0.269420	0.229930	0.317780	-0.461670
O12	O	0.261080	0.956290	0.123320	0.029667
O13	O	0.418690	0.073890	0.170220	0.009240
O14	O	0.128400	0.083470	0.057340	-1.156705
O15	O	0.081450	0.779070	0.084760	-0.231364
O16	O	0.095130	0.597800	0.029200	-0.447367
O17	O	0.000610	0.900260	0.781960	-0.065735
O18	O	0.912150	0.730580	0.682220	-0.461666
O19	O	0.832970	0.738920	0.876680	0.029666
O20	O	0.903670	0.581310	0.829780	0.009240
O21	O	0.026130	0.871600	0.942660	-1.156701
O22	O	0.003310	0.305690	0.084760	-0.231357
O23	O	0.934070	0.431400	0.029200	-0.447354
O24	O	0.781350	0.881700	0.781960	-0.065740
O25	O	0.770070	0.951640	0.682220	-0.461667
O26	O	0.043710	0.137760	0.876680	0.029666
O27	O	0.926110	0.248470	0.829780	0.009239
O28	O	0.916530	0.071060	0.942660	-1.156698
O29	O	0.029070	0.831450	0.584760	-0.231364
O30	O	0.847800	0.845130	0.529200	-0.447367
O31	O	0.150260	0.750610	0.281960	-0.065735
O32	O	0.980580	0.662150	0.182220	-0.461666
O33	O	0.988920	0.582970	0.376680	0.029666
O34	O	0.831310	0.653670	0.329780	0.009240
O35	O	0.121600	0.776130	0.442660	-1.156701
O36	O	0.555690	0.753310	0.584760	-0.231357
O37	O	0.681400	0.684070	0.529200	-0.447354
O38	O	0.131700	0.531350	0.281960	-0.065740
O39	O	0.201640	0.520070	0.182220	-0.461667
O40	O	0.387760	0.793710	0.376680	0.029666
O41	O	0.498470	0.676110	0.329780	0.009239
O42	O	0.321060	0.666530	0.442660	-1.156698
O43	O	0.246690	0.970930	0.415240	-0.231358
O44	O	0.315930	0.152200	0.470800	-0.447362
O45	O	0.468650	0.849740	0.718040	-0.065735
O46	O	0.479930	0.019420	0.817780	-0.461670
O47	O	0.206290	0.011080	0.623320	0.029667
O48	O	0.323890	0.168690	0.670220	0.009240
O49	O	0.333470	0.878400	0.557340	-1.156705
O50	O	0.168550	0.444310	0.415240	-0.231363
O51	O	0.154870	0.318600	0.470800	-0.447359
O52	O	0.249390	0.868300	0.718040	-0.065740
O53	O	0.337850	0.798360	0.817780	-0.461663
O54	O	0.417030	0.612240	0.623320	0.029665
O55	O	0.346330	0.501530	0.670220	0.009240
O56	O	0.223870	0.678940	0.557340	-1.156695
