data_RIFDUG01_clean_PM
_symmetry_space_group_name_H-M	'P1'
_cell_length_a	18.766600
_cell_length_b	18.766600
_cell_length_c	18.766600
_cell_angle_alpha	60.000000
_cell_angle_beta	59.999999
_cell_angle_gamma	60.000000
_symmetry_Int_Tables_number 1

loop_
_symmetry_equiv_pos_as_xyz
'x,y,z'

loop_
_atom_site_label
_atom_site_type_symbol
_atom_site_fract_x
_atom_site_fract_y
_atom_site_fract_z
_atom_site_charge
Zn1	Zn	0.500000	0.079160	0.500000	1.108413
Zn2	Zn	0.079160	0.500000	0.920840	1.108413
Zn3	Zn	0.500000	0.920840	0.500000	1.108413
Zn4	Zn	0.920840	0.500000	0.079160	1.108413
Zn5	Zn	0.500000	0.500000	0.920840	1.108413
Zn6	Zn	0.079160	0.920840	0.500000	1.108413
Zn7	Zn	0.500000	0.500000	0.079160	1.108413
Zn8	Zn	0.920840	0.079160	0.500000	1.108413
Zn9	Zn	0.500000	0.920840	0.079160	1.108413
Zn10	Zn	0.079160	0.500000	0.500000	1.108413
Zn11	Zn	0.500000	0.079160	0.920840	1.108413
Zn12	Zn	0.920840	0.500000	0.500000	1.108413
H1	H	0.770700	0.987500	0.471100	0.152629
H2	H	0.987500	0.770700	0.770700	0.152630
H3	H	0.471100	0.770700	0.770700	0.152628
H4	H	0.770700	0.471100	0.987500	0.152629
H5	H	0.770700	0.471100	0.770700	0.152628
H6	H	0.987500	0.770700	0.471100	0.152630
H7	H	0.471100	0.770700	0.987500	0.152629
H8	H	0.770700	0.987500	0.770700	0.152630
H9	H	0.770700	0.770700	0.987500	0.152630
H10	H	0.987500	0.471100	0.770700	0.152630
H11	H	0.471100	0.987500	0.770700	0.152629
H12	H	0.770700	0.770700	0.471100	0.152628
H13	H	0.012500	0.229300	0.528900	0.152629
H14	H	0.229300	0.012500	0.229300	0.152630
H15	H	0.229300	0.528900	0.229300	0.152628
H16	H	0.528900	0.229300	0.012500	0.152629
H17	H	0.528900	0.229300	0.229300	0.152628
H18	H	0.229300	0.012500	0.528900	0.152629
H19	H	0.229300	0.528900	0.012500	0.152629
H20	H	0.012500	0.229300	0.229300	0.152630
H21	H	0.229300	0.229300	0.012500	0.152630
H22	H	0.528900	0.012500	0.229300	0.152629
H23	H	0.012500	0.528900	0.229300	0.152629
H24	H	0.229300	0.229300	0.528900	0.152628
C1	C	0.663720	0.930200	0.475880	0.476123
C2	C	0.756340	0.885700	0.472260	0.039165
C3	C	0.930200	0.663720	0.930200	0.476122
C4	C	0.885700	0.756340	0.885700	0.039171
C5	C	0.475880	0.930200	0.663720	0.476123
C6	C	0.472260	0.885700	0.756340	0.039165
C7	C	0.930200	0.475880	0.930200	0.476123
C8	C	0.885700	0.472260	0.885700	0.039167
C9	C	0.663720	0.475880	0.930200	0.476124
C10	C	0.756340	0.472260	0.885700	0.039165
C11	C	0.930200	0.930200	0.475880	0.476123
C12	C	0.885700	0.885700	0.472260	0.039167
C13	C	0.475880	0.663720	0.930200	0.476124
C14	C	0.472260	0.756340	0.885700	0.039165
C15	C	0.930200	0.930200	0.663720	0.476121
C16	C	0.885700	0.885700	0.756340	0.039171
C17	C	0.663720	0.930200	0.930200	0.476121
C18	C	0.756340	0.885700	0.885700	0.039171
C19	C	0.930200	0.475880	0.663720	0.476125
C20	C	0.885700	0.472260	0.756340	0.039165
C21	C	0.475880	0.930200	0.930200	0.476123
C22	C	0.472260	0.885700	0.885700	0.039167
C23	C	0.930200	0.663720	0.475880	0.476123
C24	C	0.885700	0.756340	0.472260	0.039165
C25	C	0.069800	0.336280	0.524120	0.476124
C26	C	0.114300	0.243660	0.527740	0.039165
C27	C	0.336280	0.069800	0.069800	0.476121
C28	C	0.243660	0.114300	0.114300	0.039171
C29	C	0.069800	0.524120	0.336280	0.476124
C30	C	0.114300	0.527740	0.243660	0.039165
C31	C	0.524120	0.069800	0.069800	0.476123
C32	C	0.527740	0.114300	0.114300	0.039167
C33	C	0.524120	0.336280	0.069800	0.476124
C34	C	0.527740	0.243660	0.114300	0.039165
C35	C	0.069800	0.069800	0.524120	0.476123
C36	C	0.114300	0.114300	0.527740	0.039167
C37	C	0.336280	0.524120	0.069800	0.476124
C38	C	0.243660	0.527740	0.114300	0.039165
C39	C	0.069800	0.069800	0.336280	0.476122
C40	C	0.114300	0.114300	0.243660	0.039171
C41	C	0.069800	0.336280	0.069800	0.476122
C42	C	0.114300	0.243660	0.114300	0.039171
C43	C	0.524120	0.069800	0.336280	0.476124
C44	C	0.527740	0.114300	0.243660	0.039165
C45	C	0.069800	0.524120	0.069800	0.476123
C46	C	0.114300	0.527740	0.114300	0.039167
C47	C	0.336280	0.069800	0.524120	0.476123
C48	C	0.243660	0.114300	0.527740	0.039166
C49	C	0.799700	0.928780	0.471820	-0.029986
C50	C	0.928780	0.799700	0.799700	-0.029990
C51	C	0.471820	0.799700	0.799700	-0.029981
C52	C	0.799700	0.471820	0.928780	-0.029986
C53	C	0.799700	0.471820	0.799700	-0.029981
C54	C	0.928780	0.799700	0.471820	-0.029986
C55	C	0.471820	0.799700	0.928780	-0.029986
C56	C	0.799700	0.928780	0.799700	-0.029990
C57	C	0.799700	0.799700	0.928780	-0.029990
C58	C	0.928780	0.471820	0.799700	-0.029986
C59	C	0.471820	0.928780	0.799700	-0.029986
C60	C	0.799700	0.799700	0.471820	-0.029981
C61	C	0.071220	0.200300	0.528180	-0.029986
C62	C	0.200300	0.071220	0.200300	-0.029990
C63	C	0.200300	0.528180	0.200300	-0.029981
C64	C	0.528180	0.200300	0.071220	-0.029986
C65	C	0.528180	0.200300	0.200300	-0.029982
C66	C	0.200300	0.071220	0.528180	-0.029986
C67	C	0.200300	0.528180	0.071220	-0.029986
C68	C	0.071220	0.200300	0.200300	-0.029990
C69	C	0.200300	0.200300	0.071220	-0.029990
C70	C	0.528180	0.071220	0.200300	-0.029986
C71	C	0.071220	0.528180	0.200300	-0.029986
C72	C	0.200300	0.200300	0.528180	-0.029981
O1	O	0.627950	0.006390	0.478410	-0.596070
O2	O	0.006390	0.627950	0.887250	-0.596070
O3	O	0.478410	0.887250	0.627950	-0.596069
O4	O	0.887250	0.478410	0.006390	-0.596070
O5	O	0.627950	0.478410	0.887250	-0.596070
O6	O	0.006390	0.887250	0.478410	-0.596070
O7	O	0.478410	0.627950	0.006390	-0.596071
O8	O	0.887250	0.006390	0.627950	-0.596069
O9	O	0.627950	0.887250	0.006390	-0.596069
O10	O	0.006390	0.478410	0.627950	-0.596072
O11	O	0.478410	0.006390	0.887250	-0.596070
O12	O	0.887250	0.627950	0.478410	-0.596069
O13	O	0.993610	0.372050	0.521590	-0.596071
O14	O	0.372050	0.993610	0.112750	-0.596069
O15	O	0.112750	0.521590	0.372050	-0.596070
O16	O	0.521590	0.112750	0.993610	-0.596070
O17	O	0.521590	0.372050	0.112750	-0.596070
O18	O	0.112750	0.993610	0.521590	-0.596070
O19	O	0.372050	0.521590	0.993610	-0.596071
O20	O	0.993610	0.112750	0.372050	-0.596070
O21	O	0.112750	0.372050	0.993610	-0.596070
O22	O	0.521590	0.993610	0.372050	-0.596071
O23	O	0.993610	0.521590	0.112750	-0.596070
O24	O	0.372050	0.112750	0.521590	-0.596069
O25	O	0.372050	0.993610	0.521590	-0.596070
O26	O	0.993610	0.372050	0.112750	-0.596070
O27	O	0.521590	0.112750	0.372050	-0.596070
O28	O	0.112750	0.521590	0.993610	-0.596070
O29	O	0.372050	0.521590	0.112750	-0.596070
O30	O	0.993610	0.112750	0.521590	-0.596070
O31	O	0.521590	0.372050	0.993610	-0.596071
O32	O	0.112750	0.993610	0.372050	-0.596069
O33	O	0.372050	0.112750	0.993610	-0.596069
O34	O	0.993610	0.521590	0.372050	-0.596071
O35	O	0.521590	0.993610	0.112750	-0.596070
O36	O	0.112750	0.372050	0.521590	-0.596070
O37	O	0.006390	0.627950	0.478410	-0.596071
O38	O	0.627950	0.006390	0.887250	-0.596069
O39	O	0.887250	0.478410	0.627950	-0.596070
O40	O	0.478410	0.887250	0.006390	-0.596070
O41	O	0.478410	0.627950	0.887250	-0.596070
O42	O	0.887250	0.006390	0.478410	-0.596071
O43	O	0.627950	0.478410	0.006390	-0.596071
O44	O	0.006390	0.887250	0.627950	-0.596069
O45	O	0.887250	0.627950	0.006390	-0.596070
O46	O	0.478410	0.006390	0.627950	-0.596070
O47	O	0.006390	0.478410	0.887250	-0.596070
O48	O	0.627950	0.887250	0.478410	-0.596069
