data_UTEXIB_clean_PM
_symmetry_space_group_name_H-M	'P1'
_cell_length_a	15.462500
_cell_length_b	15.462500
_cell_length_c	20.047400
_cell_angle_alpha	90.000000
_cell_angle_beta	90.000000
_cell_angle_gamma	90.000000
_symmetry_Int_Tables_number 1

loop_
_symmetry_equiv_pos_as_xyz
'x,y,z'

loop_
_atom_site_label
_atom_site_type_symbol
_atom_site_fract_x
_atom_site_fract_y
_atom_site_fract_z
_atom_site_charge
Co1	Co	0.250000	0.750000	0.000000	1.046640
Co2	Co	0.750000	0.250000	0.500000	1.046640
Co3	Co	0.750000	0.250000	-0.000000	1.046640
Co4	Co	0.250000	0.750000	0.500000	1.046640
Co5	Co	0.085750	0.914250	0.000000	1.094690
Co6	Co	0.414250	0.585750	0.000000	1.094690
Co7	Co	0.585750	0.085750	0.500000	1.094690
Co8	Co	0.914250	0.414250	0.500000	1.094690
Co9	Co	0.914250	0.085750	-0.000000	1.094690
Co10	Co	0.585750	0.414250	0.000000	1.094690
Co11	Co	0.414250	0.914250	0.500000	1.094690
Co12	Co	0.085750	0.585750	0.500000	1.094690
H1	H	0.153070	0.967770	0.741020	0.094264
H2	H	0.137120	0.953990	0.848330	0.060608
H3	H	0.220600	0.053420	0.076820	0.059885
H4	H	0.355090	0.840750	0.124740	0.057777
H5	H	0.346930	0.532230	0.741020	0.094264
H6	H	0.362880	0.546010	0.848330	0.060608
H7	H	0.279400	0.446580	0.076820	0.059885
H8	H	0.144910	0.659250	0.124740	0.057777
H9	H	0.532230	0.153070	0.241020	0.094264
H10	H	0.546010	0.137120	0.348330	0.060608
H11	H	0.446580	0.220600	0.576820	0.059885
H12	H	0.659250	0.355090	0.624740	0.057777
H13	H	0.967770	0.346930	0.241020	0.094264
H14	H	0.953990	0.362880	0.348330	0.060608
H15	H	0.053420	0.279400	0.576820	0.059885
H16	H	0.840750	0.144910	0.624740	0.057777
H17	H	0.846930	0.467770	0.758980	0.094264
H18	H	0.862880	0.453990	0.651670	0.060608
H19	H	0.779400	0.553420	0.423180	0.059885
H20	H	0.644910	0.340750	0.375260	0.057777
H21	H	0.653070	0.032230	0.758980	0.094264
H22	H	0.637120	0.046010	0.651670	0.060608
H23	H	0.720600	0.946580	0.423180	0.059885
H24	H	0.855090	0.159250	0.375260	0.057777
H25	H	0.467770	0.653070	0.258980	0.094264
H26	H	0.453990	0.637120	0.151670	0.060608
H27	H	0.553420	0.720600	0.923180	0.059885
H28	H	0.340750	0.855090	0.875260	0.057777
H29	H	0.032230	0.846930	0.258980	0.094264
H30	H	0.046010	0.862880	0.151670	0.060608
H31	H	0.946580	0.779400	0.923180	0.059885
H32	H	0.159250	0.644910	0.875260	0.057777
H33	H	0.846930	0.032230	0.258980	0.094264
H34	H	0.862880	0.046010	0.151670	0.060608
H35	H	0.779400	0.946580	0.923180	0.059885
H36	H	0.644910	0.159250	0.875260	0.057777
H37	H	0.653070	0.467770	0.258980	0.094264
H38	H	0.637120	0.453990	0.151670	0.060608
H39	H	0.720600	0.553420	0.923180	0.059885
H40	H	0.855090	0.340750	0.875260	0.057777
H41	H	0.467770	0.846930	0.758980	0.094264
H42	H	0.453990	0.862880	0.651670	0.060608
H43	H	0.553420	0.779400	0.423180	0.059885
H44	H	0.340750	0.644910	0.375260	0.057777
H45	H	0.032230	0.653070	0.758980	0.094264
H46	H	0.046010	0.637120	0.651670	0.060608
H47	H	0.946580	0.720600	0.423180	0.059885
H48	H	0.159250	0.855090	0.375260	0.057777
H49	H	0.153070	0.532230	0.241020	0.094264
H50	H	0.137120	0.546010	0.348330	0.060608
H51	H	0.220600	0.446580	0.576820	0.059885
H52	H	0.355090	0.659250	0.624740	0.057777
H53	H	0.346930	0.967770	0.241020	0.094264
H54	H	0.362880	0.953990	0.348330	0.060608
H55	H	0.279400	0.053420	0.576820	0.059885
H56	H	0.144910	0.840750	0.624740	0.057777
H57	H	0.532230	0.346930	0.741020	0.094264
H58	H	0.546010	0.362880	0.848330	0.060608
H59	H	0.446580	0.279400	0.076820	0.059885
H60	H	0.659250	0.144910	0.124740	0.057777
H61	H	0.967770	0.153070	0.741020	0.094264
H62	H	0.953990	0.137120	0.848330	0.060608
H63	H	0.053420	0.220600	0.076820	0.059885
H64	H	0.840750	0.355090	0.124740	0.057777
H65	H	0.084920	0.084920	0.567940	0.096421
H66	H	0.415080	0.415080	0.567940	0.096421
H67	H	0.415080	0.084920	0.067940	0.096421
H68	H	0.084920	0.415080	0.067940	0.096421
H69	H	0.915080	0.584920	0.932060	0.096421
H70	H	0.584920	0.915080	0.932060	0.096421
H71	H	0.584920	0.584920	0.432060	0.096421
H72	H	0.915080	0.915080	0.432060	0.096421
C1	C	0.118910	0.008840	0.717610	-0.150939
C2	C	0.128430	0.018310	0.649050	0.043202
C3	C	0.094020	0.993540	0.862830	0.059781
C4	C	0.190500	0.965500	0.613260	0.014681
C5	C	0.238350	0.994780	0.080380	0.063869
C6	C	0.312200	0.878010	0.106690	0.052513
C7	C	0.381090	0.491160	0.717610	-0.150939
C8	C	0.371570	0.481690	0.649050	0.043202
C9	C	0.405980	0.506460	0.862830	0.059782
C10	C	0.309500	0.534500	0.613260	0.014681
C11	C	0.261650	0.505220	0.080380	0.063869
C12	C	0.187800	0.621990	0.106690	0.052513
C13	C	0.491160	0.118910	0.217610	-0.150939
C14	C	0.481690	0.128430	0.149050	0.043202
C15	C	0.506460	0.094020	0.362830	0.059781
C16	C	0.534500	0.190500	0.113260	0.014681
C17	C	0.505220	0.238350	0.580380	0.063869
C18	C	0.621990	0.312200	0.606690	0.052513
C19	C	0.008840	0.381090	0.217610	-0.150939
C20	C	0.018310	0.371570	0.149050	0.043202
C21	C	0.993540	0.405980	0.362830	0.059782
C22	C	0.965500	0.309500	0.113260	0.014681
C23	C	0.994780	0.261650	0.580380	0.063869
C24	C	0.878010	0.187800	0.606690	0.052513
C25	C	0.881090	0.508840	0.782390	-0.150939
C26	C	0.871570	0.518310	0.850950	0.043202
C27	C	0.905980	0.493540	0.637170	0.059780
C28	C	0.809500	0.465500	0.886740	0.014681
C29	C	0.761650	0.494780	0.419620	0.063869
C30	C	0.687800	0.378010	0.393310	0.052513
C31	C	0.618910	0.991160	0.782390	-0.150939
C32	C	0.628430	0.981690	0.850950	0.043202
C33	C	0.594020	0.006460	0.637170	0.059780
C34	C	0.690500	0.034500	0.886740	0.014681
C35	C	0.738350	0.005220	0.419620	0.063869
C36	C	0.812200	0.121990	0.393310	0.052513
C37	C	0.508840	0.618910	0.282390	-0.150939
C38	C	0.518310	0.628430	0.350950	0.043202
C39	C	0.493540	0.594020	0.137170	0.059780
C40	C	0.465500	0.690500	0.386740	0.014681
C41	C	0.494780	0.738350	0.919620	0.063869
C42	C	0.378010	0.812200	0.893310	0.052513
C43	C	0.991160	0.881090	0.282390	-0.150939
C44	C	0.981690	0.871570	0.350950	0.043202
C45	C	0.006460	0.905980	0.137170	0.059780
C46	C	0.034500	0.809500	0.386740	0.014681
C47	C	0.005220	0.761650	0.919620	0.063869
C48	C	0.121990	0.687800	0.893310	0.052513
C49	C	0.881090	0.991160	0.282390	-0.150939
C50	C	0.871570	0.981690	0.350950	0.043202
C51	C	0.905980	0.006460	0.137170	0.059782
C52	C	0.809500	0.034500	0.386740	0.014681
C53	C	0.761650	0.005220	0.919620	0.063869
C54	C	0.687800	0.121990	0.893310	0.052513
C55	C	0.618910	0.508840	0.282390	-0.150939
C56	C	0.628430	0.518310	0.350950	0.043202
C57	C	0.594020	0.493540	0.137170	0.059782
C58	C	0.690500	0.465500	0.386740	0.014681
C59	C	0.738350	0.494780	0.919620	0.063869
C60	C	0.812200	0.378010	0.893310	0.052513
C61	C	0.508840	0.881090	0.782390	-0.150939
C62	C	0.518310	0.871570	0.850950	0.043202
C63	C	0.493540	0.905980	0.637170	0.059782
C64	C	0.465500	0.809500	0.886740	0.014681
C65	C	0.494780	0.761650	0.419620	0.063869
C66	C	0.378010	0.687800	0.393310	0.052513
C67	C	0.991160	0.618910	0.782390	-0.150939
C68	C	0.981690	0.628430	0.850950	0.043202
C69	C	0.006460	0.594020	0.637170	0.059782
C70	C	0.034500	0.690500	0.886740	0.014681
C71	C	0.005220	0.738350	0.419620	0.063869
C72	C	0.121990	0.812200	0.393310	0.052513
C73	C	0.118910	0.491160	0.217610	-0.150939
C74	C	0.128430	0.481690	0.149050	0.043202
C75	C	0.094020	0.506460	0.362830	0.059780
C76	C	0.190500	0.534500	0.113260	0.014681
C77	C	0.238350	0.505220	0.580380	0.063869
C78	C	0.312200	0.621990	0.606690	0.052513
C79	C	0.381090	0.008840	0.217610	-0.150939
C80	C	0.371570	0.018310	0.149050	0.043202
C81	C	0.405980	0.993540	0.362830	0.059781
C82	C	0.309500	0.965500	0.113260	0.014681
C83	C	0.261650	0.994780	0.580380	0.063869
C84	C	0.187800	0.878010	0.606690	0.052513
C85	C	0.491160	0.381090	0.717610	-0.150939
C86	C	0.481690	0.371570	0.649050	0.043202
C87	C	0.506460	0.405980	0.862830	0.059780
C88	C	0.534500	0.309500	0.613260	0.014681
C89	C	0.505220	0.261650	0.080380	0.063869
C90	C	0.621990	0.187800	0.106690	0.052513
C91	C	0.008840	0.118910	0.717610	-0.150939
C92	C	0.018310	0.128430	0.649050	0.043202
C93	C	0.993540	0.094020	0.862830	0.059781
C94	C	0.965500	0.190500	0.613260	0.014681
C95	C	0.994780	0.238350	0.080380	0.063869
C96	C	0.878010	0.312200	0.106690	0.052513
C97	C	0.059430	0.059430	0.751910	0.044512
C98	C	0.078430	0.078430	0.614800	-0.160782
C99	C	0.049530	0.049530	0.823430	0.019347
C100	C	0.440570	0.440570	0.751910	0.044512
C101	C	0.421570	0.421570	0.614800	-0.160782
C102	C	0.450480	0.450470	0.823430	0.019348
C103	C	0.440570	0.059430	0.251910	0.044512
C104	C	0.421570	0.078430	0.114800	-0.160782
C105	C	0.450470	0.049530	0.323430	0.019347
C106	C	0.059430	0.440570	0.251910	0.044512
C107	C	0.078430	0.421570	0.114800	-0.160782
C108	C	0.049530	0.450480	0.323430	0.019348
C109	C	0.940570	0.559430	0.748090	0.044512
C110	C	0.921570	0.578430	0.885200	-0.160782
C111	C	0.950470	0.549520	0.676570	0.019348
C112	C	0.559430	0.940570	0.748090	0.044512
C113	C	0.578430	0.921570	0.885200	-0.160782
C114	C	0.549530	0.950480	0.676570	0.019348
C115	C	0.559430	0.559430	0.248090	0.044512
C116	C	0.578430	0.578430	0.385200	-0.160782
C117	C	0.549520	0.549530	0.176570	0.019348
C118	C	0.940570	0.940570	0.248090	0.044512
C119	C	0.921570	0.921570	0.385200	-0.160782
C120	C	0.950480	0.950470	0.176570	0.019348
N1	N	0.066050	0.004050	0.926630	-0.381921
N2	N	0.197090	0.925370	0.053480	-0.407734
N3	N	0.242730	0.853200	0.069750	-0.374738
N4	N	0.433950	0.495950	0.926630	-0.381921
N5	N	0.302910	0.574630	0.053480	-0.407734
N6	N	0.257270	0.646800	0.069750	-0.374738
N7	N	0.495950	0.066050	0.426630	-0.381921
N8	N	0.574630	0.197090	0.553480	-0.407734
N9	N	0.646800	0.242730	0.569750	-0.374738
N10	N	0.004050	0.433950	0.426630	-0.381921
N11	N	0.925370	0.302910	0.553480	-0.407734
N12	N	0.853200	0.257270	0.569750	-0.374738
N13	N	0.933950	0.504050	0.573370	-0.381921
N14	N	0.802910	0.425370	0.446520	-0.407734
N15	N	0.757270	0.353200	0.430250	-0.374738
N16	N	0.566050	0.995950	0.573370	-0.381921
N17	N	0.697090	0.074630	0.446520	-0.407734
N18	N	0.742730	0.146800	0.430250	-0.374738
N19	N	0.504050	0.566050	0.073370	-0.381921
N20	N	0.425370	0.697090	0.946520	-0.407734
N21	N	0.353200	0.742730	0.930250	-0.374738
N22	N	0.995950	0.933950	0.073370	-0.381921
N23	N	0.074630	0.802910	0.946520	-0.407734
N24	N	0.146800	0.757270	0.930250	-0.374738
N25	N	0.933950	0.995950	0.073370	-0.381921
N26	N	0.802910	0.074630	0.946520	-0.407734
N27	N	0.757270	0.146800	0.930250	-0.374738
N28	N	0.566050	0.504050	0.073370	-0.381921
N29	N	0.697090	0.425370	0.946520	-0.407734
N30	N	0.742730	0.353200	0.930250	-0.374738
N31	N	0.504050	0.933950	0.573370	-0.381921
N32	N	0.425370	0.802910	0.446520	-0.407734
N33	N	0.353200	0.757270	0.430250	-0.374738
N34	N	0.995950	0.566050	0.573370	-0.381921
N35	N	0.074630	0.697090	0.446520	-0.407734
N36	N	0.146800	0.742730	0.430250	-0.374738
N37	N	0.066050	0.495950	0.426630	-0.381921
N38	N	0.197090	0.574630	0.553480	-0.407734
N39	N	0.242730	0.646800	0.569750	-0.374738
N40	N	0.433950	0.004050	0.426630	-0.381921
N41	N	0.302910	0.925370	0.553480	-0.407734
N42	N	0.257270	0.853200	0.569750	-0.374738
N43	N	0.495950	0.433950	0.926630	-0.381921
N44	N	0.574630	0.302910	0.053480	-0.407734
N45	N	0.646800	0.257270	0.069750	-0.374738
N46	N	0.004050	0.066050	0.926630	-0.381921
N47	N	0.925370	0.197090	0.053480	-0.407734
N48	N	0.853200	0.242730	0.069750	-0.374738
