data_UVUQAE_clean_PM
_symmetry_space_group_name_H-M	'P1'
_cell_length_a	15.085500
_cell_length_b	15.085500
_cell_length_c	21.515000
_cell_angle_alpha	83.867202
_cell_angle_beta	83.867202
_cell_angle_gamma	65.555599
_symmetry_Int_Tables_number 1

loop_
_symmetry_equiv_pos_as_xyz
'x,y,z'

loop_
_atom_site_label
_atom_site_type_symbol
_atom_site_fract_x
_atom_site_fract_y
_atom_site_fract_z
_atom_site_charge
Zn1	Zn	0.009650	0.012850	0.681470	1.104388
Zn2	Zn	0.951840	0.432360	0.006100	1.140553
Zn3	Zn	0.987150	0.990350	0.818530	1.104388
Zn4	Zn	0.567640	0.048160	0.493900	1.140553
Zn5	Zn	0.990350	0.987150	0.318530	1.104388
Zn6	Zn	0.048160	0.567640	0.993900	1.140553
Zn7	Zn	0.012850	0.009650	0.181470	1.104388
Zn8	Zn	0.432360	0.951840	0.506100	1.140553
H1	H	0.677800	0.103000	0.836100	0.114811
H2	H	0.512200	0.152000	0.839200	0.104941
H3	H	0.533000	0.112400	0.656600	0.135691
H4	H	0.699800	0.062600	0.653500	0.139169
H5	H	0.263100	0.409300	0.863800	0.110907
H6	H	0.391300	0.314700	0.797300	0.108270
H7	H	0.263300	0.130300	0.792200	0.114510
H8	H	0.132900	0.228100	0.857200	0.126560
H9	H	0.111900	0.558700	0.621900	0.105834
H10	H	0.087100	0.718300	0.632900	0.110974
H11	H	0.038300	0.681100	0.818000	0.138943
H12	H	0.068600	0.520400	0.809300	0.129049
H13	H	0.208800	0.150400	0.633000	0.127282
H14	H	0.094400	0.277800	0.687100	0.117904
H15	H	0.269500	0.421300	0.654800	0.112180
H16	H	0.381600	0.293600	0.599700	0.107109
H17	H	0.938900	0.252100	0.076500	0.100527
H18	H	0.825700	0.189300	0.108100	0.122268
H19	H	0.665800	0.275200	0.080600	0.092861
H20	H	0.744800	0.481000	0.991900	0.112779
H21	H	0.897000	0.322200	0.663900	0.114811
H22	H	0.848000	0.487800	0.660800	0.104941
H23	H	0.887600	0.467000	0.843400	0.135691
H24	H	0.937400	0.300200	0.846500	0.139169
H25	H	0.590700	0.736900	0.636200	0.110907
H26	H	0.685300	0.608700	0.702700	0.108270
H27	H	0.869700	0.736700	0.707800	0.114510
H28	H	0.771900	0.867100	0.642800	0.126560
H29	H	0.441300	0.888100	0.878100	0.105834
H30	H	0.281700	0.912900	0.867100	0.110974
H31	H	0.318900	0.961700	0.682000	0.138943
H32	H	0.479600	0.931400	0.690700	0.129049
H33	H	0.849600	0.791200	0.867000	0.127282
H34	H	0.722200	0.905600	0.812900	0.117904
H35	H	0.578700	0.730500	0.845200	0.112180
H36	H	0.706400	0.618400	0.900300	0.107109
H37	H	0.747900	0.061100	0.423500	0.100527
H38	H	0.810700	0.174300	0.391900	0.122268
H39	H	0.724800	0.334200	0.419400	0.092861
H40	H	0.519000	0.255200	0.508100	0.112779
H41	H	0.322200	0.897000	0.163900	0.114811
H42	H	0.487800	0.848000	0.160800	0.104941
H43	H	0.467000	0.887600	0.343400	0.135691
H44	H	0.300200	0.937400	0.346500	0.139169
H45	H	0.736900	0.590700	0.136200	0.110907
H46	H	0.608700	0.685300	0.202700	0.108270
H47	H	0.736700	0.869700	0.207800	0.114510
H48	H	0.867100	0.771900	0.142800	0.126560
H49	H	0.888100	0.441300	0.378100	0.105834
H50	H	0.912900	0.281700	0.367100	0.110974
H51	H	0.961700	0.318900	0.182000	0.138943
H52	H	0.931400	0.479600	0.190700	0.129049
H53	H	0.791200	0.849600	0.367000	0.127282
H54	H	0.905600	0.722200	0.312900	0.117904
H55	H	0.730500	0.578700	0.345200	0.112180
H56	H	0.618400	0.706400	0.400300	0.107109
H57	H	0.061100	0.747900	0.923500	0.100527
H58	H	0.174300	0.810700	0.891900	0.122268
H59	H	0.334200	0.724800	0.919400	0.092861
H60	H	0.255200	0.519000	0.008100	0.112779
H61	H	0.103000	0.677800	0.336100	0.114811
H62	H	0.152000	0.512200	0.339200	0.104941
H63	H	0.112400	0.533000	0.156600	0.135691
H64	H	0.062600	0.699800	0.153500	0.139169
H65	H	0.409300	0.263100	0.363800	0.110907
H66	H	0.314700	0.391300	0.297300	0.108270
H67	H	0.130300	0.263300	0.292200	0.114510
H68	H	0.228100	0.132900	0.357200	0.126560
H69	H	0.558700	0.111900	0.121900	0.105834
H70	H	0.718300	0.087100	0.132900	0.110974
H71	H	0.681100	0.038300	0.318000	0.138943
H72	H	0.520400	0.068600	0.309300	0.129049
H73	H	0.150400	0.208800	0.133000	0.127282
H74	H	0.277800	0.094400	0.187100	0.117904
H75	H	0.421300	0.269500	0.154800	0.112180
H76	H	0.293600	0.381600	0.099700	0.107109
H77	H	0.252100	0.938900	0.576500	0.100527
H78	H	0.189300	0.825700	0.608100	0.122268
H79	H	0.275200	0.665800	0.580600	0.092861
H80	H	0.481000	0.744800	0.491900	0.112779
C1	C	0.706590	0.079990	0.744060	0.054593
C2	C	0.648600	0.105600	0.799660	-0.052480
C3	C	0.549860	0.134260	0.801830	-0.117801
C4	C	0.506540	0.136540	0.748080	0.186003
C5	C	0.562580	0.110380	0.692830	-0.001721
C6	C	0.662220	0.081420	0.690860	-0.095129
C7	C	0.815740	0.046140	0.744060	0.472337
C8	C	0.186240	0.326520	0.868650	0.048974
C9	C	0.262890	0.353290	0.849700	-0.032941
C10	C	0.339710	0.296710	0.809600	-0.147066
C11	C	0.339080	0.213880	0.788310	0.193422
C12	C	0.263260	0.186460	0.806200	-0.059006
C13	C	0.185500	0.244900	0.846020	-0.064672
C14	C	0.106360	0.386700	0.913650	0.452579
C15	C	0.094140	0.523940	0.715400	0.182535
C16	C	0.098440	0.583240	0.661400	-0.133992
C17	C	0.082440	0.678640	0.668180	-0.065693
C18	C	0.059670	0.716490	0.726070	0.053502
C19	C	0.054200	0.656000	0.778710	-0.100250
C20	C	0.071800	0.560200	0.773750	0.002295
C21	C	0.039140	0.821940	0.732300	0.479548
C22	C	0.305550	0.209690	0.610000	0.048088
C23	C	0.220490	0.205290	0.636950	-0.062335
C24	C	0.152300	0.280900	0.669700	-0.060963
C25	C	0.171640	0.361640	0.676200	0.191022
C26	C	0.256980	0.366980	0.650200	-0.149687
C27	C	0.323700	0.290700	0.617200	-0.000857
C28	C	0.378670	0.126950	0.573770	0.466740
C29	C	0.586770	0.448970	0.014800	0.150198
C30	C	0.875120	0.286720	0.065300	0.095342
C31	C	0.807730	0.248730	0.084600	-0.089892
C32	C	0.712650	0.300050	0.068600	-0.059337
C33	C	0.687610	0.389610	0.034030	0.018751
C34	C	0.760510	0.421970	0.015730	0.082503
C35	C	0.920010	0.293410	0.755940	0.054593
C36	C	0.894400	0.351400	0.700340	-0.052480
C37	C	0.865740	0.450140	0.698170	-0.117801
C38	C	0.863460	0.493460	0.751920	0.186003
C39	C	0.889620	0.437420	0.807170	-0.001721
C40	C	0.918580	0.337780	0.809140	-0.095129
C41	C	0.953860	0.184260	0.755940	0.472337
C42	C	0.673480	0.813760	0.631350	0.048974
C43	C	0.646710	0.737110	0.650300	-0.032941
C44	C	0.703290	0.660290	0.690400	-0.147066
C45	C	0.786120	0.660920	0.711690	0.193422
C46	C	0.813540	0.736740	0.693800	-0.059006
C47	C	0.755100	0.814500	0.653980	-0.064672
C48	C	0.613300	0.893640	0.586350	0.452579
C49	C	0.476060	0.905860	0.784600	0.182535
C50	C	0.416760	0.901560	0.838600	-0.133992
C51	C	0.321360	0.917560	0.831820	-0.065693
C52	C	0.283510	0.940330	0.773930	0.053502
C53	C	0.344000	0.945800	0.721290	-0.100250
C54	C	0.439800	0.928200	0.726250	0.002295
C55	C	0.178060	0.960860	0.767700	0.479548
C56	C	0.790310	0.694450	0.890000	0.048088
C57	C	0.794710	0.779510	0.863050	-0.062335
C58	C	0.719100	0.847700	0.830300	-0.060963
C59	C	0.638360	0.828360	0.823800	0.191022
C60	C	0.633020	0.743020	0.849800	-0.149687
C61	C	0.709300	0.676300	0.882800	-0.000857
C62	C	0.873050	0.621330	0.926230	0.466740
C63	C	0.551030	0.413230	0.485200	0.150198
C64	C	0.713280	0.124880	0.434700	0.095342
C65	C	0.751270	0.192270	0.415400	-0.089892
C66	C	0.699950	0.287350	0.431400	-0.059337
C67	C	0.610390	0.312390	0.465970	0.018751
C68	C	0.578030	0.239490	0.484270	0.082503
C69	C	0.293410	0.920010	0.255940	0.054593
C70	C	0.351400	0.894400	0.200340	-0.052480
C71	C	0.450140	0.865740	0.198170	-0.117801
C72	C	0.493460	0.863460	0.251920	0.186003
C73	C	0.437420	0.889620	0.307170	-0.001721
C74	C	0.337780	0.918580	0.309140	-0.095129
C75	C	0.184260	0.953860	0.255940	0.472337
C76	C	0.813760	0.673480	0.131350	0.048974
C77	C	0.737110	0.646710	0.150300	-0.032941
C78	C	0.660290	0.703290	0.190400	-0.147066
C79	C	0.660920	0.786120	0.211690	0.193422
C80	C	0.736740	0.813540	0.193800	-0.059006
C81	C	0.814500	0.755100	0.153980	-0.064672
C82	C	0.893640	0.613300	0.086350	0.452579
C83	C	0.905860	0.476060	0.284600	0.182535
C84	C	0.901560	0.416760	0.338600	-0.133992
C85	C	0.917560	0.321360	0.331820	-0.065693
C86	C	0.940330	0.283510	0.273930	0.053502
C87	C	0.945800	0.344000	0.221290	-0.100250
C88	C	0.928200	0.439800	0.226250	0.002295
C89	C	0.960860	0.178060	0.267700	0.479548
C90	C	0.694450	0.790310	0.390000	0.048088
C91	C	0.779510	0.794710	0.363050	-0.062335
C92	C	0.847700	0.719100	0.330300	-0.060963
C93	C	0.828360	0.638360	0.323800	0.191022
C94	C	0.743020	0.633020	0.349800	-0.149687
C95	C	0.676300	0.709300	0.382800	-0.000857
C96	C	0.621330	0.873050	0.426230	0.466740
C97	C	0.413230	0.551030	0.985200	0.150198
C98	C	0.124880	0.713280	0.934700	0.095342
C99	C	0.192270	0.751270	0.915400	-0.089892
C100	C	0.287350	0.699950	0.931400	-0.059337
C101	C	0.312390	0.610390	0.965970	0.018751
C102	C	0.239490	0.578030	0.984270	0.082503
C103	C	0.079990	0.706590	0.244060	0.054593
C104	C	0.105600	0.648600	0.299660	-0.052480
C105	C	0.134260	0.549860	0.301830	-0.117801
C106	C	0.136540	0.506540	0.248080	0.186003
C107	C	0.110380	0.562580	0.192830	-0.001721
C108	C	0.081420	0.662220	0.190860	-0.095129
C109	C	0.046140	0.815740	0.244060	0.472337
C110	C	0.326520	0.186240	0.368650	0.048974
C111	C	0.353290	0.262890	0.349700	-0.032941
C112	C	0.296710	0.339710	0.309600	-0.147066
C113	C	0.213880	0.339080	0.288310	0.193422
C114	C	0.186460	0.263260	0.306200	-0.059006
C115	C	0.244900	0.185500	0.346020	-0.064672
C116	C	0.386700	0.106360	0.413650	0.452579
C117	C	0.523940	0.094140	0.215400	0.182535
C118	C	0.583240	0.098440	0.161400	-0.133992
C119	C	0.678640	0.082440	0.168180	-0.065693
C120	C	0.716490	0.059670	0.226070	0.053502
C121	C	0.656000	0.054200	0.278710	-0.100250
C122	C	0.560200	0.071800	0.273750	0.002295
C123	C	0.821940	0.039140	0.232300	0.479548
C124	C	0.209690	0.305550	0.110000	0.048088
C125	C	0.205290	0.220490	0.136950	-0.062335
C126	C	0.280900	0.152300	0.169700	-0.060963
C127	C	0.361640	0.171640	0.176200	0.191022
C128	C	0.366980	0.256980	0.150200	-0.149687
C129	C	0.290700	0.323700	0.117200	-0.000857
C130	C	0.126950	0.378670	0.073770	0.466740
C131	C	0.448970	0.586770	0.514800	0.150198
C132	C	0.286720	0.875120	0.565300	0.095342
C133	C	0.248730	0.807730	0.584600	-0.089892
C134	C	0.300050	0.712650	0.568600	-0.059337
C135	C	0.389610	0.687610	0.534030	0.018751
C136	C	0.421970	0.760510	0.515730	0.082503
N1	N	0.517420	0.419120	0.039120	-0.141086
N2	N	0.571880	0.527680	0.976300	-0.148356
N3	N	0.853350	0.371150	0.031080	-0.404497
N4	N	0.580880	0.482580	0.460880	-0.141086
N5	N	0.472320	0.428120	0.523700	-0.148356
N6	N	0.628850	0.146650	0.468920	-0.404497
N7	N	0.482580	0.580880	0.960880	-0.141086
N8	N	0.428120	0.472320	0.023700	-0.148356
N9	N	0.146650	0.628850	0.968920	-0.404497
N10	N	0.419120	0.517420	0.539120	-0.141086
N11	N	0.527680	0.571880	0.476300	-0.148356
N12	N	0.371150	0.853350	0.531080	-0.404497
O1	O	0.409300	0.156600	0.745860	-0.429271
O2	O	0.864370	0.034310	0.692240	-0.574767
O3	O	0.849880	0.033580	0.796980	-0.647126
O4	O	0.041870	0.354910	0.935510	-0.573658
O5	O	0.108240	0.463360	0.928640	-0.616898
O6	O	0.101900	0.429680	0.714070	-0.427497
O7	O	0.046480	0.870820	0.681870	-0.658725
O8	O	0.016710	0.853990	0.785920	-0.609131
O9	O	0.353660	0.059180	0.563760	-0.599861
O10	O	0.459850	0.129930	0.554990	-0.631248
O11	O	0.843400	0.590700	0.754140	-0.429271
O12	O	0.965690	0.135630	0.807760	-0.574767
O13	O	0.966420	0.150120	0.703020	-0.647126
O14	O	0.645090	0.958130	0.564490	-0.573658
O15	O	0.536640	0.891760	0.571360	-0.616898
O16	O	0.570320	0.898100	0.785930	-0.427497
O17	O	0.129180	0.953520	0.818130	-0.658725
O18	O	0.146010	0.983290	0.714080	-0.609131
O19	O	0.940820	0.646340	0.936240	-0.599861
O20	O	0.870070	0.540150	0.945010	-0.631248
O21	O	0.590700	0.843400	0.254140	-0.429271
O22	O	0.135630	0.965690	0.307760	-0.574767
O23	O	0.150120	0.966420	0.203020	-0.647126
O24	O	0.958130	0.645090	0.064490	-0.573658
O25	O	0.891760	0.536640	0.071360	-0.616898
O26	O	0.898100	0.570320	0.285930	-0.427497
O27	O	0.953520	0.129180	0.318130	-0.658725
O28	O	0.983290	0.146010	0.214080	-0.609131
O29	O	0.646340	0.940820	0.436240	-0.599861
O30	O	0.540150	0.870070	0.445010	-0.631248
O31	O	0.156600	0.409300	0.245860	-0.429271
O32	O	0.034310	0.864370	0.192240	-0.574767
O33	O	0.033580	0.849880	0.296980	-0.647126
O34	O	0.354910	0.041870	0.435510	-0.573658
O35	O	0.463360	0.108240	0.428640	-0.616898
O36	O	0.429680	0.101900	0.214070	-0.427497
O37	O	0.870820	0.046480	0.181870	-0.658725
O38	O	0.853990	0.016710	0.285920	-0.609131
O39	O	0.059180	0.353660	0.063760	-0.599861
O40	O	0.129930	0.459850	0.054990	-0.631248
