data_VAHSIH_clean_PM
_symmetry_space_group_name_H-M	'P1'
_cell_length_a	10.373800
_cell_length_b	13.449400
_cell_length_c	14.806000
_cell_angle_alpha	90.000000
_cell_angle_beta	90.000000
_cell_angle_gamma	90.274999
_symmetry_Int_Tables_number 1

loop_
_symmetry_equiv_pos_as_xyz
'x,y,z'

loop_
_atom_site_label
_atom_site_type_symbol
_atom_site_fract_x
_atom_site_fract_y
_atom_site_fract_z
_atom_site_charge
Al1	Al	0.234500	0.650800	0.894700	-2.448452
Al2	Al	0.229600	0.387000	0.100600	-2.449044
Al3	Al	0.507500	0.727800	0.104100	-2.449901
Al4	Al	0.002200	0.384200	0.768000	-2.434814
Al5	Al	0.265500	0.849200	0.394700	-2.448452
Al6	Al	0.270400	0.113000	0.600600	-2.449044
Al7	Al	0.992500	0.772200	0.604100	-2.449901
Al8	Al	0.497800	0.115800	0.268000	-2.434814
Al9	Al	0.765500	0.349200	0.105300	-2.448452
Al10	Al	0.770400	0.613000	0.899400	-2.449044
Al11	Al	0.492500	0.272200	0.895900	-2.449901
Al12	Al	0.997800	0.615800	0.232000	-2.434814
Al13	Al	0.734500	0.150800	0.605300	-2.448452
Al14	Al	0.729600	0.887000	0.399400	-2.449044
Al15	Al	0.007500	0.227800	0.395900	-2.449901
Al16	Al	0.502200	0.884200	0.732000	-2.434814
P1	P	0.232700	0.619800	0.104500	0.784237
P2	P	0.240800	0.402700	0.892100	0.772119
P3	P	0.514200	0.735300	0.894200	0.810168
P4	P	0.000500	0.621600	0.765000	0.791721
P5	P	0.267300	0.880200	0.604500	0.784237
P6	P	0.259200	0.097300	0.392100	0.772119
P7	P	0.985800	0.764700	0.394200	0.810168
P8	P	0.499500	0.878400	0.265000	0.791721
P9	P	0.767300	0.380200	0.895500	0.784237
P10	P	0.759200	0.597300	0.107900	0.772119
P11	P	0.485800	0.264700	0.105800	0.810168
P12	P	0.999500	0.378400	0.235000	0.791721
P13	P	0.732700	0.119800	0.395500	0.784237
P14	P	0.740800	0.902700	0.607900	0.772119
P15	P	0.014200	0.235300	0.605800	0.810168
P16	P	0.500500	0.121600	0.735000	0.791721
O1	O	0.143800	0.356900	0.825200	0.382001
O2	O	0.196300	0.368900	0.986900	0.419777
O3	O	0.247500	0.513100	0.883200	0.339302
O4	O	0.404600	0.663500	0.878300	0.386471
O5	O	0.502200	0.828700	0.837000	0.392699
O6	O	0.521300	0.768700	0.993100	0.408749
O7	O	0.639800	0.683700	0.868000	0.409789
O8	O	0.901500	0.652500	0.836200	0.428368
O9	O	0.989200	0.509900	0.748400	0.396182
O10	O	0.969900	0.672500	0.675500	0.387167
O11	O	0.134100	0.651400	0.796200	0.380431
O12	O	0.262500	0.510300	0.123300	0.412808
O13	O	0.182300	0.634000	0.009800	0.386628
O14	O	0.131000	0.656300	0.171400	0.388416
O15	O	0.355700	0.679400	0.121300	0.395464
O16	O	0.373600	0.358300	0.873300	0.393743
O17	O	0.356200	0.143100	0.325200	0.382001
O18	O	0.303700	0.131100	0.486900	0.419777
O19	O	0.252500	0.986900	0.383200	0.339302
O20	O	0.095400	0.836500	0.378300	0.386471
O21	O	0.997800	0.671300	0.337000	0.392699
O22	O	0.978700	0.731300	0.493100	0.408749
O23	O	0.860200	0.816300	0.368000	0.409789
O24	O	0.598500	0.847500	0.336200	0.428368
O25	O	0.510800	0.990100	0.248400	0.396182
O26	O	0.530100	0.827500	0.175500	0.387167
O27	O	0.365900	0.848600	0.296200	0.380431
O28	O	0.237500	0.989700	0.623300	0.412808
O29	O	0.317700	0.866000	0.509800	0.386628
O30	O	0.369000	0.843700	0.671400	0.388416
O31	O	0.144300	0.820600	0.621300	0.395464
O32	O	0.126400	0.141700	0.373300	0.393743
O33	O	0.856200	0.643100	0.174800	0.382001
O34	O	0.803700	0.631100	0.013100	0.419777
O35	O	0.752500	0.486900	0.116800	0.339302
O36	O	0.595400	0.336500	0.121700	0.386471
O37	O	0.497800	0.171300	0.163000	0.392699
O38	O	0.478700	0.231300	0.006900	0.408749
O39	O	0.360200	0.316300	0.132000	0.409789
O40	O	0.098500	0.347500	0.163800	0.428368
O41	O	0.010800	0.490100	0.251600	0.396182
O42	O	0.030100	0.327500	0.324500	0.387167
O43	O	0.865900	0.348600	0.203800	0.380431
O44	O	0.737500	0.489700	0.876700	0.412808
O45	O	0.817700	0.366000	0.990200	0.386628
O46	O	0.869000	0.343700	0.828600	0.388416
O47	O	0.644300	0.320600	0.878700	0.395464
O48	O	0.626400	0.641700	0.126700	0.393743
O49	O	0.643800	0.856900	0.674800	0.382001
O50	O	0.696300	0.868900	0.513100	0.419777
O51	O	0.747500	0.013100	0.616800	0.339302
O52	O	0.904600	0.163500	0.621700	0.386471
O53	O	0.002200	0.328700	0.663000	0.392699
O54	O	0.021300	0.268700	0.506900	0.408749
O55	O	0.139800	0.183700	0.632000	0.409789
O56	O	0.401500	0.152500	0.663800	0.428368
O57	O	0.489200	0.009900	0.751600	0.396182
O58	O	0.469900	0.172500	0.824500	0.387167
O59	O	0.634100	0.151400	0.703800	0.380431
O60	O	0.762500	0.010300	0.376700	0.412808
O61	O	0.682300	0.134000	0.490200	0.386628
O62	O	0.631000	0.156300	0.328600	0.388416
O63	O	0.855700	0.179400	0.378700	0.395464
O64	O	0.873600	0.858300	0.626700	0.393743
F1	F	0.209100	0.779600	0.908300	0.315970
F2	F	0.290900	0.720400	0.408300	0.315970
F3	F	0.790900	0.220400	0.091700	0.315970
F4	F	0.709100	0.279600	0.591700	0.315970
