data_WAJHIA_clean_PM
_symmetry_space_group_name_H-M	'P1'
_cell_length_a	10.856000
_cell_length_b	16.592000
_cell_length_c	16.592000
_cell_angle_alpha	90.000000
_cell_angle_beta	90.000000
_cell_angle_gamma	90.000000
_symmetry_Int_Tables_number 1

loop_
_symmetry_equiv_pos_as_xyz
'x,y,z'

loop_
_atom_site_label
_atom_site_type_symbol
_atom_site_fract_x
_atom_site_fract_y
_atom_site_fract_z
_atom_site_charge
Li1	Li	0.814500	0.075200	0.246500	-1.976941
Li2	Li	0.314500	0.924800	0.753500	-1.976941
Li3	Li	0.564500	0.253500	0.575200	-1.976941
Li4	Li	0.064500	0.746500	0.424800	-1.976941
Li5	Li	0.935500	0.424800	0.746500	-1.976941
Li6	Li	0.435500	0.575200	0.253500	-1.976941
Li7	Li	0.185500	0.246500	0.075200	-1.976941
Li8	Li	0.685500	0.753500	0.924800	-1.976941
Zn1	Zn	0.900640	0.919700	0.345170	1.152638
Zn2	Zn	0.400640	0.080300	0.654830	1.152638
Zn3	Zn	0.650640	0.154830	0.419700	1.152638
Zn4	Zn	0.150640	0.845170	0.580300	1.152638
Zn5	Zn	0.849360	0.580300	0.845170	1.152638
Zn6	Zn	0.349360	0.419700	0.154830	1.152638
Zn7	Zn	0.099360	0.345170	0.919700	1.152638
Zn8	Zn	0.599360	0.654830	0.080300	1.152638
H1	H	0.657000	0.871200	0.245300	0.184474
H2	H	0.370000	0.733800	0.320800	0.218103
H3	H	0.458000	0.936500	0.443000	0.162391
H4	H	0.826000	0.177400	0.021800	0.149184
H5	H	0.773300	0.096400	0.980000	0.119979
H6	H	0.604500	0.161600	0.933100	0.144974
H7	H	0.675200	0.244100	0.954700	0.136515
H8	H	0.467500	0.199300	0.028100	0.166743
H9	H	0.561400	0.263700	0.066700	0.117836
H10	H	0.157000	0.128800	0.754700	0.184474
H11	H	0.870000	0.266200	0.679200	0.218103
H12	H	0.958000	0.063500	0.557000	0.162391
H13	H	0.326000	0.822600	0.978200	0.149184
H14	H	0.273300	0.903600	0.020000	0.119979
H15	H	0.104500	0.838400	0.066900	0.144974
H16	H	0.175200	0.755900	0.045300	0.136515
H17	H	0.967500	0.800700	0.971900	0.166743
H18	H	0.061400	0.736300	0.933300	0.117836
H19	H	0.407000	0.254700	0.371200	0.184474
H20	H	0.120000	0.179200	0.233800	0.218103
H21	H	0.208000	0.057000	0.436500	0.162391
H22	H	0.576000	0.478200	0.677400	0.149184
H23	H	0.523300	0.520000	0.596400	0.119979
H24	H	0.354500	0.566900	0.661600	0.144974
H25	H	0.425200	0.545300	0.744100	0.136515
H26	H	0.217500	0.471900	0.699300	0.166743
H27	H	0.311400	0.433300	0.763700	0.117836
H28	H	0.907000	0.745300	0.628800	0.184474
H29	H	0.620000	0.820800	0.766200	0.218103
H30	H	0.708000	0.943000	0.563500	0.162391
H31	H	0.076000	0.521800	0.322600	0.149184
H32	H	0.023300	0.480000	0.403600	0.119979
H33	H	0.854500	0.433100	0.338400	0.144974
H34	H	0.925200	0.454700	0.255900	0.136515
H35	H	0.717500	0.528100	0.300700	0.166743
H36	H	0.811400	0.566700	0.236300	0.117836
H37	H	0.093000	0.628800	0.745300	0.184474
H38	H	0.380000	0.766200	0.820800	0.218103
H39	H	0.292000	0.563500	0.943000	0.162391
H40	H	0.924000	0.322600	0.521800	0.149184
H41	H	0.976700	0.403600	0.480000	0.119979
H42	H	0.145500	0.338400	0.433100	0.144974
H43	H	0.074800	0.255900	0.454700	0.136515
H44	H	0.282500	0.300700	0.528100	0.166743
H45	H	0.188600	0.236300	0.566700	0.117836
H46	H	0.593000	0.371200	0.254700	0.184474
H47	H	0.880000	0.233800	0.179200	0.218103
H48	H	0.792000	0.436500	0.057000	0.162391
H49	H	0.424000	0.677400	0.478200	0.149184
H50	H	0.476700	0.596400	0.520000	0.119979
H51	H	0.645500	0.661600	0.566900	0.144974
H52	H	0.574800	0.744100	0.545300	0.136515
H53	H	0.782500	0.699300	0.471900	0.166743
H54	H	0.688600	0.763700	0.433300	0.117836
H55	H	0.343000	0.245300	0.871200	0.184474
H56	H	0.630000	0.320800	0.733800	0.218103
H57	H	0.542000	0.443000	0.936500	0.162391
H58	H	0.174000	0.021800	0.177400	0.149184
H59	H	0.226700	0.980000	0.096400	0.119979
H60	H	0.395500	0.933100	0.161600	0.144974
H61	H	0.324800	0.954700	0.244100	0.136515
H62	H	0.532500	0.028100	0.199300	0.166743
H63	H	0.438600	0.066700	0.263700	0.117836
H64	H	0.843000	0.754700	0.128800	0.184474
H65	H	0.130000	0.679200	0.266200	0.218103
H66	H	0.042000	0.557000	0.063500	0.162391
H67	H	0.674000	0.978200	0.822600	0.149184
H68	H	0.726700	0.020000	0.903600	0.119979
H69	H	0.895500	0.066900	0.838400	0.144974
H70	H	0.824800	0.045300	0.755900	0.136515
H71	H	0.032500	0.971900	0.800700	0.166743
H72	H	0.938600	0.933300	0.736300	0.117836
C1	C	0.643400	0.990500	0.352700	0.314609
C2	C	0.537400	0.736500	0.203400	0.250167
C3	C	0.299400	0.815300	0.449400	0.283902
C4	C	0.569100	0.914500	0.344900	0.026591
C5	C	0.591300	0.861500	0.281800	-0.106109
C6	C	0.515600	0.793000	0.272400	0.061376
C7	C	0.421400	0.779800	0.326900	-0.057849
C8	C	0.400700	0.832800	0.390800	0.033248
C9	C	0.472800	0.900000	0.399900	-0.054585
C10	C	0.696700	0.118700	0.091800	0.222090
C11	C	0.751800	0.143600	0.013800	-0.136030
C12	C	0.644700	0.192500	0.976900	-0.288070
C13	C	0.553300	0.207900	0.046300	0.038828
C14	C	0.143400	0.009500	0.647300	0.314609
C15	C	0.037400	0.263500	0.796600	0.250167
C16	C	0.799400	0.184700	0.550600	0.283902
C17	C	0.069100	0.085500	0.655100	0.026591
C18	C	0.091300	0.138500	0.718200	-0.106109
C19	C	0.015600	0.207000	0.727600	0.061376
C20	C	0.921400	0.220200	0.673100	-0.057849
C21	C	0.900700	0.167200	0.609200	0.033248
C22	C	0.972800	0.100000	0.600100	-0.054585
C23	C	0.196700	0.881300	0.908200	0.222090
C24	C	0.251800	0.856400	0.986200	-0.136030
C25	C	0.144700	0.807500	0.023100	-0.288070
C26	C	0.053300	0.792100	0.953700	0.038828
C27	C	0.393400	0.147300	0.490500	0.314609
C28	C	0.287400	0.296600	0.236500	0.250167
C29	C	0.049400	0.050600	0.315300	0.283902
C30	C	0.319100	0.155100	0.414500	0.026591
C31	C	0.341300	0.218200	0.361500	-0.106109
C32	C	0.265600	0.227600	0.293000	0.061376
C33	C	0.171400	0.173100	0.279800	-0.057849
C34	C	0.150700	0.109200	0.332800	0.033248
C35	C	0.222800	0.100100	0.400000	-0.054585
C36	C	0.446700	0.408200	0.618700	0.222090
C37	C	0.501800	0.486200	0.643600	-0.136030
C38	C	0.394700	0.523100	0.692500	-0.288070
C39	C	0.303300	0.453700	0.707900	0.038828
C40	C	0.893400	0.852700	0.509500	0.314609
C41	C	0.787400	0.703400	0.763500	0.250167
C42	C	0.549400	0.949400	0.684700	0.283902
C43	C	0.819100	0.844900	0.585500	0.026591
C44	C	0.841300	0.781800	0.638500	-0.106109
C45	C	0.765600	0.772400	0.707000	0.061376
C46	C	0.671400	0.826900	0.720200	-0.057849
C47	C	0.650700	0.890800	0.667200	0.033248
C48	C	0.722800	0.899900	0.600000	-0.054585
C49	C	0.946700	0.591800	0.381300	0.222090
C50	C	0.001800	0.513800	0.356400	-0.136030
C51	C	0.894700	0.476900	0.307500	-0.288070
C52	C	0.803300	0.546300	0.292100	0.038828
C53	C	0.106600	0.509500	0.852700	0.314609
C54	C	0.212600	0.763500	0.703400	0.250167
C55	C	0.450600	0.684700	0.949400	0.283902
C56	C	0.180900	0.585500	0.844900	0.026591
C57	C	0.158700	0.638500	0.781800	-0.106109
C58	C	0.234400	0.707000	0.772400	0.061376
C59	C	0.328600	0.720200	0.826900	-0.057849
C60	C	0.349300	0.667200	0.890800	0.033248
C61	C	0.277200	0.600000	0.899900	-0.054585
C62	C	0.053300	0.381300	0.591800	0.222090
C63	C	0.998200	0.356400	0.513800	-0.136030
C64	C	0.105300	0.307500	0.476900	-0.288070
C65	C	0.196700	0.292100	0.546300	0.038828
C66	C	0.606600	0.490500	0.147300	0.314609
C67	C	0.712600	0.236500	0.296600	0.250167
C68	C	0.950600	0.315300	0.050600	0.283902
C69	C	0.680900	0.414500	0.155100	0.026591
C70	C	0.658700	0.361500	0.218200	-0.106109
C71	C	0.734400	0.293000	0.227600	0.061376
C72	C	0.828600	0.279800	0.173100	-0.057849
C73	C	0.849300	0.332800	0.109200	0.033248
C74	C	0.777200	0.400000	0.100100	-0.054585
C75	C	0.553300	0.618700	0.408200	0.222090
C76	C	0.498200	0.643600	0.486200	-0.136030
C77	C	0.605300	0.692500	0.523100	-0.288070
C78	C	0.696700	0.707900	0.453700	0.038828
C79	C	0.356600	0.352700	0.990500	0.314609
C80	C	0.462600	0.203400	0.736500	0.250167
C81	C	0.700600	0.449400	0.815300	0.283902
C82	C	0.430900	0.344900	0.914500	0.026591
C83	C	0.408700	0.281800	0.861500	-0.106109
C84	C	0.484400	0.272400	0.793000	0.061376
C85	C	0.578600	0.326900	0.779800	-0.057849
C86	C	0.599300	0.390800	0.832800	0.033248
C87	C	0.527200	0.399900	0.900000	-0.054585
C88	C	0.303300	0.091800	0.118700	0.222090
C89	C	0.248200	0.013800	0.143600	-0.136030
C90	C	0.355300	0.976900	0.192500	-0.288070
C91	C	0.446700	0.046300	0.207900	0.038828
C92	C	0.856600	0.647300	0.009500	0.314609
C93	C	0.962600	0.796600	0.263500	0.250167
C94	C	0.200600	0.550600	0.184700	0.283902
C95	C	0.930900	0.655100	0.085500	0.026591
C96	C	0.908700	0.718200	0.138500	-0.106109
C97	C	0.984400	0.727600	0.207000	0.061376
C98	C	0.078600	0.673100	0.220200	-0.057849
C99	C	0.099300	0.609200	0.167200	0.033248
C100	C	0.027200	0.600100	0.100000	-0.054585
C101	C	0.803300	0.908200	0.881300	0.222090
C102	C	0.748200	0.986200	0.856400	-0.136030
C103	C	0.855300	0.023100	0.807500	-0.288070
C104	C	0.946700	0.953700	0.792100	0.038828
C105	C	0.500000	0.161000	0.161000	0.224770
C106	C	0.000000	0.839000	0.839000	0.224770
C107	C	0.250000	0.339000	0.661000	0.224770
C108	C	0.750000	0.661000	0.339000	0.224770
N1	N	0.583700	0.154700	0.103400	-0.237085
N2	N	0.083700	0.845300	0.896600	-0.237085
N3	N	0.333700	0.396600	0.654700	-0.237085
N4	N	0.833700	0.603400	0.345300	-0.237085
N5	N	0.166300	0.345300	0.603400	-0.237085
N6	N	0.666300	0.654700	0.396600	-0.237085
N7	N	0.416300	0.103400	0.154700	-0.237085
N8	N	0.916300	0.896600	0.845300	-0.237085
O1	O	0.751900	0.993280	0.323810	0.044514
O2	O	0.589600	0.048910	0.385100	-0.562225
O3	O	0.610500	0.754300	0.148710	-0.485293
O4	O	0.478400	0.671000	0.202000	0.120592
O5	O	0.234600	0.753500	0.441500	0.148359
O6	O	0.286300	0.866300	0.507000	-0.482012
O7	O	0.750800	0.067300	0.140700	0.176699
O8	O	0.251900	0.006720	0.676190	0.044514
O9	O	0.089600	0.951090	0.614900	-0.562225
O10	O	0.110500	0.245700	0.851290	-0.485293
O11	O	0.978400	0.329000	0.798000	0.120592
O12	O	0.734600	0.246500	0.558500	0.148359
O13	O	0.786300	0.133700	0.493000	-0.482012
O14	O	0.250800	0.932700	0.859300	0.176699
O15	O	0.501900	0.176190	0.493280	0.044514
O16	O	0.339600	0.114900	0.548910	-0.562225
O17	O	0.360500	0.351290	0.254300	-0.485293
O18	O	0.228400	0.298000	0.171000	0.120592
O19	O	0.984600	0.058500	0.253500	0.148359
O20	O	0.036300	0.993000	0.366300	-0.482012
O21	O	0.500800	0.359300	0.567300	0.176699
O22	O	0.001900	0.823810	0.506720	0.044514
O23	O	0.839600	0.885100	0.451090	-0.562225
O24	O	0.860500	0.648710	0.745700	-0.485293
O25	O	0.728400	0.702000	0.829000	0.120592
O26	O	0.484600	0.941500	0.746500	0.148359
O27	O	0.536300	0.007000	0.633700	-0.482012
O28	O	0.000800	0.640700	0.432700	0.176699
O29	O	0.998100	0.506720	0.823810	0.044514
O30	O	0.160400	0.451090	0.885100	-0.562225
O31	O	0.139500	0.745700	0.648710	-0.485293
O32	O	0.271600	0.829000	0.702000	0.120592
O33	O	0.515400	0.746500	0.941500	0.148359
O34	O	0.463700	0.633700	0.007000	-0.482012
O35	O	0.999200	0.432700	0.640700	0.176699
O36	O	0.498100	0.493280	0.176190	0.044514
O37	O	0.660400	0.548910	0.114900	-0.562225
O38	O	0.639500	0.254300	0.351290	-0.485293
O39	O	0.771600	0.171000	0.298000	0.120592
O40	O	0.015400	0.253500	0.058500	0.148359
O41	O	0.963700	0.366300	0.993000	-0.482012
O42	O	0.499200	0.567300	0.359300	0.176699
O43	O	0.248100	0.323810	0.993280	0.044514
O44	O	0.410400	0.385100	0.048910	-0.562225
O45	O	0.389500	0.148710	0.754300	-0.485293
O46	O	0.521600	0.202000	0.671000	0.120592
O47	O	0.765400	0.441500	0.753500	0.148359
O48	O	0.713700	0.507000	0.866300	-0.482012
O49	O	0.249200	0.140700	0.067300	0.176699
O50	O	0.748100	0.676190	0.006720	0.044514
O51	O	0.910400	0.614900	0.951090	-0.562225
O52	O	0.889500	0.851290	0.245700	-0.485293
O53	O	0.021600	0.798000	0.329000	0.120592
O54	O	0.265400	0.558500	0.246500	0.148359
O55	O	0.213700	0.493000	0.133700	-0.482012
O56	O	0.749200	0.859300	0.932700	0.176699
