data_WANJIF_clean_PM
_symmetry_space_group_name_H-M	'P1'
_cell_length_a	7.819900
_cell_length_b	10.497100
_cell_length_c	19.081000
_cell_angle_alpha	90.000000
_cell_angle_beta	90.000000
_cell_angle_gamma	90.000000
_symmetry_Int_Tables_number 1

loop_
_symmetry_equiv_pos_as_xyz
'x,y,z'

loop_
_atom_site_label
_atom_site_type_symbol
_atom_site_fract_x
_atom_site_fract_y
_atom_site_fract_z
_atom_site_charge
Cu1	Cu	0.249460	0.410540	0.122400	1.135937
Cu2	Cu	0.250540	0.589460	0.622400	1.135937
Cu3	Cu	0.750540	0.910540	0.377600	1.135937
Cu4	Cu	0.749460	0.089460	0.877600	1.135937
H1	H	0.852700	0.512100	0.067100	0.109744
H2	H	0.270600	0.531200	0.341300	0.133893
H3	H	0.031000	0.792200	0.460700	0.137108
H4	H	0.618700	0.387600	0.093900	0.085404
H5	H	0.316500	0.688000	0.093500	0.105266
H6	H	0.927200	0.775900	0.258800	0.120070
H7	H	0.819700	0.731600	0.055800	0.100181
H8	H	0.544200	0.818100	0.063200	0.125308
H9	H	0.647300	0.487900	0.567100	0.109744
H10	H	0.229400	0.468800	0.841300	0.133893
H11	H	0.469000	0.207800	0.960700	0.137108
H12	H	0.881300	0.612400	0.593900	0.085404
H13	H	0.183500	0.312000	0.593500	0.105266
H14	H	0.572800	0.224100	0.758800	0.120070
H15	H	0.680300	0.268400	0.555800	0.100181
H16	H	0.955800	0.181900	0.563200	0.125308
H17	H	0.147300	0.012100	0.432900	0.109744
H18	H	0.729400	0.031200	0.158700	0.133893
H19	H	0.969000	0.292200	0.039300	0.137108
H20	H	0.381300	0.887600	0.406100	0.085404
H21	H	0.683500	0.188000	0.406500	0.105266
H22	H	0.072800	0.275900	0.241200	0.120070
H23	H	0.180300	0.231600	0.444200	0.100181
H24	H	0.455800	0.318100	0.436800	0.125308
H25	H	0.352700	0.987900	0.932900	0.109744
H26	H	0.770600	0.968800	0.658700	0.133893
H27	H	0.531000	0.707800	0.539300	0.137108
H28	H	0.118700	0.112400	0.906100	0.085404
H29	H	0.816500	0.812000	0.906500	0.105266
H30	H	0.427200	0.724100	0.741200	0.120070
H31	H	0.319700	0.768400	0.944200	0.100181
H32	H	0.044200	0.681900	0.936800	0.125308
C1	C	0.251500	0.607000	0.476690	0.422562
C2	C	0.128100	0.590200	0.215860	0.415876
C3	C	0.164900	0.653700	0.411000	0.030197
C4	C	0.743400	0.550300	0.072700	-0.057259
C5	C	0.191800	0.599500	0.346190	-0.046117
C6	C	0.104200	0.644400	0.288200	0.036697
C7	C	0.048000	0.753300	0.416240	0.094704
C8	C	0.603700	0.476900	0.088700	0.090082
C9	C	0.426900	0.651500	0.088100	0.101901
C10	C	0.987800	0.744200	0.298280	0.084408
C11	C	0.723900	0.678600	0.065000	0.010590
C12	C	0.562300	0.729700	0.070900	-0.097949
C13	C	0.248500	0.393000	0.976690	0.422562
C14	C	0.371900	0.409800	0.715860	0.415876
C15	C	0.335100	0.346300	0.911000	0.030197
C16	C	0.756600	0.449700	0.572700	-0.057259
C17	C	0.308200	0.400500	0.846190	-0.046117
C18	C	0.395800	0.355600	0.788200	0.036697
C19	C	0.452000	0.246700	0.916240	0.094704
C20	C	0.896300	0.523100	0.588700	0.090082
C21	C	0.073100	0.348500	0.588100	0.101901
C22	C	0.512200	0.255800	0.798280	0.084408
C23	C	0.776100	0.321400	0.565000	0.010590
C24	C	0.937700	0.270300	0.570900	-0.097949
C25	C	0.748500	0.107000	0.023310	0.422562
C26	C	0.871900	0.090200	0.284140	0.415876
C27	C	0.835100	0.153700	0.089000	0.030197
C28	C	0.256600	0.050300	0.427300	-0.057259
C29	C	0.808200	0.099500	0.153810	-0.046117
C30	C	0.895800	0.144400	0.211800	0.036697
C31	C	0.952000	0.253300	0.083760	0.094704
C32	C	0.396300	0.976900	0.411300	0.090082
C33	C	0.573100	0.151500	0.411900	0.101901
C34	C	0.012200	0.244200	0.201720	0.084408
C35	C	0.276100	0.178600	0.435000	0.010590
C36	C	0.437700	0.229700	0.429100	-0.097949
C37	C	0.751500	0.893000	0.523310	0.422562
C38	C	0.628100	0.909800	0.784140	0.415876
C39	C	0.664900	0.846300	0.589000	0.030197
C40	C	0.243400	0.949700	0.927300	-0.057259
C41	C	0.691800	0.900500	0.653810	-0.046117
C42	C	0.604200	0.855600	0.711800	0.036697
C43	C	0.548000	0.746700	0.583760	0.094704
C44	C	0.103700	0.023100	0.911300	0.090082
C45	C	0.926900	0.848500	0.911900	0.101901
C46	C	0.487800	0.755800	0.701720	0.084408
C47	C	0.223900	0.821400	0.935000	0.010590
C48	C	0.062300	0.770300	0.929100	-0.097949
N1	N	0.445900	0.526200	0.097370	-0.415736
N2	N	0.957800	0.797100	0.360960	-0.449483
N3	N	0.054100	0.473800	0.597370	-0.415736
N4	N	0.542200	0.202900	0.860960	-0.449483
N5	N	0.554100	0.026200	0.402630	-0.415736
N6	N	0.042200	0.297100	0.139040	-0.449483
N7	N	0.945900	0.973800	0.902630	-0.415736
N8	N	0.457800	0.702900	0.639040	-0.449483
O1	O	0.221600	0.489500	0.214020	-0.681511
O2	O	0.214000	0.670300	0.531770	-0.693019
O3	O	0.060000	0.640600	0.164990	-0.449781
O4	O	0.347800	0.514900	0.473800	-0.449072
O5	O	0.278400	0.510500	0.714020	-0.681511
O6	O	0.286000	0.329700	0.031770	-0.693019
O7	O	0.440000	0.359400	0.664990	-0.449781
O8	O	0.152200	0.485100	0.973800	-0.449072
O9	O	0.778400	0.989500	0.285980	-0.681511
O10	O	0.786000	0.170300	0.968230	-0.693019
O11	O	0.940000	0.140600	0.335010	-0.449781
O12	O	0.652200	0.014900	0.026200	-0.449072
O13	O	0.721600	0.010500	0.785980	-0.681511
O14	O	0.714000	0.829700	0.468230	-0.693019
O15	O	0.560000	0.859400	0.835010	-0.449781
O16	O	0.847800	0.985100	0.526200	-0.449072
