data_WECFAN01_clean_PM
_symmetry_space_group_name_H-M	'P1'
_cell_length_a	8.276000
_cell_length_b	14.360000
_cell_length_c	14.750000
_cell_angle_alpha	90.000000
_cell_angle_beta	90.000000
_cell_angle_gamma	99.746000
_symmetry_Int_Tables_number 1

loop_
_symmetry_equiv_pos_as_xyz
'x,y,z'

loop_
_atom_site_label
_atom_site_type_symbol
_atom_site_fract_x
_atom_site_fract_y
_atom_site_fract_z
_atom_site_charge
Co1	Co	0.907250	0.120090	0.082390	1.280861
Co2	Co	0.592750	0.879910	0.582390	1.280861
Co3	Co	0.092750	0.879910	0.917610	1.280861
Co4	Co	0.407250	0.120090	0.417610	1.280861
H1	H	0.493400	0.839500	0.301800	0.112235
H2	H	0.652500	0.924900	0.056500	0.126587
H3	H	0.503900	0.764900	0.075700	0.082510
H4	H	0.348900	0.801800	0.112100	0.109178
H5	H	0.352200	0.714300	0.238100	0.187143
H6	H	0.344900	0.650500	0.151400	0.179154
H7	H	0.510600	0.678900	0.203900	0.187733
H8	H	0.252300	0.210100	0.106300	0.139409
H9	H	0.440500	0.340900	0.076700	0.101370
H10	H	0.109800	0.437600	0.926100	0.094236
H11	H	0.926100	0.306800	0.961900	0.069187
H12	H	0.369000	0.551500	0.999600	0.109606
H13	H	0.429100	0.503500	0.913300	0.114695
H14	H	0.006600	0.160500	0.801800	0.112235
H15	H	0.847500	0.075100	0.556500	0.126587
H16	H	0.996100	0.235100	0.575700	0.082510
H17	H	0.151100	0.198200	0.612100	0.109178
H18	H	0.147800	0.285700	0.738100	0.187143
H19	H	0.155100	0.349500	0.651400	0.179154
H20	H	0.989400	0.321100	0.703900	0.187733
H21	H	0.247700	0.789900	0.606300	0.139409
H22	H	0.059500	0.659100	0.576700	0.101370
H23	H	0.390200	0.562400	0.426100	0.094236
H24	H	0.573900	0.693200	0.461900	0.069187
H25	H	0.131000	0.448500	0.499600	0.109606
H26	H	0.070900	0.496500	0.413300	0.114695
H27	H	0.506600	0.160500	0.698200	0.112235
H28	H	0.347500	0.075100	0.943500	0.126587
H29	H	0.496100	0.235100	0.924300	0.082510
H30	H	0.651100	0.198200	0.887900	0.109178
H31	H	0.647800	0.285700	0.761900	0.187143
H32	H	0.655100	0.349500	0.848600	0.179154
H33	H	0.489400	0.321100	0.796100	0.187733
H34	H	0.747700	0.789900	0.893700	0.139409
H35	H	0.559500	0.659100	0.923300	0.101370
H36	H	0.890200	0.562400	0.073900	0.094236
H37	H	0.073900	0.693200	0.038100	0.069187
H38	H	0.631000	0.448500	0.000400	0.109606
H39	H	0.570900	0.496500	0.086700	0.114695
H40	H	0.993400	0.839500	0.198200	0.112235
H41	H	0.152500	0.924900	0.443500	0.126587
H42	H	0.003900	0.764900	0.424300	0.082510
H43	H	0.848900	0.801800	0.387900	0.109178
H44	H	0.852200	0.714300	0.261900	0.187143
H45	H	0.844900	0.650500	0.348600	0.179154
H46	H	0.010600	0.678900	0.296100	0.187733
H47	H	0.752300	0.210100	0.393700	0.139409
H48	H	0.940500	0.340900	0.423300	0.101370
H49	H	0.609800	0.437600	0.573900	0.094236
H50	H	0.426100	0.306800	0.538100	0.069187
H51	H	0.869000	0.551500	0.500400	0.109606
H52	H	0.929100	0.503500	0.586700	0.114695
C1	C	0.764400	0.019200	0.244900	0.125989
C2	C	0.663400	0.959500	0.302600	0.053352
C3	C	0.561100	0.881400	0.264400	-0.082301
C4	C	0.559900	0.866100	0.173100	0.014405
C5	C	0.658500	0.932200	0.119100	0.092327
C6	C	0.897200	0.098500	0.277200	0.400175
C7	C	0.648400	0.975900	0.404200	0.520629
C8	C	0.450600	0.782100	0.130300	0.010965
C9	C	0.411400	0.699700	0.185400	-0.691421
C10	C	0.221800	0.257000	0.069700	0.118167
C11	C	0.335800	0.336100	0.052300	-0.125754
C12	C	0.299600	0.406600	0.001000	0.081067
C13	C	0.140900	0.392400	0.964600	-0.164159
C14	C	0.031900	0.313000	0.985200	0.093831
C15	C	0.416500	0.498100	0.978600	-0.244788
C16	C	0.735600	0.980800	0.744900	0.125989
C17	C	0.836600	0.040500	0.802600	0.053352
C18	C	0.938900	0.118600	0.764400	-0.082301
C19	C	0.940100	0.133900	0.673100	0.014405
C20	C	0.841500	0.067800	0.619100	0.092327
C21	C	0.602800	0.901500	0.777200	0.400175
C22	C	0.851600	0.024100	0.904200	0.520629
C23	C	0.049400	0.217900	0.630300	0.010965
C24	C	0.088600	0.300300	0.685400	-0.691421
C25	C	0.278200	0.743000	0.569700	0.118167
C26	C	0.164200	0.663900	0.552300	-0.125754
C27	C	0.200400	0.593400	0.501000	0.081067
C28	C	0.359100	0.607600	0.464600	-0.164159
C29	C	0.468100	0.687000	0.485200	0.093831
C30	C	0.083500	0.501900	0.478600	-0.244788
C31	C	0.235600	0.980800	0.755100	0.125989
C32	C	0.336600	0.040500	0.697400	0.053352
C33	C	0.438900	0.118600	0.735600	-0.082301
C34	C	0.440100	0.133900	0.826900	0.014405
C35	C	0.341500	0.067800	0.880900	0.092327
C36	C	0.102800	0.901500	0.722800	0.400175
C37	C	0.351600	0.024100	0.595800	0.520629
C38	C	0.549400	0.217900	0.869700	0.010965
C39	C	0.588600	0.300300	0.814600	-0.691421
C40	C	0.778200	0.743000	0.930300	0.118167
C41	C	0.664200	0.663900	0.947700	-0.125754
C42	C	0.700400	0.593400	0.999000	0.081067
C43	C	0.859100	0.607600	0.035400	-0.164159
C44	C	0.968100	0.687000	0.014800	0.093831
C45	C	0.583500	0.501900	0.021400	-0.244788
C46	C	0.264400	0.019200	0.255100	0.125989
C47	C	0.163400	0.959500	0.197400	0.053352
C48	C	0.061100	0.881400	0.235600	-0.082301
C49	C	0.059900	0.866100	0.326900	0.014405
C50	C	0.158500	0.932200	0.380900	0.092327
C51	C	0.397200	0.098500	0.222800	0.400175
C52	C	0.148400	0.975900	0.095800	0.520629
C53	C	0.950600	0.782100	0.369700	0.010965
C54	C	0.911400	0.699700	0.314600	-0.691421
C55	C	0.721800	0.257000	0.430300	0.118167
C56	C	0.835800	0.336100	0.447700	-0.125754
C57	C	0.799600	0.406600	0.499000	0.081067
C58	C	0.640900	0.392400	0.535400	-0.164159
C59	C	0.531900	0.313000	0.514800	0.093831
C60	C	0.916500	0.498100	0.521400	-0.244788
N1	N	0.762300	0.006400	0.153200	-0.423198
N2	N	0.069800	0.244000	0.036900	-0.413059
N3	N	0.737700	0.993600	0.653200	-0.423198
N4	N	0.430200	0.756000	0.536900	-0.413059
N5	N	0.237700	0.993600	0.846800	-0.423198
N6	N	0.930200	0.756000	0.963100	-0.413059
N7	N	0.262300	0.006400	0.346800	-0.423198
N8	N	0.569800	0.244000	0.463100	-0.413059
O1	O	0.959000	0.157600	0.217100	-0.609841
O2	O	0.934900	0.099800	0.357800	-0.334941
O3	O	0.606600	0.050100	0.429400	-0.611375
O4	O	0.673500	0.909000	0.452400	-0.703974
O5	O	0.541000	0.842400	0.717100	-0.609841
O6	O	0.565100	0.900200	0.857800	-0.334941
O7	O	0.893400	0.949900	0.929400	-0.611375
O8	O	0.826500	0.091000	0.952400	-0.703974
O9	O	0.041000	0.842400	0.782900	-0.609841
O10	O	0.065100	0.900200	0.642200	-0.334941
O11	O	0.393400	0.949900	0.570600	-0.611375
O12	O	0.326500	0.091000	0.547600	-0.703974
O13	O	0.459000	0.157600	0.282900	-0.609841
O14	O	0.434900	0.099800	0.142200	-0.334941
O15	O	0.106600	0.050100	0.070600	-0.611375
O16	O	0.173500	0.909000	0.047600	-0.703974
