data_WOLRIZ_clean_PM
_symmetry_space_group_name_H-M	'P1'
_cell_length_a	15.500599
_cell_length_b	15.500600
_cell_length_c	18.336738
_cell_angle_alpha	115.002835
_cell_angle_beta	115.002838
_cell_angle_gamma	90.000000
_symmetry_Int_Tables_number 1

loop_
_symmetry_equiv_pos_as_xyz
'x,y,z'

loop_
_atom_site_label
_atom_site_type_symbol
_atom_site_fract_x
_atom_site_fract_y
_atom_site_fract_z
_atom_site_charge
Cu1	Cu	0.884180	0.884180	0.000000	1.006227
Cu2	Cu	0.115820	0.115820	0.000000	1.006227
Cu3	Cu	0.884180	0.115820	0.000000	1.006227
Cu4	Cu	0.115820	0.884180	0.000000	1.006227
Cu5	Cu	0.693640	0.693640	0.810480	0.151443
Cu6	Cu	0.116840	0.116840	0.810480	0.151441
Cu7	Cu	0.693640	0.116840	0.810480	0.151442
Cu8	Cu	0.116840	0.693640	0.810480	0.151442
Cu9	Cu	0.883160	0.306360	0.189520	0.151442
Cu10	Cu	0.306360	0.883160	0.189520	0.151442
Cu11	Cu	0.883160	0.883160	0.189520	0.151441
Cu12	Cu	0.306360	0.306360	0.189520	0.151443
H1	H	0.719900	0.534200	0.697000	0.080972
H2	H	0.660700	0.379200	0.578200	0.089402
H3	H	0.977100	0.162800	0.697000	0.080972
H4	H	0.917500	0.199000	0.578200	0.089402
H5	H	0.534200	0.977100	0.697000	0.080972
H6	H	0.379200	0.917500	0.578200	0.089402
H7	H	0.162800	0.719900	0.697000	0.080972
H8	H	0.199000	0.660700	0.578200	0.089402
H9	H	0.022900	0.465800	0.303000	0.080972
H10	H	0.082500	0.620800	0.421800	0.089402
H11	H	0.280100	0.837200	0.303000	0.080972
H12	H	0.339300	0.801000	0.421800	0.089402
H13	H	0.837200	0.022900	0.303000	0.080972
H14	H	0.801000	0.082500	0.421800	0.089402
H15	H	0.465800	0.280100	0.303000	0.080972
H16	H	0.620800	0.339300	0.421800	0.089402
H17	H	0.280100	0.465800	0.303000	0.080972
H18	H	0.339300	0.620800	0.421800	0.089402
H19	H	0.022900	0.837200	0.303000	0.080972
H20	H	0.082500	0.801000	0.421800	0.089402
H21	H	0.465800	0.022900	0.303000	0.080972
H22	H	0.620800	0.082500	0.421800	0.089402
H23	H	0.837200	0.280100	0.303000	0.080972
H24	H	0.801000	0.339300	0.421800	0.089402
H25	H	0.977100	0.534200	0.697000	0.080972
H26	H	0.917500	0.379200	0.578200	0.089402
H27	H	0.719900	0.162800	0.697000	0.080972
H28	H	0.660700	0.199000	0.578200	0.089402
H29	H	0.162800	0.977100	0.697000	0.080972
H30	H	0.199000	0.917500	0.578200	0.089402
H31	H	0.534200	0.719900	0.697000	0.080972
H32	H	0.379200	0.660700	0.578200	0.089402
C1	C	0.760570	0.502870	0.673940	-0.086252
C2	C	0.725160	0.409560	0.602520	-0.113445
C3	C	0.913370	0.171070	0.673940	-0.086252
C4	C	0.877360	0.192960	0.602520	-0.113445
C5	C	0.502870	0.913370	0.673940	-0.086252
C6	C	0.409560	0.877360	0.602520	-0.113445
C7	C	0.171070	0.760570	0.673940	-0.086252
C8	C	0.192960	0.725160	0.602520	-0.113445
C9	C	0.086630	0.497130	0.326060	-0.086252
C10	C	0.122640	0.590440	0.397480	-0.113445
C11	C	0.239430	0.828930	0.326060	-0.086252
C12	C	0.274840	0.807040	0.397480	-0.113445
C13	C	0.828930	0.086630	0.326060	-0.086252
C14	C	0.807040	0.122640	0.397480	-0.113445
C15	C	0.497130	0.239430	0.326060	-0.086252
C16	C	0.590440	0.274840	0.397480	-0.113445
C17	C	0.239430	0.497130	0.326060	-0.086252
C18	C	0.274840	0.590440	0.397480	-0.113445
C19	C	0.086630	0.828930	0.326060	-0.086252
C20	C	0.122640	0.807040	0.397480	-0.113445
C21	C	0.497130	0.086630	0.326060	-0.086252
C22	C	0.590440	0.122640	0.397480	-0.113445
C23	C	0.828930	0.239430	0.326060	-0.086252
C24	C	0.807040	0.274840	0.397480	-0.113445
C25	C	0.913370	0.502870	0.673940	-0.086252
C26	C	0.877360	0.409560	0.602520	-0.113445
C27	C	0.760570	0.171070	0.673940	-0.086252
C28	C	0.725160	0.192960	0.602520	-0.113445
C29	C	0.171070	0.913370	0.673940	-0.086252
C30	C	0.192960	0.877360	0.602520	-0.113445
C31	C	0.502870	0.760570	0.673940	-0.086252
C32	C	0.409560	0.725160	0.602520	-0.113445
C33	C	0.896080	0.646880	0.792160	0.178391
C34	C	0.855730	0.550230	0.711460	0.034778
C35	C	0.783140	0.360140	0.566280	0.044982
C36	C	0.896080	0.145280	0.792160	0.178391
C37	C	0.855730	0.161230	0.711460	0.034778
C38	C	0.783140	0.206140	0.566280	0.044982
C39	C	0.646880	0.896080	0.792160	0.178391
C40	C	0.550230	0.855730	0.711460	0.034778
C41	C	0.360140	0.783140	0.566280	0.044982
C42	C	0.145280	0.896080	0.792160	0.178391
C43	C	0.161230	0.855730	0.711460	0.034778
C44	C	0.206140	0.783140	0.566280	0.044982
C45	C	0.103920	0.353120	0.207840	0.178391
C46	C	0.144270	0.449770	0.288540	0.034778
C47	C	0.216860	0.639860	0.433720	0.044982
C48	C	0.103920	0.854720	0.207840	0.178391
C49	C	0.144270	0.838770	0.288540	0.034778
C50	C	0.216860	0.793860	0.433720	0.044982
C51	C	0.854720	0.103920	0.207840	0.178391
C52	C	0.838770	0.144270	0.288540	0.034778
C53	C	0.793860	0.216860	0.433720	0.044982
C54	C	0.353120	0.103920	0.207840	0.178391
C55	C	0.449770	0.144270	0.288540	0.034778
C56	C	0.639860	0.216860	0.433720	0.044982
C57	C	0.750000	0.250000	0.500000	-0.042135
C58	C	0.250000	0.750000	0.500000	-0.042135
N1	N	0.909450	0.775600	0.904320	-0.211567
N2	N	0.845060	0.695060	0.833980	-0.167685
N3	N	0.994870	0.128720	0.904320	-0.211566
N4	N	0.988920	0.138920	0.833980	-0.167685
N5	N	0.775600	0.994870	0.904320	-0.211566
N6	N	0.695060	0.988920	0.833980	-0.167684
N7	N	0.128720	0.909450	0.904320	-0.211568
N8	N	0.138920	0.845060	0.833980	-0.167685
N9	N	0.005130	0.224400	0.095680	-0.211566
N10	N	0.011080	0.304940	0.166020	-0.167685
N11	N	0.090550	0.871280	0.095680	-0.211568
N12	N	0.154940	0.861080	0.166020	-0.167685
N13	N	0.871280	0.005130	0.095680	-0.211566
N14	N	0.861080	0.011080	0.166020	-0.167685
N15	N	0.224400	0.090550	0.095680	-0.211567
N16	N	0.304940	0.154940	0.166020	-0.167685
N17	N	0.090550	0.224400	0.095680	-0.211567
N18	N	0.154940	0.304940	0.166020	-0.167685
N19	N	0.005130	0.871280	0.095680	-0.211566
N20	N	0.011080	0.861080	0.166020	-0.167685
N21	N	0.224400	0.005130	0.095680	-0.211566
N22	N	0.304940	0.011080	0.166020	-0.167684
N23	N	0.871280	0.090550	0.095680	-0.211568
N24	N	0.861080	0.154940	0.166020	-0.167685
N25	N	0.994870	0.775600	0.904320	-0.211566
N26	N	0.988920	0.695060	0.833980	-0.167685
N27	N	0.909450	0.128720	0.904320	-0.211568
N28	N	0.845060	0.138920	0.833980	-0.167685
N29	N	0.128720	0.994870	0.904320	-0.211566
N30	N	0.138920	0.988920	0.833980	-0.167685
N31	N	0.775600	0.909450	0.904320	-0.211567
N32	N	0.695060	0.845060	0.833980	-0.167685
Cl1	Cl	0.000000	0.000000	0.000000	-0.680179
