data_XANMIJ_clean_PM
_symmetry_space_group_name_H-M	'P1'
_cell_length_a	7.047200
_cell_length_b	13.491900
_cell_length_c	13.491900
_cell_angle_alpha	97.136400
_cell_angle_beta	98.658498
_cell_angle_gamma	98.658498
_symmetry_Int_Tables_number 1

loop_
_symmetry_equiv_pos_as_xyz
'x,y,z'

loop_
_atom_site_label
_atom_site_type_symbol
_atom_site_fract_x
_atom_site_fract_y
_atom_site_fract_z
_atom_site_charge
Co1	Co	0.000000	0.000000	0.000000	1.160818
Co2	Co	0.500000	0.000000	0.500000	1.174465
Co3	Co	0.500000	0.500000	0.000000	1.174465
H1	H	0.061400	0.002800	0.774600	0.105749
H2	H	0.581900	0.006100	0.884300	0.102077
H3	H	0.414500	0.007200	0.725400	0.098677
H4	H	0.938600	0.225400	0.997200	0.105749
H5	H	0.418100	0.115700	0.993900	0.102077
H6	H	0.585500	0.274600	0.992800	0.098677
H7	H	0.938600	0.997200	0.225400	0.105749
H8	H	0.418100	0.993900	0.115700	0.102077
H9	H	0.585500	0.992800	0.274600	0.098677
H10	H	0.061400	0.774600	0.002800	0.105749
H11	H	0.581900	0.884300	0.006100	0.102077
H12	H	0.414500	0.725400	0.007200	0.098677
C1	C	0.827700	0.002560	0.669660	0.132778
C2	C	0.928100	0.003210	0.765870	0.099392
C3	C	0.648900	0.005420	0.829960	0.088116
C4	C	0.547300	0.005610	0.733650	0.098924
C5	C	0.921300	0.000780	0.579880	0.189150
C6	C	0.172300	0.330340	0.997440	0.132778
C7	C	0.071900	0.234130	0.996790	0.099392
C8	C	0.351100	0.170040	0.994580	0.088116
C9	C	0.452700	0.266350	0.994390	0.098924
C10	C	0.078700	0.420120	0.999220	0.189150
C11	C	0.172300	0.997440	0.330340	0.132778
C12	C	0.071900	0.996790	0.234130	0.099392
C13	C	0.351100	0.994580	0.170040	0.088116
C14	C	0.452700	0.994390	0.266350	0.098924
C15	C	0.078700	0.999220	0.420120	0.189150
C16	C	0.827700	0.669660	0.002560	0.132778
C17	C	0.928100	0.765870	0.003210	0.099392
C18	C	0.648900	0.829960	0.005420	0.088116
C19	C	0.547300	0.733650	0.005610	0.098924
C20	C	0.921300	0.579880	0.000780	0.189150
N1	N	0.633800	0.003570	0.652870	-0.416174
N2	N	0.839900	0.004360	0.846960	-0.414878
N3	N	0.806700	0.999850	0.490810	-0.281571
N4	N	0.114000	0.000200	0.591820	-0.084615
N5	N	0.366200	0.347130	0.996430	-0.416174
N6	N	0.160100	0.153040	0.995640	-0.414878
N7	N	0.193300	0.509190	0.000150	-0.281571
N8	N	0.886000	0.408180	0.999800	-0.084615
N9	N	0.366200	0.996430	0.347130	-0.416174
N10	N	0.160100	0.995640	0.153040	-0.414878
N11	N	0.193300	0.000150	0.509190	-0.281571
N12	N	0.886000	0.999800	0.408180	-0.084615
N13	N	0.633800	0.652870	0.003570	-0.416174
N14	N	0.839900	0.846960	0.004360	-0.414878
N15	N	0.806700	0.490810	0.999850	-0.281571
N16	N	0.114000	0.591820	0.000200	-0.084615
Cl1	Cl	0.604300	0.176520	0.524680	-0.335893
Cl2	Cl	0.395700	0.475320	0.823480	-0.335893
Cl3	Cl	0.395700	0.823480	0.475320	-0.335893
Cl4	Cl	0.604300	0.524680	0.176520	-0.335893
Cl5	Cl	0.764220	0.076880	0.076880	-0.518337
Cl6	Cl	0.235780	0.923120	0.923120	-0.518337
