data_XENMIO_clean_PM
_symmetry_space_group_name_H-M	'P1'
_cell_length_a	6.310800
_cell_length_b	12.639000
_cell_length_c	15.631000
_cell_angle_alpha	95.723001
_cell_angle_beta	99.878000
_cell_angle_gamma	97.860000
_symmetry_Int_Tables_number 1

loop_
_symmetry_equiv_pos_as_xyz
'x,y,z'

loop_
_atom_site_label
_atom_site_type_symbol
_atom_site_fract_x
_atom_site_fract_y
_atom_site_fract_z
_atom_site_charge
Zn1	Zn	0.479960	0.045820	0.899450	1.190783
Zn2	Zn	0.941430	0.038060	0.813730	1.172939
Zn3	Zn	0.520040	0.954180	0.100550	1.190783
Zn4	Zn	0.058570	0.961940	0.186270	1.172939
Zn5	Zn	0.000000	0.000000	0.000000	1.187305
H1	H	0.816300	0.269900	0.644200	0.141843
H2	H	0.422900	0.486800	0.588800	0.140728
H3	H	0.356100	0.317100	0.788200	0.147929
H4	H	0.532300	0.576600	0.795800	0.103540
H5	H	0.544300	0.729000	0.891900	0.140801
H6	H	0.894600	0.693900	0.841900	0.120408
H7	H	0.881200	0.542000	0.745100	0.105504
H8	H	0.450700	0.252800	0.457700	0.109074
H9	H	0.477800	0.128500	0.343900	0.127979
H10	H	0.103900	0.254500	0.364500	0.117074
H11	H	0.067500	0.383900	0.473300	0.121155
H12	H	0.183700	0.730100	0.355800	0.141843
H13	H	0.577100	0.513200	0.411200	0.140728
H14	H	0.643900	0.682900	0.211800	0.147929
H15	H	0.467700	0.423400	0.204200	0.103540
H16	H	0.455700	0.271000	0.108100	0.140801
H17	H	0.105400	0.306100	0.158100	0.120408
H18	H	0.118800	0.458000	0.254900	0.105504
H19	H	0.549300	0.747200	0.542300	0.109074
H20	H	0.522200	0.871500	0.656100	0.127979
H21	H	0.896100	0.745500	0.635500	0.117074
H22	H	0.932500	0.616100	0.526700	0.121155
C1	C	0.669400	0.195680	0.779990	0.455595
C2	C	0.597800	0.279780	0.724330	0.043046
C3	C	0.701600	0.304470	0.655880	-0.050314
C4	C	0.632800	0.380640	0.605600	0.161814
C5	C	0.466100	0.434280	0.622600	-0.115241
C6	C	0.364900	0.408700	0.690370	0.160456
C7	C	0.426300	0.332920	0.742250	-0.073925
C8	C	0.206300	0.544580	0.761050	0.190661
C9	C	0.403800	0.600270	0.804830	-0.151423
C10	C	0.410400	0.691540	0.862340	0.006867
C11	C	0.220500	0.728150	0.876720	0.056007
C12	C	0.023400	0.670750	0.832530	-0.063819
C13	C	0.014900	0.579700	0.774760	-0.071071
C14	C	0.225100	0.827230	0.936640	0.412530
C15	C	0.755900	0.329480	0.475620	0.176002
C16	C	0.581700	0.253700	0.437950	-0.139611
C17	C	0.598800	0.178500	0.370870	-0.020317
C18	C	0.795600	0.176650	0.342990	0.053460
C19	C	0.970800	0.254300	0.382410	-0.106197
C20	C	0.949900	0.331100	0.447940	-0.024145
C21	C	0.817500	0.093680	0.271580	0.441150
C22	C	0.330600	0.804320	0.220010	0.455595
C23	C	0.402200	0.720220	0.275670	0.043046
C24	C	0.298400	0.695530	0.344120	-0.050314
C25	C	0.367200	0.619360	0.394400	0.161814
C26	C	0.533900	0.565720	0.377400	-0.115241
C27	C	0.635100	0.591300	0.309630	0.160456
C28	C	0.573700	0.667080	0.257750	-0.073925
C29	C	0.793700	0.455420	0.238950	0.190661
C30	C	0.596200	0.399730	0.195170	-0.151423
C31	C	0.589600	0.308460	0.137660	0.006867
C32	C	0.779500	0.271850	0.123280	0.056007
C33	C	0.976600	0.329250	0.167470	-0.063819
C34	C	0.985100	0.420300	0.225240	-0.071071
C35	C	0.774900	0.172770	0.063360	0.412530
C36	C	0.244100	0.670520	0.524380	0.176002
C37	C	0.418300	0.746300	0.562050	-0.139611
C38	C	0.401200	0.821500	0.629130	-0.020317
C39	C	0.204400	0.823350	0.657010	0.053460
C40	C	0.029200	0.745700	0.617590	-0.106197
C41	C	0.050100	0.668900	0.552060	-0.024145
C42	C	0.182500	0.906320	0.728420	0.441150
O1	O	0.749900	0.981240	0.892170	-0.756079
O2	O	0.186100	0.082090	0.913910	-0.740700
O3	O	0.579700	0.180610	0.843670	-0.525797
O4	O	0.817400	0.148190	0.757340	-0.638162
O5	O	0.181900	0.454290	0.702660	-0.399675
O6	O	0.048200	0.849410	0.952370	-0.477617
O7	O	0.409000	0.885020	0.967880	-0.551914
O8	O	0.739700	0.410920	0.539030	-0.416071
O9	O	0.647200	0.045940	0.222780	-0.530363
O10	O	0.007200	0.077900	0.265380	-0.638554
O11	O	0.250100	0.018760	0.107830	-0.756079
O12	O	0.813900	0.917910	0.086090	-0.740700
O13	O	0.420300	0.819390	0.156330	-0.525797
O14	O	0.182600	0.851810	0.242660	-0.638162
O15	O	0.818100	0.545710	0.297340	-0.399675
O16	O	0.951800	0.150590	0.047630	-0.477617
O17	O	0.591000	0.114980	0.032120	-0.551914
O18	O	0.260300	0.589080	0.460970	-0.416071
O19	O	0.352800	0.954060	0.777220	-0.530363
O20	O	0.992800	0.922100	0.734620	-0.638554
