data_XEQGEH_clean_PM
_symmetry_space_group_name_H-M	'P1'
_cell_length_a	11.972000
_cell_length_b	12.043000
_cell_length_c	27.792000
_cell_angle_alpha	90.000000
_cell_angle_beta	99.959002
_cell_angle_gamma	90.000000
_symmetry_Int_Tables_number 1

loop_
_symmetry_equiv_pos_as_xyz
'x,y,z'

loop_
_atom_site_label
_atom_site_type_symbol
_atom_site_fract_x
_atom_site_fract_y
_atom_site_fract_z
_atom_site_charge
Zn1	Zn	0.765980	0.457870	0.451220	1.111331
Zn2	Zn	0.265980	0.042130	0.951220	1.111331
Zn3	Zn	0.734020	0.957870	0.048780	1.111331
Zn4	Zn	0.234020	0.542130	0.548780	1.111331
H1	H	0.945200	0.584800	0.393400	0.069804
H2	H	0.348700	0.092100	0.759000	0.102704
H3	H	0.412700	0.023400	0.692000	0.068602
H4	H	0.589600	0.073600	0.675600	0.109276
H5	H	0.638300	0.263700	0.795400	0.110382
H6	H	0.462500	0.211600	0.812300	0.083413
H7	H	0.926600	0.318000	0.750800	0.097139
H8	H	0.075200	0.296800	0.815700	0.104586
H9	H	0.933500	0.025800	0.856400	0.107287
H10	H	0.772900	0.050900	0.796000	0.105348
H11	H	0.905800	0.151900	0.680500	0.096607
H12	H	0.928500	0.198900	0.602700	0.103432
H13	H	0.646300	0.382800	0.587300	0.113350
H14	H	0.620100	0.331500	0.664700	0.107214
H15	H	0.587900	0.645300	0.440900	0.100220
H16	H	0.825000	0.876900	0.467300	0.072358
H17	H	0.916100	0.695600	0.471400	0.097195
H18	H	0.467000	0.785000	0.471600	0.105555
H19	H	0.328100	0.918100	0.458700	0.105164
H20	H	0.534700	0.122400	0.402100	0.114140
H21	H	0.677400	0.989600	0.414700	0.097634
H22	H	0.192500	0.014000	0.403000	0.094092
H23	H	0.050600	0.147000	0.393800	0.093055
H24	H	0.282500	0.387700	0.426500	0.108995
H25	H	0.426300	0.255100	0.433800	0.111580
H26	H	0.950300	0.280400	0.441700	0.109727
H27	H	0.118000	0.498400	0.374900	0.072354
H28	H	0.445200	0.915200	0.893400	0.069804
H29	H	0.848700	0.407900	0.259000	0.102704
H30	H	0.912700	0.476600	0.192000	0.068602
H31	H	0.089600	0.426400	0.175600	0.109276
H32	H	0.138300	0.236300	0.295400	0.110382
H33	H	0.962500	0.288400	0.312300	0.083413
H34	H	0.426600	0.182000	0.250800	0.097139
H35	H	0.575200	0.203200	0.315700	0.104586
H36	H	0.433500	0.474200	0.356400	0.107287
H37	H	0.272900	0.449100	0.296000	0.105348
H38	H	0.405800	0.348100	0.180500	0.096607
H39	H	0.428500	0.301100	0.102700	0.103432
H40	H	0.146300	0.117200	0.087300	0.113350
H41	H	0.120100	0.168500	0.164700	0.107214
H42	H	0.087900	0.854700	0.940900	0.100220
H43	H	0.325000	0.623100	0.967300	0.072358
H44	H	0.416100	0.804400	0.971400	0.097195
H45	H	0.967000	0.715000	0.971600	0.105555
H46	H	0.828100	0.581900	0.958700	0.105164
H47	H	0.034700	0.377600	0.902100	0.114140
H48	H	0.177400	0.510400	0.914700	0.097634
H49	H	0.692500	0.486000	0.903000	0.094092
H50	H	0.550600	0.353000	0.893800	0.093055
H51	H	0.782500	0.112300	0.926500	0.108995
H52	H	0.926300	0.244900	0.933800	0.111580
H53	H	0.450300	0.219600	0.941700	0.109727
H54	H	0.618000	0.001600	0.874900	0.072354
H55	H	0.554800	0.084800	0.106600	0.069804
H56	H	0.151300	0.592100	0.741000	0.102704
H57	H	0.087300	0.523400	0.808000	0.068602
H58	H	0.910400	0.573600	0.824400	0.109276
H59	H	0.861700	0.763700	0.704600	0.110382
H60	H	0.037500	0.711600	0.687700	0.083413
H61	H	0.573400	0.818000	0.749200	0.097139
H62	H	0.424800	0.796800	0.684300	0.104586
H63	H	0.566500	0.525800	0.643600	0.107287
H64	H	0.727100	0.550900	0.704000	0.105348
H65	H	0.594200	0.651900	0.819500	0.096607
H66	H	0.571500	0.698900	0.897300	0.103432
H67	H	0.853700	0.882800	0.912700	0.113350
H68	H	0.879900	0.831500	0.835300	0.107214
H69	H	0.912100	0.145300	0.059100	0.100220
H70	H	0.675000	0.376900	0.032700	0.072358
H71	H	0.583900	0.195600	0.028600	0.097195
H72	H	0.033000	0.285000	0.028400	0.105555
H73	H	0.171900	0.418100	0.041300	0.105164
H74	H	0.965300	0.622400	0.097900	0.114140
H75	H	0.822600	0.489600	0.085300	0.097634
H76	H	0.307500	0.514000	0.097000	0.094092
H77	H	0.449400	0.647000	0.106200	0.093055
H78	H	0.217500	0.887700	0.073500	0.108995
H79	H	0.073700	0.755100	0.066200	0.111580
H80	H	0.549700	0.780400	0.058300	0.109727
H81	H	0.382000	0.998400	0.125100	0.072354
H82	H	0.054800	0.415200	0.606600	0.069804
H83	H	0.651300	0.907900	0.241000	0.102704
H84	H	0.587300	0.976600	0.308000	0.068602
H85	H	0.410400	0.926400	0.324400	0.109276
H86	H	0.361700	0.736300	0.204600	0.110382
H87	H	0.537500	0.788400	0.187700	0.083413
H88	H	0.073400	0.682000	0.249200	0.097139
H89	H	0.924800	0.703200	0.184300	0.104586
H90	H	0.066500	0.974200	0.143600	0.107287
H91	H	0.227100	0.949100	0.204000	0.105348
H92	H	0.094200	0.848100	0.319500	0.096607
H93	H	0.071500	0.801100	0.397300	0.103432
H94	H	0.353700	0.617200	0.412700	0.113350
H95	H	0.379900	0.668500	0.335300	0.107214
H96	H	0.412100	0.354700	0.559100	0.100220
H97	H	0.175000	0.123100	0.532700	0.072358
H98	H	0.083900	0.304400	0.528600	0.097195
H99	H	0.533000	0.215000	0.528400	0.105555
H100	H	0.671900	0.081900	0.541300	0.105164
H101	H	0.465300	0.877600	0.597900	0.114140
H102	H	0.322600	0.010400	0.585300	0.097634
H103	H	0.807500	0.986000	0.597000	0.094092
H104	H	0.949400	0.853000	0.606200	0.093055
H105	H	0.717500	0.612300	0.573500	0.108995
H106	H	0.573700	0.744900	0.566200	0.111580
H107	H	0.049700	0.719600	0.558300	0.109727
H108	H	0.882000	0.501600	0.625100	0.072354
C1	C	0.968200	0.512300	0.401120	0.076111
C2	C	0.419900	0.112400	0.753000	-0.168015
C3	C	0.458200	0.071800	0.712900	0.001978
C4	C	0.563900	0.101400	0.702900	-0.138374
C5	C	0.631400	0.174500	0.735300	0.134171
C6	C	0.593200	0.214700	0.774600	-0.144344
C7	C	0.487500	0.184300	0.784700	0.007562
C8	C	0.834600	0.186100	0.765820	0.127621
C9	C	0.925700	0.259400	0.772500	-0.107595
C10	C	0.015500	0.246300	0.811300	-0.104043
C11	C	0.015800	0.158600	0.843100	0.049861
C12	C	0.930300	0.087200	0.835900	-0.044900
C13	C	0.834100	0.099400	0.798450	-0.139729
C14	C	0.120200	0.144200	0.884400	0.423087
C15	C	0.759100	0.233600	0.680060	0.126522
C16	C	0.852200	0.196800	0.661480	-0.111830
C17	C	0.866300	0.226100	0.614920	-0.119309
C18	C	0.790200	0.295200	0.585880	0.047370
C19	C	0.697900	0.335000	0.605720	-0.062404
C20	C	0.682000	0.304500	0.652200	-0.135398
C21	C	0.806900	0.326700	0.535220	0.413996
C22	C	0.658300	0.679800	0.447900	0.175841
C23	C	0.788600	0.808600	0.462440	0.048130
C24	C	0.838300	0.708500	0.464740	0.067584
C25	C	0.586600	0.873900	0.443970	0.103924
C26	C	0.480700	0.852500	0.457490	-0.074325
C27	C	0.398000	0.932100	0.449600	-0.094724
C28	C	0.415900	0.033800	0.428280	0.029339
C29	C	0.521200	0.054300	0.415800	-0.109329
C30	C	0.607200	0.975000	0.423400	-0.073438
C31	C	0.325400	0.119500	0.420230	0.035222
C32	C	0.211400	0.088500	0.407810	-0.112041
C33	C	0.126100	0.168000	0.402630	-0.104882
C34	C	0.154300	0.278600	0.410700	0.103710
C35	C	0.264900	0.312800	0.421940	-0.035878
C36	C	0.350900	0.232800	0.426470	-0.109622
C37	C	0.970800	0.345900	0.427810	0.182191
C38	C	0.064100	0.465600	0.390780	0.052749
C39	C	0.468200	0.987700	0.901120	0.076111
C40	C	0.919900	0.387600	0.253000	-0.168015
C41	C	0.958200	0.428200	0.212900	0.001978
C42	C	0.063900	0.398600	0.202900	-0.138374
C43	C	0.131400	0.325500	0.235300	0.134171
C44	C	0.093200	0.285300	0.274600	-0.144344
C45	C	0.987500	0.315700	0.284700	0.007562
C46	C	0.334600	0.313900	0.265820	0.127621
C47	C	0.425700	0.240600	0.272500	-0.107595
C48	C	0.515500	0.253700	0.311300	-0.104043
C49	C	0.515800	0.341400	0.343100	0.049861
C50	C	0.430300	0.412800	0.335900	-0.044900
C51	C	0.334100	0.400600	0.298450	-0.139729
C52	C	0.620200	0.355800	0.384400	0.423087
C53	C	0.259100	0.266400	0.180060	0.126522
C54	C	0.352200	0.303200	0.161480	-0.111830
C55	C	0.366300	0.273900	0.114920	-0.119309
C56	C	0.290200	0.204800	0.085880	0.047370
C57	C	0.197900	0.165000	0.105720	-0.062404
C58	C	0.182000	0.195500	0.152200	-0.135398
C59	C	0.306900	0.173300	0.035220	0.413996
C60	C	0.158300	0.820200	0.947900	0.175841
C61	C	0.288600	0.691400	0.962440	0.048130
C62	C	0.338300	0.791500	0.964740	0.067584
C63	C	0.086600	0.626100	0.943970	0.103924
C64	C	0.980700	0.647500	0.957490	-0.074325
C65	C	0.898000	0.567900	0.949600	-0.094724
C66	C	0.915900	0.466200	0.928280	0.029339
C67	C	0.021200	0.445700	0.915800	-0.109329
C68	C	0.107200	0.525000	0.923400	-0.073438
C69	C	0.825400	0.380500	0.920230	0.035222
C70	C	0.711400	0.411500	0.907810	-0.112041
C71	C	0.626100	0.332000	0.902630	-0.104882
C72	C	0.654300	0.221400	0.910700	0.103710
C73	C	0.764900	0.187200	0.921940	-0.035878
C74	C	0.850900	0.267200	0.926470	-0.109622
C75	C	0.470800	0.154100	0.927810	0.182191
C76	C	0.564100	0.034400	0.890780	0.052749
C77	C	0.531800	0.012300	0.098880	0.076111
C78	C	0.080100	0.612400	0.747000	-0.168015
C79	C	0.041800	0.571800	0.787100	0.001978
C80	C	0.936100	0.601400	0.797100	-0.138374
C81	C	0.868600	0.674500	0.764700	0.134171
C82	C	0.906800	0.714700	0.725400	-0.144344
C83	C	0.012500	0.684300	0.715300	0.007562
C84	C	0.665400	0.686100	0.734180	0.127621
C85	C	0.574300	0.759400	0.727500	-0.107595
C86	C	0.484500	0.746300	0.688700	-0.104043
C87	C	0.484200	0.658600	0.656900	0.049861
C88	C	0.569700	0.587200	0.664100	-0.044900
C89	C	0.665900	0.599400	0.701550	-0.139729
C90	C	0.379800	0.644200	0.615600	0.423087
C91	C	0.740900	0.733600	0.819940	0.126522
C92	C	0.647800	0.696800	0.838520	-0.111830
C93	C	0.633700	0.726100	0.885080	-0.119309
C94	C	0.709800	0.795200	0.914120	0.047370
C95	C	0.802100	0.835000	0.894280	-0.062404
C96	C	0.818000	0.804500	0.847800	-0.135398
C97	C	0.693100	0.826700	0.964780	0.413996
C98	C	0.841700	0.179800	0.052100	0.175841
C99	C	0.711400	0.308600	0.037560	0.048130
C100	C	0.661700	0.208500	0.035260	0.067584
C101	C	0.913400	0.373900	0.056030	0.103924
C102	C	0.019300	0.352500	0.042510	-0.074325
C103	C	0.102000	0.432100	0.050400	-0.094724
C104	C	0.084100	0.533800	0.071720	0.029339
C105	C	0.978800	0.554300	0.084200	-0.109329
C106	C	0.892800	0.475000	0.076600	-0.073438
C107	C	0.174600	0.619500	0.079770	0.035222
C108	C	0.288600	0.588500	0.092190	-0.112041
C109	C	0.373900	0.668000	0.097370	-0.104882
C110	C	0.345700	0.778600	0.089300	0.103710
C111	C	0.235100	0.812800	0.078060	-0.035878
C112	C	0.149100	0.732800	0.073530	-0.109622
C113	C	0.529200	0.845900	0.072190	0.182191
C114	C	0.435900	0.965600	0.109220	0.052749
C115	C	0.031800	0.487700	0.598880	0.076111
C116	C	0.580100	0.887600	0.247000	-0.168015
C117	C	0.541800	0.928200	0.287100	0.001978
C118	C	0.436100	0.898600	0.297100	-0.138374
C119	C	0.368600	0.825500	0.264700	0.134171
C120	C	0.406800	0.785300	0.225400	-0.144344
C121	C	0.512500	0.815700	0.215300	0.007562
C122	C	0.165400	0.813900	0.234180	0.127621
C123	C	0.074300	0.740600	0.227500	-0.107595
C124	C	0.984500	0.753700	0.188700	-0.104043
C125	C	0.984200	0.841400	0.156900	0.049861
C126	C	0.069700	0.912800	0.164100	-0.044900
C127	C	0.165900	0.900600	0.201550	-0.139729
C128	C	0.879800	0.855800	0.115600	0.423087
C129	C	0.240900	0.766400	0.319940	0.126522
C130	C	0.147800	0.803200	0.338520	-0.111830
C131	C	0.133700	0.773900	0.385080	-0.119309
C132	C	0.209800	0.704800	0.414120	0.047370
C133	C	0.302100	0.665000	0.394280	-0.062404
C134	C	0.318000	0.695500	0.347800	-0.135398
C135	C	0.193100	0.673300	0.464780	0.413996
C136	C	0.341700	0.320200	0.552100	0.175841
C137	C	0.211400	0.191400	0.537560	0.048130
C138	C	0.161700	0.291500	0.535260	0.067584
C139	C	0.413400	0.126100	0.556030	0.103924
C140	C	0.519300	0.147500	0.542510	-0.074325
C141	C	0.602000	0.067900	0.550400	-0.094724
C142	C	0.584100	0.966200	0.571720	0.029339
C143	C	0.478800	0.945700	0.584200	-0.109329
C144	C	0.392800	0.025000	0.576600	-0.073438
C145	C	0.674600	0.880500	0.579770	0.035222
C146	C	0.788600	0.911500	0.592190	-0.112041
C147	C	0.873900	0.832000	0.597370	-0.104882
C148	C	0.845700	0.721400	0.589300	0.103710
C149	C	0.735100	0.687200	0.578060	-0.035878
C150	C	0.649100	0.767200	0.573530	-0.109622
C151	C	0.029200	0.654100	0.572190	0.182191
C152	C	0.935900	0.534400	0.609220	0.052749
N1	N	0.910400	0.438100	0.424380	-0.460131
N2	N	0.743200	0.202300	0.727120	-0.299076
N3	N	0.755000	0.627200	0.455490	-0.430489
N4	N	0.673500	0.791000	0.451570	-0.287911
N5	N	0.064600	0.358700	0.408870	-0.290115
N6	N	0.410400	0.061900	0.924380	-0.460131
N7	N	0.243200	0.297700	0.227120	-0.299076
N8	N	0.255000	0.872800	0.955490	-0.430489
N9	N	0.173500	0.709000	0.951570	-0.287911
N10	N	0.564600	0.141300	0.908870	-0.290115
N11	N	0.589600	0.938100	0.075620	-0.460131
N12	N	0.756800	0.702300	0.772880	-0.299076
N13	N	0.745000	0.127200	0.044510	-0.430489
N14	N	0.826500	0.291000	0.048430	-0.287911
N15	N	0.435400	0.858700	0.091130	-0.290115
N16	N	0.089600	0.561900	0.575620	-0.460131
N17	N	0.256800	0.797700	0.272880	-0.299076
N18	N	0.245000	0.372800	0.544510	-0.430489
N19	N	0.326500	0.209000	0.548430	-0.287911
N20	N	0.935400	0.641300	0.591130	-0.290115
O1	O	0.745500	0.407300	0.515500	-0.650299
O2	O	0.875400	0.275700	0.515510	-0.453770
O3	O	0.189000	0.218500	0.894300	-0.447791
O4	O	0.121000	0.055400	0.906960	-0.669748
O5	O	0.245500	0.092700	0.015500	-0.650299
O6	O	0.375400	0.224300	0.015510	-0.453770
O7	O	0.689000	0.281500	0.394300	-0.447791
O8	O	0.621000	0.444600	0.406960	-0.669748
O9	O	0.754500	0.907300	0.984500	-0.650299
O10	O	0.624600	0.775700	0.984490	-0.453770
O11	O	0.311000	0.718500	0.605700	-0.447791
O12	O	0.379000	0.555400	0.593040	-0.669748
O13	O	0.254500	0.592700	0.484500	-0.650299
O14	O	0.124600	0.724300	0.484490	-0.453770
O15	O	0.811000	0.781500	0.105700	-0.447791
O16	O	0.879000	0.944600	0.093040	-0.669748
