data_XOPVII_clean_PM
_symmetry_space_group_name_H-M	'P1'
_cell_length_a	8.793000
_cell_length_b	10.091000
_cell_length_c	15.404000
_cell_angle_alpha	87.825998
_cell_angle_beta	88.941001
_cell_angle_gamma	73.318001
_symmetry_Int_Tables_number 1

loop_
_symmetry_equiv_pos_as_xyz
'x,y,z'

loop_
_atom_site_label
_atom_site_type_symbol
_atom_site_fract_x
_atom_site_fract_y
_atom_site_fract_z
_atom_site_charge
Ni1	Ni	0.052230	0.078770	0.356880	1.142551
Ni2	Ni	0.947770	0.921230	0.643120	1.142551
H1	H	0.387300	0.965200	0.293000	0.096960
H2	H	0.595400	0.769200	0.289700	0.098023
H3	H	0.326400	0.564600	0.408800	0.127862
H4	H	0.129700	0.769400	0.417600	0.130227
H5	H	0.974400	0.374400	0.421200	0.126066
H6	H	0.769900	0.578300	0.422900	0.120443
H7	H	0.518700	0.405500	0.275800	0.108955
H8	H	0.731000	0.210100	0.275100	0.092863
H9	H	0.122800	0.192700	0.182500	0.104228
H10	H	0.106800	0.163300	0.038400	0.090628
H11	H	0.904600	0.868400	0.093000	0.090741
H12	H	0.926500	0.908000	0.236600	0.100412
H13	H	0.585100	0.128100	0.393900	0.126811
H14	H	0.612700	0.034800	0.707000	0.096960
H15	H	0.404600	0.230800	0.710300	0.098023
H16	H	0.673600	0.435400	0.591200	0.127862
H17	H	0.870300	0.230600	0.582400	0.130227
H18	H	0.025600	0.625600	0.578800	0.126066
H19	H	0.230100	0.421700	0.577100	0.120443
H20	H	0.481300	0.594500	0.724200	0.108955
H21	H	0.269000	0.789900	0.724900	0.092863
H22	H	0.877200	0.807300	0.817500	0.104228
H23	H	0.893200	0.836700	0.961600	0.090628
H24	H	0.095400	0.131600	0.907000	0.090741
H25	H	0.073500	0.092000	0.763400	0.100412
H26	H	0.414900	0.871900	0.606100	0.126811
C1	C	0.374500	0.883900	0.318300	0.097181
C2	C	0.500200	0.765700	0.315600	-0.143958
C3	C	0.486800	0.644100	0.350600	0.048796
C4	C	0.343700	0.646000	0.386400	-0.103726
C5	C	0.224200	0.769600	0.389500	0.105710
C6	C	0.881500	0.380500	0.391300	0.105542
C7	C	0.758500	0.504000	0.392400	-0.118733
C8	C	0.620800	0.515500	0.348500	0.046947
C9	C	0.610600	0.403100	0.305500	-0.128962
C10	C	0.739200	0.284500	0.306600	0.095001
C11	C	0.077600	0.125500	0.164800	0.105931
C12	C	0.068400	0.107900	0.077500	-0.150430
C13	C	0.005000	0.011800	0.046800	0.055980
C14	C	0.950500	0.936100	0.108900	-0.152771
C15	C	0.964400	0.961100	0.195700	0.106102
C16	C	0.280500	0.223500	0.399500	0.408556
C17	C	0.387600	0.107600	0.453900	0.028842
C18	C	0.550200	0.075800	0.436600	-0.098267
C19	C	0.338600	0.029000	0.520300	0.034008
C20	C	0.164700	0.052200	0.541900	0.456927
C21	C	0.625500	0.116100	0.681700	0.097181
C22	C	0.499800	0.234300	0.684400	-0.143958
C23	C	0.513200	0.355900	0.649400	0.048796
C24	C	0.656300	0.354000	0.613600	-0.103726
C25	C	0.775800	0.230400	0.610500	0.105710
C26	C	0.118500	0.619500	0.608700	0.105542
C27	C	0.241500	0.496000	0.607600	-0.118733
C28	C	0.379200	0.484500	0.651500	0.046947
C29	C	0.389400	0.596900	0.694500	-0.128962
C30	C	0.260800	0.715500	0.693400	0.095001
C31	C	0.922400	0.874500	0.835200	0.105931
C32	C	0.931600	0.892100	0.922500	-0.150430
C33	C	0.995000	0.988200	0.953200	0.055980
C34	C	0.049500	0.063900	0.891100	-0.152771
C35	C	0.035600	0.038900	0.804300	0.106102
C36	C	0.719500	0.776500	0.600500	0.408556
C37	C	0.612400	0.892400	0.546100	0.028842
C38	C	0.449800	0.924200	0.563400	-0.098267
C39	C	0.661400	0.971000	0.479700	0.034008
C40	C	0.835300	0.947800	0.458100	0.456927
N1	N	0.236300	0.887500	0.354960	-0.397343
N2	N	0.870200	0.270400	0.348610	-0.357166
N3	N	0.026800	0.053900	0.224260	-0.416053
N4	N	0.763700	0.112500	0.645040	-0.397343
N5	N	0.129800	0.729600	0.651390	-0.357166
N6	N	0.973200	0.946100	0.775740	-0.416053
O1	O	0.212900	0.190100	0.335290	-0.605664
O2	O	0.274300	0.342000	0.417900	-0.391529
O3	O	0.064900	0.113500	0.486330	-0.582282
O4	O	0.131900	0.009700	0.615950	-0.605410
O5	O	0.787100	0.809900	0.664710	-0.605664
O6	O	0.725700	0.658000	0.582100	-0.391529
O7	O	0.935100	0.886500	0.513670	-0.582282
O8	O	0.868100	0.990300	0.384050	-0.605410
