data_XUNGOD_clean_PM
_symmetry_space_group_name_H-M	'P1'
_cell_length_a	5.396800
_cell_length_b	11.488600
_cell_length_c	13.423300
_cell_angle_alpha	90.669999
_cell_angle_beta	94.900000
_cell_angle_gamma	91.237998
_symmetry_Int_Tables_number 1

loop_
_symmetry_equiv_pos_as_xyz
'x,y,z'

loop_
_atom_site_label
_atom_site_type_symbol
_atom_site_fract_x
_atom_site_fract_y
_atom_site_fract_z
_atom_site_charge
Li1	Li	0.687300	0.987900	0.935000	-2.342934
Li2	Li	0.305700	0.486100	0.559700	-2.279950
Li3	Li	0.312700	0.012100	0.065000	-2.342934
Li4	Li	0.694300	0.513900	0.440300	-2.279950
H1	H	0.067900	0.184500	0.655000	0.156740
H2	H	0.995000	0.045200	0.768800	0.220826
H3	H	0.413100	0.204300	0.846400	0.241209
H4	H	0.459800	0.345800	0.729700	0.215661
H5	H	0.557300	0.733400	0.867800	0.203621
H6	H	0.595500	0.592900	0.748600	0.176646
H7	H	0.950400	0.664500	0.614200	0.310268
H8	H	0.884000	0.800200	0.734100	0.171099
H9	H	0.932100	0.815500	0.345000	0.156740
H10	H	0.005000	0.954800	0.231200	0.220826
H11	H	0.586900	0.795700	0.153600	0.241209
H12	H	0.540200	0.654200	0.270300	0.215661
H13	H	0.442700	0.266600	0.132200	0.203621
H14	H	0.404500	0.407100	0.251400	0.176646
H15	H	0.049600	0.335500	0.385800	0.310268
H16	H	0.116000	0.199800	0.265900	0.171099
C1	C	0.824600	0.373900	0.602500	0.315540
C2	C	0.772800	0.282400	0.679200	0.072037
C3	C	0.931900	0.190300	0.692700	-0.138319
C4	C	0.887900	0.107500	0.762200	0.118135
C5	C	0.546300	0.199900	0.807000	0.090371
C6	C	0.573700	0.286200	0.737300	-0.065505
C7	C	0.165800	0.870600	0.897000	0.321404
C8	C	0.212700	0.782600	0.815800	0.069620
C9	C	0.429300	0.719500	0.817900	-0.041810
C10	C	0.451500	0.636200	0.745100	0.065896
C11	C	0.072100	0.677100	0.666800	0.121504
C12	C	0.031900	0.759700	0.738000	-0.156506
C13	C	0.175400	0.626100	0.397500	0.315540
C14	C	0.227200	0.717600	0.320800	0.072037
C15	C	0.068100	0.809700	0.307300	-0.138319
C16	C	0.112100	0.892500	0.237800	0.118135
C17	C	0.453700	0.800100	0.193000	0.090371
C18	C	0.426300	0.713800	0.262700	-0.065505
C19	C	0.834200	0.129400	0.103000	0.321404
C20	C	0.787300	0.217400	0.184200	0.069620
C21	C	0.570700	0.280500	0.182100	-0.041810
C22	C	0.548500	0.363800	0.254900	0.065896
C23	C	0.927900	0.322900	0.333200	0.121504
C24	C	0.968100	0.240300	0.262000	-0.156506
N1	N	0.699900	0.110900	0.821100	0.236775
N2	N	0.278500	0.613400	0.669200	0.224287
N3	N	0.300100	0.889100	0.178900	0.236775
N4	N	0.721500	0.386600	0.330800	0.224287
O1	O	0.038200	0.379800	0.575300	0.310507
O2	O	0.646300	0.437500	0.571100	0.505894
O3	O	0.946000	0.887600	0.911500	0.336859
O4	O	0.353300	0.920300	0.942900	0.540124
O5	O	0.961800	0.620200	0.424700	0.310507
O6	O	0.353700	0.562500	0.428900	0.505894
O7	O	0.054000	0.112400	0.088500	0.336859
O8	O	0.646700	0.079700	0.057100	0.540124
