data_YUKBIP01_clean_PM
_symmetry_space_group_name_H-M	'P1'
_cell_length_a	8.531100
_cell_length_b	13.994900
_cell_length_c	13.994900
_cell_angle_alpha	120.000000
_cell_angle_beta	90.000000
_cell_angle_gamma	90.000000
_symmetry_Int_Tables_number 1

loop_
_symmetry_equiv_pos_as_xyz
'x,y,z'

loop_
_atom_site_label
_atom_site_type_symbol
_atom_site_fract_x
_atom_site_fract_y
_atom_site_fract_z
_atom_site_charge
Al1	Al	0.441200	0.494600	0.097300	-2.229037
Al2	Al	0.441200	0.602700	0.505400	-2.229040
Al3	Al	0.441200	0.902700	0.397300	-2.229040
Al4	Al	0.941200	0.397300	0.902700	-2.229037
Al5	Al	0.941200	0.097300	0.494600	-2.229040
Al6	Al	0.941200	0.505400	0.602700	-2.229040
Al7	Al	0.510200	0.333330	0.666660	-2.203893
Al8	Al	0.010200	0.666670	0.333340	-2.203893
P1	P	0.300300	0.347990	0.865710	0.552469
P2	P	0.768600	0.189720	0.719290	0.593946
P3	P	0.300300	0.517720	0.652010	0.552471
P4	P	0.768600	0.529570	0.810280	0.593945
P5	P	0.300300	0.134290	0.482280	0.552473
P6	P	0.768600	0.280710	0.470430	0.593947
P7	P	0.800300	0.482280	0.134290	0.552469
P8	P	0.268600	0.470430	0.280710	0.593946
P9	P	0.800300	0.865710	0.347990	0.552471
P10	P	0.268600	0.719290	0.189720	0.593945
P11	P	0.800300	0.652010	0.517720	0.552473
P12	P	0.268600	0.810280	0.529570	0.593947
H1	H	0.216800	0.189000	0.857300	0.196512
H2	H	0.368700	0.166400	0.786100	0.188176
H3	H	0.206400	0.177900	0.740300	0.261115
H4	H	0.787800	0.065900	0.779700	0.197645
H5	H	0.633800	0.044800	0.710800	0.229016
H6	H	0.641500	0.142200	0.833000	0.222857
H7	H	0.216800	0.668300	0.811000	0.196512
H8	H	0.368700	0.619700	0.833600	0.188176
H9	H	0.206400	0.562400	0.822100	0.261114
H10	H	0.787800	0.713800	0.934100	0.197645
H11	H	0.633800	0.666000	0.955200	0.229015
H12	H	0.641500	0.690800	0.857800	0.222858
H13	H	0.216800	0.142700	0.331700	0.196509
H14	H	0.368700	0.213900	0.380300	0.188178
H15	H	0.206400	0.259700	0.437600	0.261114
H16	H	0.787800	0.220300	0.286200	0.197644
H17	H	0.633800	0.289200	0.334000	0.229016
H18	H	0.641500	0.167000	0.309200	0.222858
H19	H	0.716800	0.331700	0.142700	0.196512
H20	H	0.868700	0.380300	0.213900	0.188176
H21	H	0.706400	0.437600	0.259700	0.261115
H22	H	0.287800	0.286200	0.220300	0.197645
H23	H	0.133800	0.334000	0.289200	0.229016
H24	H	0.141500	0.309200	0.167000	0.222857
H25	H	0.716800	0.857300	0.189000	0.196512
H26	H	0.868700	0.786100	0.166400	0.188176
H27	H	0.706400	0.740300	0.177900	0.261114
H28	H	0.287800	0.779700	0.065900	0.197645
H29	H	0.133800	0.710800	0.044800	0.229015
H30	H	0.141500	0.833000	0.142200	0.222858
H31	H	0.716800	0.811000	0.668300	0.196509
H32	H	0.868700	0.833600	0.619700	0.188178
H33	H	0.706400	0.822100	0.562400	0.261114
H34	H	0.287800	0.934100	0.713800	0.197644
H35	H	0.133800	0.955200	0.666000	0.229016
H36	H	0.141500	0.857800	0.690800	0.222858
C1	C	0.269500	0.203700	0.805300	-0.423081
C2	C	0.700100	0.100400	0.766000	-0.630116
C3	C	0.269500	0.601600	0.796300	-0.423082
C4	C	0.700100	0.665600	0.899600	-0.630117
C5	C	0.269500	0.194700	0.398400	-0.423070
C6	C	0.700100	0.234000	0.334400	-0.630112
C7	C	0.769500	0.398400	0.194700	-0.423081
C8	C	0.200100	0.334400	0.234000	-0.630116
C9	C	0.769500	0.805300	0.203700	-0.423082
C10	C	0.200100	0.766000	0.100400	-0.630117
C11	C	0.769500	0.796300	0.601600	-0.423070
C12	C	0.200100	0.899600	0.665600	-0.630112
O1	O	0.382800	0.375400	0.790700	0.205209
O2	O	0.392200	0.385100	0.970700	0.268813
O3	O	0.139300	0.405900	0.896400	0.299401
O4	O	0.631200	0.246100	0.705100	0.245246
O5	O	0.856300	0.112200	0.612700	0.276513
O6	O	0.885900	0.267500	0.801300	0.279915
O7	O	0.382800	0.415300	0.624600	0.205233
O8	O	0.392200	0.585600	0.614900	0.268816
O9	O	0.139300	0.490500	0.594100	0.299404
O10	O	0.631200	0.459000	0.753900	0.245239
O11	O	0.856300	0.500500	0.887800	0.276510
O12	O	0.885900	0.533800	0.732500	0.279917
O13	O	0.382800	0.209300	0.584700	0.205238
O14	O	0.392200	0.029300	0.414400	0.268817
O15	O	0.139300	0.103600	0.509500	0.299403
O16	O	0.631200	0.294900	0.541000	0.245270
O17	O	0.856300	0.387300	0.499500	0.276513
O18	O	0.885900	0.198700	0.466200	0.279918
O19	O	0.882800	0.584700	0.209300	0.205209
O20	O	0.892200	0.414400	0.029300	0.268813
O21	O	0.639300	0.509500	0.103600	0.299401
O22	O	0.131200	0.541000	0.294900	0.245246
O23	O	0.356300	0.499500	0.387300	0.276513
O24	O	0.385900	0.466200	0.198700	0.279915
O25	O	0.882800	0.790700	0.375400	0.205233
O26	O	0.892200	0.970700	0.385100	0.268816
O27	O	0.639300	0.896400	0.405900	0.299404
O28	O	0.131200	0.705100	0.246100	0.245239
O29	O	0.356300	0.612700	0.112200	0.276510
O30	O	0.385900	0.801300	0.267500	0.279917
O31	O	0.882800	0.624600	0.415300	0.205238
O32	O	0.892200	0.614900	0.585600	0.268817
O33	O	0.639300	0.594100	0.490500	0.299403
O34	O	0.131200	0.753900	0.459000	0.245270
O35	O	0.356300	0.887800	0.500500	0.276513
O36	O	0.385900	0.732500	0.533800	0.279918
