data_ZIF-90_PM
_symmetry_space_group_name_H-M	'P1'
_cell_length_a	17.271500
_cell_length_b	17.271500
_cell_length_c	17.271500
_cell_angle_alpha	90.000000
_cell_angle_beta	90.000000
_cell_angle_gamma	90.000000
_symmetry_Int_Tables_number 1

loop_
_symmetry_equiv_pos_as_xyz
'x,y,z'

loop_
_atom_site_label
_atom_site_type_symbol
_atom_site_fract_x
_atom_site_fract_y
_atom_site_fract_z
_atom_site_charge
Zn1	Zn	0.000000	0.500000	0.250000	1.054339
Zn2	Zn	0.000000	0.500000	0.750000	1.077128
Zn3	Zn	0.250000	0.000000	0.500000	1.053902
Zn4	Zn	0.750000	0.000000	0.500000	1.053879
Zn5	Zn	0.500000	0.250000	-0.000000	1.069533
Zn6	Zn	0.500000	0.750000	-0.000000	1.061925
Zn7	Zn	0.500000	0.000000	0.250000	1.054217
Zn8	Zn	0.500000	0.000000	0.750000	1.069334
Zn9	Zn	0.000000	0.250000	0.500000	1.061813
Zn10	Zn	0.000000	0.750000	0.500000	1.061681
Zn11	Zn	0.250000	0.500000	0.000000	1.061737
Zn12	Zn	0.750000	0.500000	-0.000000	1.061773
H1	H	0.930000	0.590000	0.105000	0.145496
H2	H	0.862700	0.368000	0.229200	0.070095
H3	H	0.362700	0.868000	0.729200	0.086268
H4	H	0.070000	0.410000	0.105000	0.145508
H5	H	0.137300	0.632000	0.229200	0.081983
H6	H	0.637300	0.132000	0.729200	0.073597
H7	H	0.137300	0.368000	0.770800	0.084003
H8	H	0.637300	0.868000	0.270800	0.068885
H9	H	0.862700	0.632000	0.770800	0.086118
H10	H	0.430000	0.910000	0.395000	0.147294
H11	H	0.362700	0.132000	0.270800	0.074527
H12	H	0.105000	0.930000	0.590000	0.145594
H13	H	0.229200	0.862700	0.368000	0.080113
H14	H	0.729200	0.362700	0.868000	0.069520
H15	H	0.105000	0.070000	0.410000	0.149117
H16	H	0.229200	0.137300	0.632000	0.069760
H17	H	0.605000	0.570000	0.910000	0.150166
H18	H	0.729200	0.637300	0.132000	0.085851
H19	H	0.770800	0.137300	0.368000	0.070303
H20	H	0.270800	0.637300	0.868000	0.069113
H21	H	0.895000	0.930000	0.410000	0.150988
H22	H	0.770800	0.862700	0.632000	0.075332
H23	H	0.395000	0.430000	0.910000	0.150814
H24	H	0.270800	0.362700	0.132000	0.087769
H25	H	0.593620	0.073480	0.890990	0.146919
H26	H	0.368000	0.229200	0.862700	0.086982
H27	H	0.090000	0.605000	0.430000	0.148386
H28	H	0.868000	0.729200	0.362700	0.078214
H29	H	0.632000	0.229200	0.137300	0.073202
H30	H	0.910000	0.605000	0.570000	0.144782
H31	H	0.132000	0.729200	0.637300	0.082012
H32	H	0.368000	0.770800	0.137300	0.067229
H33	H	0.090000	0.395000	0.570000	0.150992
H34	H	0.868000	0.270800	0.637300	0.074981
H35	H	0.410000	0.895000	0.930000	0.146725
H36	H	0.632000	0.770800	0.862700	0.087693
H37	H	0.132000	0.270800	0.362700	0.080857
H38	H	0.590000	0.930000	0.105000	0.149486
H39	H	0.368000	0.862700	0.229200	0.068101
H40	H	0.868000	0.362700	0.729200	0.083851
H41	H	0.410000	0.070000	0.105000	0.145576
H42	H	0.632000	0.137300	0.229200	0.081478
H43	H	0.132000	0.637300	0.729200	0.083783
H44	H	0.368000	0.137300	0.770800	0.085200
H45	H	0.868000	0.637300	0.270800	0.070193
H46	H	0.632000	0.862700	0.770800	0.081329
H47	H	0.910000	0.430000	0.395000	0.147515
H48	H	0.132000	0.362700	0.270800	0.076942
H49	H	0.930000	0.105000	0.590000	0.146685
H50	H	0.862700	0.229200	0.368000	0.085086
H51	H	0.430000	0.605000	0.090000	0.150044
H52	H	0.362700	0.729200	0.868000	0.075173
H53	H	0.137300	0.229200	0.632000	0.068786
H54	H	0.637300	0.729200	0.132000	0.080573
H55	H	0.137300	0.770800	0.368000	0.074427
H56	H	0.570000	0.395000	0.090000	0.149891
H57	H	0.637300	0.270800	0.868000	0.085016
H58	H	0.862700	0.770800	0.632000	0.075590
H59	H	0.362700	0.270800	0.132000	0.080981
H60	H	0.105000	0.590000	0.930000	0.146194
H61	H	0.229200	0.368000	0.862700	0.076520
H62	H	0.605000	0.090000	0.430000	0.149532
H63	H	0.729200	0.868000	0.362700	0.067484
H64	H	0.229200	0.632000	0.137300	0.079036
H65	H	0.605000	0.910000	0.570000	0.145245
H66	H	0.729200	0.132000	0.637300	0.082276
H67	H	0.770800	0.368000	0.137300	0.080269
H68	H	0.395000	0.090000	0.570000	0.151410
H69	H	0.270800	0.868000	0.637300	0.075733
H70	H	0.895000	0.410000	0.930000	0.147231
H71	H	0.770800	0.632000	0.862700	0.076845
H72	H	0.270800	0.132000	0.362700	0.069958
C1	C	0.860300	0.406300	0.189800	0.067690
C2	C	0.360300	0.906300	0.689800	0.078263
C3	C	0.139700	0.593700	0.189800	0.077292
C4	C	0.639700	0.093700	0.689800	0.066969
C5	C	0.139700	0.406300	0.810200	0.077761
C6	C	0.639700	0.906300	0.310200	0.060593
C7	C	0.860300	0.593700	0.810200	0.078634
C8	C	0.360300	0.093700	0.310200	0.073136
C9	C	0.189800	0.860300	0.406300	0.078473
C10	C	0.689800	0.360300	0.906300	0.063069
C11	C	0.189800	0.139700	0.593700	0.067947
C12	C	0.689800	0.639700	0.093700	0.082908
C13	C	0.810200	0.139700	0.406300	0.063125
C14	C	0.310200	0.639700	0.906300	0.062664
C15	C	0.810200	0.860300	0.593700	0.075014
C16	C	0.310200	0.360300	0.093700	0.083842
C17	C	0.406300	0.189800	0.860300	0.078648
C18	C	0.906300	0.689800	0.360300	0.075741
C19	C	0.593700	0.189800	0.139700	0.066595
C20	C	0.093700	0.689800	0.639700	0.079967
C21	C	0.406300	0.810200	0.139700	0.060033
C22	C	0.906300	0.310200	0.639700	0.075544
C23	C	0.593700	0.810200	0.860300	0.084044
C24	C	0.093700	0.310200	0.360300	0.072076
C25	C	0.406300	0.860300	0.189800	0.066689
C26	C	0.906300	0.360300	0.689800	0.077692
C27	C	0.593700	0.139700	0.189800	0.079120
C28	C	0.093700	0.639700	0.689800	0.076231
C29	C	0.406300	0.139700	0.810200	0.084588
C30	C	0.906300	0.639700	0.310200	0.060898
C31	C	0.593700	0.860300	0.810200	0.072845
C32	C	0.093700	0.360300	0.310200	0.074147
C33	C	0.860300	0.189800	0.406300	0.082674
C34	C	0.360300	0.689800	0.906300	0.073676
C35	C	0.139700	0.189800	0.593700	0.061066
C36	C	0.639700	0.689800	0.093700	0.072173
C37	C	0.139700	0.810200	0.406300	0.066807
C38	C	0.639700	0.310200	0.906300	0.082935
C39	C	0.860300	0.810200	0.593700	0.068605
C40	C	0.360300	0.310200	0.093700	0.072721
C41	C	0.189800	0.406300	0.860300	0.076488
C42	C	0.689800	0.906300	0.360300	0.066620
C43	C	0.189800	0.593700	0.139700	0.069574
C44	C	0.689800	0.093700	0.639700	0.079741
C45	C	0.810200	0.406300	0.139700	0.070022
C46	C	0.310200	0.906300	0.639700	0.075418
C47	C	0.810200	0.593700	0.860300	0.076622
C48	C	0.310200	0.093700	0.360300	0.062751
C49	C	0.874700	0.486700	0.125300	0.282850
C50	C	0.897400	0.567400	0.102600	0.101180
C51	C	0.374700	0.986700	0.625300	0.287294
C52	C	0.397400	0.067400	0.602600	0.107491
C53	C	0.125300	0.513300	0.125300	0.279019
C54	C	0.102600	0.432600	0.102600	0.102145
C55	C	0.625300	0.013300	0.625300	0.285856
C56	C	0.602600	0.932600	0.602600	0.102561
C57	C	0.125300	0.486700	0.874700	0.288397
C58	C	0.102600	0.567400	0.897400	0.103482
C59	C	0.625300	0.986700	0.374700	0.286385
C60	C	0.602600	0.067400	0.397400	0.103994
C61	C	0.874700	0.513300	0.874700	0.288183
C62	C	0.897400	0.432600	0.897400	0.104437
C63	C	0.374700	0.013300	0.374700	0.288394
C64	C	0.397400	0.932600	0.397400	0.102843
C65	C	0.125300	0.874700	0.486700	0.285125
C66	C	0.102600	0.897400	0.567400	0.102151
C67	C	0.625300	0.374700	0.986700	0.286115
C68	C	0.602600	0.397400	0.067400	0.105882
C69	C	0.125300	0.125300	0.513300	0.287010
C70	C	0.102600	0.102600	0.432600	0.104526
C71	C	0.625300	0.625300	0.013300	0.281495
C72	C	0.602600	0.602600	0.932600	0.106054
C73	C	0.874700	0.125300	0.486700	0.285109
C74	C	0.897400	0.102600	0.567400	0.102797
C75	C	0.374700	0.625300	0.986700	0.289315
C76	C	0.397400	0.602600	0.067400	0.104783
C77	C	0.874700	0.874700	0.513300	0.290626
C78	C	0.897400	0.897400	0.432600	0.107033
C79	C	0.374700	0.374700	0.013300	0.281933
C80	C	0.397400	0.397400	0.932600	0.106556
C81	C	0.486700	0.125300	0.874700	0.285087
C82	C	0.567400	0.102600	0.897400	0.109226
C83	C	0.986700	0.625300	0.374700	0.282873
C84	C	0.067400	0.602600	0.397400	0.103553
C85	C	0.513300	0.125300	0.125300	0.285714
C86	C	0.432600	0.102600	0.102600	0.102920
C87	C	0.013300	0.625300	0.625300	0.282969
C88	C	0.932600	0.602600	0.602600	0.103556
C89	C	0.486700	0.874700	0.125300	0.286880
C90	C	0.567400	0.897400	0.102600	0.103734
C91	C	0.986700	0.374700	0.625300	0.288434
C92	C	0.067400	0.397400	0.602600	0.107751
C93	C	0.513300	0.874700	0.874700	0.282494
C94	C	0.432600	0.897400	0.897400	0.104578
C95	C	0.013300	0.374700	0.374700	0.284683
C96	C	0.932600	0.397400	0.397400	0.103645
N1	N	0.914300	0.467700	0.184500	-0.559148
N2	N	0.414300	0.967700	0.684500	-0.455683
N3	N	0.085700	0.532300	0.184500	-0.534213
N4	N	0.585700	0.032300	0.684500	-0.480757
N5	N	0.085700	0.467700	0.815500	-0.460400
N6	N	0.585700	0.967700	0.315500	-0.515976
N7	N	0.914300	0.532300	0.815500	-0.459645
N8	N	0.414300	0.032300	0.315500	-0.514305
N9	N	0.184500	0.914300	0.467700	-0.533452
N10	N	0.684500	0.414300	0.967700	-0.519868
N11	N	0.184500	0.085700	0.532300	-0.558992
N12	N	0.684500	0.585700	0.032300	-0.493145
N13	N	0.815500	0.085700	0.467700	-0.513282
N14	N	0.315500	0.585700	0.967700	-0.520513
N15	N	0.815500	0.914300	0.532300	-0.513215
N16	N	0.315500	0.414300	0.032300	-0.492989
N17	N	0.467700	0.184500	0.914300	-0.455189
N18	N	0.967700	0.684500	0.414300	-0.540536
N19	N	0.532300	0.184500	0.085700	-0.479929
N20	N	0.032300	0.684500	0.585700	-0.537676
N21	N	0.467700	0.815500	0.085700	-0.521851
N22	N	0.967700	0.315500	0.585700	-0.517045
N23	N	0.532300	0.815500	0.914300	-0.494071
N24	N	0.032300	0.315500	0.414300	-0.494755
N25	N	0.467700	0.914300	0.184500	-0.559059
N26	N	0.967700	0.414300	0.684500	-0.460655
N27	N	0.532300	0.085700	0.184500	-0.532666
N28	N	0.032300	0.585700	0.684500	-0.460729
N29	N	0.467700	0.085700	0.815500	-0.497830
N30	N	0.967700	0.585700	0.315500	-0.516062
N31	N	0.532300	0.914300	0.815500	-0.498634
N32	N	0.032300	0.414300	0.315500	-0.513326
N33	N	0.914300	0.184500	0.467700	-0.494393
N34	N	0.414300	0.684500	0.967700	-0.518638
N35	N	0.085700	0.184500	0.532300	-0.521490
N36	N	0.585700	0.684500	0.032300	-0.494658
N37	N	0.085700	0.815500	0.467700	-0.474781
N38	N	0.585700	0.315500	0.967700	-0.499520
N39	N	0.914300	0.815500	0.532300	-0.475707
N40	N	0.414300	0.315500	0.032300	-0.499832
N41	N	0.184500	0.467700	0.914300	-0.517221
N42	N	0.684500	0.967700	0.414300	-0.559361
N43	N	0.184500	0.532300	0.085700	-0.497270
N44	N	0.684500	0.032300	0.585700	-0.533101
N45	N	0.815500	0.467700	0.085700	-0.497266
N46	N	0.315500	0.967700	0.585700	-0.512316
N47	N	0.815500	0.532300	0.914300	-0.517273
N48	N	0.315500	0.032300	0.414300	-0.513961
O1	O	0.885600	0.612900	0.051400	-0.349015
O2	O	0.114400	0.387100	0.051400	-0.349688
O3	O	0.385600	0.887100	0.448600	-0.350216
O4	O	0.051400	0.885600	0.612900	-0.344425
O5	O	0.051400	0.114400	0.387100	-0.363878
O6	O	0.551400	0.614400	0.887100	-0.358745
O7	O	0.948600	0.885600	0.387100	-0.360085
O8	O	0.448600	0.385600	0.887100	-0.363216
O9	O	0.112900	0.551400	0.385600	-0.356070
O10	O	0.887100	0.551400	0.614400	-0.355959
O11	O	0.112900	0.448600	0.614400	-0.366478
O12	O	0.387100	0.948600	0.885600	-0.357874
O13	O	0.612900	0.885600	0.051400	-0.359527
O14	O	0.387100	0.114400	0.051400	-0.350176
O15	O	0.612900	0.114400	0.948600	-0.362155
O16	O	0.887100	0.385600	0.448600	-0.352444
O17	O	0.885600	0.051400	0.612900	-0.348556
O18	O	0.385600	0.551400	0.112900	-0.360752
O19	O	0.614400	0.448600	0.112900	-0.363963
O20	O	0.051400	0.612900	0.885600	-0.352000
O21	O	0.551400	0.112900	0.385600	-0.358085
O22	O	0.551400	0.887100	0.614400	-0.349679
O23	O	0.448600	0.112900	0.614400	-0.360364
O24	O	0.948600	0.387100	0.885600	-0.355393
