data_ZIF-1_PM
_symmetry_space_group_name_H-M	'P1'
_cell_length_a	9.740501
_cell_length_b	14.936000
_cell_length_c	15.266000
_cell_angle_alpha	90.000000
_cell_angle_beta	90.000000
_cell_angle_gamma	98.620001
_symmetry_Int_Tables_number 1

loop_
_symmetry_equiv_pos_as_xyz
'x,y,z'

loop_
_atom_site_label
_atom_site_type_symbol
_atom_site_fract_x
_atom_site_fract_y
_atom_site_fract_z
_atom_site_charge
Zn1	Zn	0.453172	0.738978	0.076070	1.017969
Zn2	Zn	0.546828	0.261022	0.923930	1.017969
Zn3	Zn	0.046828	0.761022	0.576070	1.017969
Zn4	Zn	0.953172	0.238978	0.423930	1.017969
Zn5	Zn	0.584530	0.920520	0.726053	1.018081
Zn6	Zn	0.415470	0.079480	0.273947	1.018081
Zn7	Zn	0.915470	0.579480	0.226053	1.018081
Zn8	Zn	0.084530	0.420520	0.773947	1.018081
H1	H	0.516600	0.899400	0.931800	0.059033
H2	H	0.483400	0.100600	0.068200	0.059033
H3	H	0.983400	0.600600	0.431800	0.059033
H4	H	0.016600	0.399400	0.568200	0.059033
H5	H	0.552400	0.644400	0.911900	0.056235
H6	H	0.447600	0.355600	0.088100	0.056235
H7	H	0.947600	0.855600	0.411900	0.056235
H8	H	0.052400	0.144400	0.588100	0.056235
H9	H	0.596200	0.714500	0.768300	0.050342
H10	H	0.403800	0.285500	0.231700	0.050342
H11	H	0.903800	0.785500	0.268300	0.050342
H12	H	0.096200	0.214500	0.731700	0.050342
H13	H	0.896400	0.040400	0.705400	0.053956
H14	H	0.103600	0.959600	0.294600	0.053956
H15	H	0.603600	0.459600	0.205400	0.053956
H16	H	0.396400	0.540400	0.794600	0.053956
H17	H	0.751700	0.799500	0.622300	0.059520
H18	H	0.248300	0.200500	0.377700	0.059520
H19	H	0.748300	0.700500	0.122300	0.059520
H20	H	0.251700	0.299500	0.877700	0.059520
H21	H	0.533300	0.913500	0.514200	0.056998
H22	H	0.466700	0.086500	0.485800	0.056998
H23	H	0.966700	0.586500	0.014200	0.056998
H24	H	0.033300	0.413500	0.985800	0.056998
H25	H	0.397400	0.065400	0.666100	0.054995
H26	H	0.602600	0.934600	0.333900	0.054995
H27	H	0.102600	0.434600	0.166100	0.054995
H28	H	0.897400	0.565400	0.833900	0.054995
H29	H	0.192900	0.647300	0.950900	0.064999
H30	H	0.807100	0.352700	0.049100	0.064999
H31	H	0.307100	0.852700	0.450900	0.064999
H32	H	0.692900	0.147300	0.549100	0.064999
H33	H	0.208500	0.695600	0.202000	0.067024
H34	H	0.791500	0.304400	0.798000	0.067024
H35	H	0.291500	0.804400	0.702000	0.067024
H36	H	0.708500	0.195600	0.298000	0.067024
H37	H	0.410600	0.529300	0.146100	0.058398
H38	H	0.589400	0.470700	0.853900	0.058398
H39	H	0.089400	0.970700	0.646100	0.058398
H40	H	0.910600	0.029300	0.353900	0.058398
H41	H	0.362600	0.924900	0.129100	0.053452
H42	H	0.637400	0.075100	0.870900	0.053452
H43	H	0.137400	0.575100	0.629100	0.053452
H44	H	0.862600	0.424900	0.370900	0.053452
H45	H	0.625600	0.797000	0.252000	0.059543
H46	H	0.374400	0.203000	0.748000	0.059543
H47	H	0.874400	0.703000	0.752000	0.059543
H48	H	0.125600	0.297000	0.248000	0.059543
C1	C	0.530080	0.843280	0.908010	0.198105
C2	C	0.469920	0.156720	0.091990	0.198105
C3	C	0.969920	0.656720	0.408010	0.198105
C4	C	0.030080	0.343280	0.591990	0.198105
C5	C	0.549220	0.705510	0.898660	0.070720
C6	C	0.450780	0.294490	0.101340	0.070720
C7	C	0.950780	0.794490	0.398660	0.070720
C8	C	0.049220	0.205510	0.601340	0.070720
C9	C	0.573700	0.744320	0.819340	0.069082
C10	C	0.426300	0.255680	0.180660	0.069082
C11	C	0.926300	0.755680	0.319340	0.069082
C12	C	0.073700	0.244320	0.680660	0.069082
C13	C	0.889300	0.981800	0.681620	0.073210
C14	C	0.110700	0.018200	0.318380	0.073210
C15	C	0.610700	0.518200	0.181620	0.073210
C16	C	0.389300	0.481800	0.818380	0.073210
C17	C	0.813680	0.852070	0.636130	0.190778
C18	C	0.186320	0.147930	0.363870	0.190778
C19	C	0.686320	0.647930	0.136130	0.190778
C20	C	0.313680	0.352070	0.863870	0.190778
C21	C	0.456460	0.883750	0.545300	0.069400
C22	C	0.543540	0.116250	0.454700	0.069400
C23	C	0.043540	0.616250	0.045300	0.069400
C24	C	0.956460	0.383750	0.954700	0.069400
C25	C	0.444100	0.083820	0.718420	0.073574
C26	C	0.555900	0.916180	0.281580	0.073574
C27	C	0.055900	0.416180	0.218420	0.073574
C28	C	0.944100	0.583820	0.781580	0.073574
C29	C	0.168000	0.650470	0.010150	0.073875
C30	C	0.832000	0.349530	0.989850	0.073875
C31	C	0.332000	0.849530	0.510150	0.073875
C32	C	0.668000	0.150470	0.489850	0.073875
C33	C	0.175580	0.676180	0.146220	0.188868
C34	C	0.824420	0.323820	0.853780	0.188868
C35	C	0.324420	0.823820	0.646220	0.188868
C36	C	0.675580	0.176180	0.353780	0.188868
C37	C	0.504030	0.556610	0.147930	0.075271
C38	C	0.495970	0.443390	0.852070	0.075271
C39	C	0.995970	0.943390	0.647930	0.075271
C40	C	0.004030	0.056610	0.352070	0.075271
C41	C	0.427090	0.910130	0.170490	0.189958
C42	C	0.572910	0.089870	0.829510	0.189958
C43	C	0.072910	0.589870	0.670490	0.189958
C44	C	0.927090	0.410130	0.329510	0.189958
C45	C	0.569090	0.840160	0.236240	0.073628
C46	C	0.430910	0.159840	0.763760	0.073628
C47	C	0.930910	0.659840	0.736240	0.073628
C48	C	0.069090	0.340160	0.263760	0.073628
N1	N	0.560810	0.833560	0.824950	-0.508935
N2	N	0.439190	0.166440	0.175050	-0.508935
N3	N	0.939190	0.666440	0.324950	-0.508935
N4	N	0.060810	0.333560	0.675050	-0.508935
N5	N	0.519390	0.768620	0.955780	-0.514251
N6	N	0.480610	0.231380	0.044220	-0.514251
N7	N	0.980610	0.731380	0.455780	-0.514251
N8	N	0.019390	0.268620	0.544220	-0.514251
N9	N	0.772280	0.922150	0.675260	-0.512508
N10	N	0.227720	0.077850	0.324740	-0.512508
N11	N	0.727720	0.577850	0.175260	-0.512508
N12	N	0.272280	0.422150	0.824740	-0.512508
N13	N	0.452160	0.868010	0.632790	-0.498652
N14	N	0.547840	0.131990	0.367210	-0.498652
N15	N	0.047840	0.631990	0.132790	-0.498652
N16	N	0.952160	0.368010	0.867210	-0.498652
N17	N	0.534490	0.038670	0.759940	-0.521048
N18	N	0.465510	0.961330	0.240060	-0.521048
N19	N	0.965510	0.461330	0.259940	-0.521048
N20	N	0.034490	0.538670	0.740060	-0.521048
N21	N	0.251110	0.690240	0.075500	-0.504171
N22	N	0.748890	0.309760	0.924500	-0.504171
N23	N	0.248890	0.809760	0.575500	-0.504171
N24	N	0.751110	0.190240	0.424500	-0.504171
N25	N	0.487140	0.836770	0.164390	-0.515163
N26	N	0.512860	0.163230	0.835610	-0.515163
N27	N	0.012860	0.663230	0.664390	-0.515163
N28	N	0.987140	0.336770	0.335610	-0.515163
N29	N	0.553300	0.639900	0.117710	-0.502288
N30	N	0.446700	0.360100	0.882290	-0.502288
N31	N	0.946700	0.860100	0.617710	-0.502288
N32	N	0.053300	0.139900	0.382290	-0.502288
