data_image0
_cell_length_a       26.9629
_cell_length_b       26.9629
_cell_length_c       27.5365
_cell_angle_alpha    90
_cell_angle_beta     90
_cell_angle_gamma    90

_symmetry_space_group_name_H-M    "P 1"
_symmetry_int_tables_number       1

loop_
  _symmetry_equiv_pos_as_xyz
  'x, y, z'

loop_
  _atom_site_label
  _atom_site_occupancy
  _atom_site_fract_x
  _atom_site_fract_y
  _atom_site_fract_z
  _atom_site_thermal_displace_type
  _atom_site_B_iso_or_equiv
  _atom_site_type_symbol
  N1       1.0000 0.41850  0.48770  0.68970  Biso   1.000  N
  N2       1.0000 0.69190  0.41660  0.48550  Biso   1.000  N
  C1       1.0000 0.39570  0.46700  0.65100  Biso   1.000  C
  H1       1.0000 0.36630  0.44970  0.65620  Biso   1.000  H
  C2       1.0000 0.41390  0.47010  0.60440  Biso   1.000  C
  H2       1.0000 0.39690  0.45560  0.57860  Biso   1.000  H
  C3       1.0000 0.45850  0.49550  0.59650  Biso   1.000  C
  C4       1.0000 0.48320  0.51430  0.63640  Biso   1.000  C
  H3       1.0000 0.51400  0.52940  0.63280  Biso   1.000  H
  C5       1.0000 0.46150  0.51040  0.68200  Biso   1.000  C
  H4       1.0000 0.47790  0.52430  0.70840  Biso   1.000  H
  C6       1.0000 0.47970  0.49940  0.54740  Biso   1.000  C
  C7       1.0000 0.52860  0.48530  0.53900  Biso   1.000  C
  H5       1.0000 0.54800  0.47580  0.56530  Biso   1.000  H
  C8       1.0000 0.54940  0.48490  0.49320  Biso   1.000  C
  C9       1.0000 0.59960  0.46350  0.48800  Biso   1.000  C
  C10      1.0000 0.63830  0.47970  0.51710  Biso   1.000  C
  H6       1.0000 0.63400  0.50660  0.53780  Biso   1.000  H
  C11      1.0000 0.68360  0.45540  0.51480  Biso   1.000  C
  H7       1.0000 0.70940  0.46660  0.53450  Biso   1.000  H
  C12      1.0000 0.65500  0.40200  0.45680  Biso   1.000  C
  H8       1.0000 0.66080  0.37590  0.43540  Biso   1.000  H
  C13      1.0000 0.60830  0.42370  0.45710  Biso   1.000  C
  H9       1.0000 0.58330  0.41180  0.43700  Biso   1.000  H
  N3       1.0000 0.91850  0.98770  0.18970  Biso   1.000  N
  N4       1.0000 0.19190  0.91660  0.98550  Biso   1.000  N
  C14      1.0000 0.89570  0.96700  0.15100  Biso   1.000  C
  H10      1.0000 0.86630  0.94970  0.15620  Biso   1.000  H
  C15      1.0000 0.91390  0.97010  0.10440  Biso   1.000  C
  H11      1.0000 0.89690  0.95560  0.07860  Biso   1.000  H
  C16      1.0000 0.95850  0.99550  0.09650  Biso   1.000  C
  C17      1.0000 0.98320  0.01430  0.13640  Biso   1.000  C
  H12      1.0000 0.01400  0.02940  0.13280  Biso   1.000  H
  C18      1.0000 0.96150  0.01040  0.18200  Biso   1.000  C
  H13      1.0000 0.97790  0.02430  0.20840  Biso   1.000  H
  C19      1.0000 0.97970  0.99940  0.04740  Biso   1.000  C
  C20      1.0000 0.02860  0.98530  0.03900  Biso   1.000  C
  H14      1.0000 0.04800  0.97580  0.06530  Biso   1.000  H
  C21      1.0000 0.04940  0.98490  0.99320  Biso   1.000  C
  C22      1.0000 0.09960  0.96350  0.98800  Biso   1.000  C
  C23      1.0000 0.13830  0.97970  0.01710  Biso   1.000  C
  H15      1.0000 0.13400  0.00660  0.03780  Biso   1.000  H
  C24      1.0000 0.18360  0.95540  0.01480  Biso   1.000  C
  H16      1.0000 0.20940  0.96660  0.03450  Biso   1.000  H
  C25      1.0000 0.15500  0.90200  0.95680  Biso   1.000  C
  H17      1.0000 0.16080  0.87590  0.93540  Biso   1.000  H
  C26      1.0000 0.10830  0.92370  0.95710  Biso   1.000  C
  H18      1.0000 0.08330  0.91180  0.93700  Biso   1.000  H
  N5       1.0000 0.08150  0.51230  0.18970  Biso   1.000  N
  N6       1.0000 0.80810  0.58340  0.98550  Biso   1.000  N
  C27      1.0000 0.10430  0.53300  0.15100  Biso   1.000  C
  H19      1.0000 0.13370  0.55030  0.15620  Biso   1.000  H
  C28      1.0000 0.08610  0.52990  0.10440  Biso   1.000  C
  H20      1.0000 0.10310  0.54440  0.07860  Biso   1.000  H
  C29      1.0000 0.04150  0.50450  0.09650  Biso   1.000  C
  C30      1.0000 0.01680  0.48570  0.13640  Biso   1.000  C
  H21      1.0000 0.98600  0.47060  0.13280  Biso   1.000  H
  C31      1.0000 0.03850  0.48960  0.18200  Biso   1.000  C
  H22      1.0000 0.02210  0.47570  0.20840  Biso   1.000  H
  C32      1.0000 0.02030  0.50060  0.04740  Biso   1.000  C
  C33      1.0000 0.97140  0.51470  0.03900  Biso   1.000  C
  H23      1.0000 0.95200  0.52420  0.06530  Biso   1.000  H
  C34      1.0000 0.95060  0.51510  0.99320  Biso   1.000  C
  C35      1.0000 0.90040  0.53650  0.98800  Biso   1.000  C
  C36      1.0000 0.86170  0.52030  0.01710  Biso   1.000  C
  H24      1.0000 0.86600  0.49340  0.03780  Biso   1.000  H
  C37      1.0000 0.81640  0.54460  0.01480  Biso   1.000  C
  H25      1.0000 0.79060  0.53340  0.03450  Biso   1.000  H
  C38      1.0000 0.84500  0.59800  0.95680  Biso   1.000  C
  H26      1.0000 0.83920  0.62410  0.93540  Biso   1.000  H
  C39      1.0000 0.89170  0.57630  0.95710  Biso   1.000  C
  H27      1.0000 0.91670  0.58820  0.93700  Biso   1.000  H
  N7       1.0000 0.58150  0.01230  0.68970  Biso   1.000  N
  N8       1.0000 0.30810  0.08340  0.48550  Biso   1.000  N
  C40      1.0000 0.60430  0.03300  0.65100  Biso   1.000  C
  H28      1.0000 0.63370  0.05030  0.65620  Biso   1.000  H
  C41      1.0000 0.58610  0.02990  0.60440  Biso   1.000  C
  H29      1.0000 0.60310  0.04440  0.57860  Biso   1.000  H
  C42      1.0000 0.54150  0.00450  0.59650  Biso   1.000  C
  C43      1.0000 0.51680  0.98570  0.63640  Biso   1.000  C
  H30      1.0000 0.48600  0.97060  0.63280  Biso   1.000  H
  C44      1.0000 0.53850  0.98960  0.68200  Biso   1.000  C
  H31      1.0000 0.52210  0.97570  0.70840  Biso   1.000  H
  C45      1.0000 0.52030  0.00060  0.54740  Biso   1.000  C
  C46      1.0000 0.47140  0.01470  0.53900  Biso   1.000  C
  H32      1.0000 0.45200  0.02420  0.56530  Biso   1.000  H
  C47      1.0000 0.45060  0.01510  0.49320  Biso   1.000  C
  C48      1.0000 0.40040  0.03650  0.48800  Biso   1.000  C
  C49      1.0000 0.36170  0.02030  0.51710  Biso   1.000  C
  H33      1.0000 0.36600  0.99340  0.53780  Biso   1.000  H
  C50      1.0000 0.31640  0.04460  0.51480  Biso   1.000  C
  H34      1.0000 0.29060  0.03340  0.53450  Biso   1.000  H
  C51      1.0000 0.34500  0.09800  0.45680  Biso   1.000  C
  H35      1.0000 0.33920  0.12410  0.43540  Biso   1.000  H
  C52      1.0000 0.39170  0.07630  0.45710  Biso   1.000  C
  H36      1.0000 0.41670  0.08820  0.43700  Biso   1.000  H
  N9       1.0000 0.76230  0.16850  0.93970  Biso   1.000  N
  N10      1.0000 0.83340  0.44190  0.73550  Biso   1.000  N
  C53      1.0000 0.78300  0.14570  0.90100  Biso   1.000  C
  H37      1.0000 0.80030  0.11630  0.90620  Biso   1.000  H
  C54      1.0000 0.77990  0.16390  0.85440  Biso   1.000  C
  H38      1.0000 0.79440  0.14690  0.82860  Biso   1.000  H
  C55      1.0000 0.75450  0.20850  0.84650  Biso   1.000  C
  C56      1.0000 0.73570  0.23320  0.88640  Biso   1.000  C
  H39      1.0000 0.72060  0.26400  0.88280  Biso   1.000  H
  C57      1.0000 0.73960  0.21150  0.93200  Biso   1.000  C
  H40      1.0000 0.72570  0.22790  0.95840  Biso   1.000  H
  C58      1.0000 0.75060  0.22970  0.79740  Biso   1.000  C
  C59      1.0000 0.76470  0.27860  0.78900  Biso   1.000  C
  H41      1.0000 0.77420  0.29800  0.81530  Biso   1.000  H
  C60      1.0000 0.76510  0.29940  0.74320  Biso   1.000  C
  C61      1.0000 0.78650  0.34960  0.73800  Biso   1.000  C
  C62      1.0000 0.77030  0.38830  0.76710  Biso   1.000  C
  H42      1.0000 0.74340  0.38400  0.78780  Biso   1.000  H
  C63      1.0000 0.79460  0.43360  0.76480  Biso   1.000  C
  H43      1.0000 0.78340  0.45940  0.78450  Biso   1.000  H
  C64      1.0000 0.84800  0.40500  0.70680  Biso   1.000  C
  H44      1.0000 0.87410  0.41080  0.68540  Biso   1.000  H
  C65      1.0000 0.82630  0.35830  0.70710  Biso   1.000  C
  H45      1.0000 0.83820  0.33330  0.68700  Biso   1.000  H
  N11      1.0000 0.26230  0.66850  0.43970  Biso   1.000  N
  N12      1.0000 0.33340  0.94190  0.23550  Biso   1.000  N
  C66      1.0000 0.28300  0.64570  0.40100  Biso   1.000  C
  H46      1.0000 0.30030  0.61630  0.40620  Biso   1.000  H
  C67      1.0000 0.27990  0.66390  0.35440  Biso   1.000  C
  H47      1.0000 0.29440  0.64690  0.32860  Biso   1.000  H
  C68      1.0000 0.25450  0.70850  0.34650  Biso   1.000  C
  C69      1.0000 0.23570  0.73320  0.38640  Biso   1.000  C
  H48      1.0000 0.22060  0.76400  0.38280  Biso   1.000  H
  C70      1.0000 0.23960  0.71150  0.43200  Biso   1.000  C
  H49      1.0000 0.22570  0.72790  0.45840  Biso   1.000  H
  C71      1.0000 0.25060  0.72970  0.29740  Biso   1.000  C
  C72      1.0000 0.26470  0.77860  0.28900  Biso   1.000  C
  H50      1.0000 0.27420  0.79800  0.31530  Biso   1.000  H
  C73      1.0000 0.26510  0.79940  0.24320  Biso   1.000  C
  C74      1.0000 0.28650  0.84960  0.23800  Biso   1.000  C
  C75      1.0000 0.27030  0.88830  0.26710  Biso   1.000  C
  H51      1.0000 0.24340  0.88400  0.28780  Biso   1.000  H
  C76      1.0000 0.29460  0.93360  0.26480  Biso   1.000  C
  H52      1.0000 0.28340  0.95940  0.28450  Biso   1.000  H
  C77      1.0000 0.34800  0.90500  0.20680  Biso   1.000  C
  H53      1.0000 0.37410  0.91080  0.18540  Biso   1.000  H
  C78      1.0000 0.32630  0.85830  0.20710  Biso   1.000  C
  H54      1.0000 0.33820  0.83330  0.18700  Biso   1.000  H
  N13      1.0000 0.73770  0.83150  0.43970  Biso   1.000  N
  N14      1.0000 0.66660  0.55810  0.23550  Biso   1.000  N
  C79      1.0000 0.71700  0.85430  0.40100  Biso   1.000  C
  H55      1.0000 0.69970  0.88370  0.40620  Biso   1.000  H
  C80      1.0000 0.72010  0.83610  0.35440  Biso   1.000  C
  H56      1.0000 0.70560  0.85310  0.32860  Biso   1.000  H
  C81      1.0000 0.74550  0.79150  0.34650  Biso   1.000  C
  C82      1.0000 0.76430  0.76680  0.38640  Biso   1.000  C
  H57      1.0000 0.77940  0.73600  0.38280  Biso   1.000  H
  C83      1.0000 0.76040  0.78850  0.43200  Biso   1.000  C
  H58      1.0000 0.77430  0.77210  0.45840  Biso   1.000  H
  C84      1.0000 0.74940  0.77030  0.29740  Biso   1.000  C
  C85      1.0000 0.73530  0.72140  0.28900  Biso   1.000  C
  H59      1.0000 0.72580  0.70200  0.31530  Biso   1.000  H
  C86      1.0000 0.73490  0.70060  0.24320  Biso   1.000  C
  C87      1.0000 0.71350  0.65040  0.23800  Biso   1.000  C
  C88      1.0000 0.72970  0.61170  0.26710  Biso   1.000  C
  H60      1.0000 0.75660  0.61600  0.28780  Biso   1.000  H
  C89      1.0000 0.70540  0.56640  0.26480  Biso   1.000  C
  H61      1.0000 0.71660  0.54060  0.28450  Biso   1.000  H
  C90      1.0000 0.65200  0.59500  0.20680  Biso   1.000  C
  H62      1.0000 0.62590  0.58920  0.18540  Biso   1.000  H
  C91      1.0000 0.67370  0.64170  0.20710  Biso   1.000  C
  H63      1.0000 0.66180  0.66670  0.18700  Biso   1.000  H
  N15      1.0000 0.23770  0.33150  0.93970  Biso   1.000  N
  N16      1.0000 0.16660  0.05810  0.73550  Biso   1.000  N
  C92      1.0000 0.21700  0.35430  0.90100  Biso   1.000  C
  H64      1.0000 0.19970  0.38370  0.90620  Biso   1.000  H
  C93      1.0000 0.22010  0.33610  0.85440  Biso   1.000  C
  H65      1.0000 0.20560  0.35310  0.82860  Biso   1.000  H
  C94      1.0000 0.24550  0.29150  0.84650  Biso   1.000  C
  C95      1.0000 0.26430  0.26680  0.88640  Biso   1.000  C
  H66      1.0000 0.27940  0.23600  0.88280  Biso   1.000  H
  C96      1.0000 0.26040  0.28850  0.93200  Biso   1.000  C
  H67      1.0000 0.27430  0.27210  0.95840  Biso   1.000  H
  C97      1.0000 0.24940  0.27030  0.79740  Biso   1.000  C
  C98      1.0000 0.23530  0.22140  0.78900  Biso   1.000  C
  H68      1.0000 0.22580  0.20200  0.81530  Biso   1.000  H
  C99      1.0000 0.23490  0.20060  0.74320  Biso   1.000  C
  C100     1.0000 0.21350  0.15040  0.73800  Biso   1.000  C
  C101     1.0000 0.22970  0.11170  0.76710  Biso   1.000  C
  H69      1.0000 0.25660  0.11600  0.78780  Biso   1.000  H
  C102     1.0000 0.20540  0.06640  0.76480  Biso   1.000  C
  H70      1.0000 0.21660  0.04060  0.78450  Biso   1.000  H
  C103     1.0000 0.15200  0.09500  0.70680  Biso   1.000  C
  H71      1.0000 0.12590  0.08920  0.68540  Biso   1.000  H
  C104     1.0000 0.17370  0.14170  0.70710  Biso   1.000  C
  H72      1.0000 0.16180  0.16670  0.68700  Biso   1.000  H
  N17      1.0000 0.08150  0.48770  0.31030  Biso   1.000  N
  N18      1.0000 0.80810  0.41660  0.51450  Biso   1.000  N
  C105     1.0000 0.10430  0.46700  0.34900  Biso   1.000  C
  H73      1.0000 0.13370  0.44970  0.34380  Biso   1.000  H
  C106     1.0000 0.08610  0.47010  0.39560  Biso   1.000  C
  H74      1.0000 0.10310  0.45560  0.42140  Biso   1.000  H
  C107     1.0000 0.04150  0.49550  0.40350  Biso   1.000  C
  C108     1.0000 0.01680  0.51430  0.36360  Biso   1.000  C
  H75      1.0000 0.98600  0.52940  0.36720  Biso   1.000  H
  C109     1.0000 0.03850  0.51040  0.31800  Biso   1.000  C
  H76      1.0000 0.02210  0.52430  0.29160  Biso   1.000  H
  C110     1.0000 0.02030  0.49940  0.45260  Biso   1.000  C
  C111     1.0000 0.97140  0.48530  0.46100  Biso   1.000  C
  H77      1.0000 0.95200  0.47580  0.43470  Biso   1.000  H
  C112     1.0000 0.95060  0.48490  0.50680  Biso   1.000  C
  C113     1.0000 0.90040  0.46350  0.51200  Biso   1.000  C
  C114     1.0000 0.86170  0.47970  0.48290  Biso   1.000  C
  H78      1.0000 0.86600  0.50660  0.46220  Biso   1.000  H
  C115     1.0000 0.81640  0.45540  0.48520  Biso   1.000  C
  H79      1.0000 0.79060  0.46660  0.46550  Biso   1.000  H
  C116     1.0000 0.84500  0.40200  0.54320  Biso   1.000  C
  H80      1.0000 0.83920  0.37590  0.56460  Biso   1.000  H
  C117     1.0000 0.89170  0.42370  0.54290  Biso   1.000  C
  H81      1.0000 0.91670  0.41180  0.56300  Biso   1.000  H
  N19      1.0000 0.58150  0.98770  0.81030  Biso   1.000  N
  N20      1.0000 0.30810  0.91660  0.01450  Biso   1.000  N
  C118     1.0000 0.60430  0.96700  0.84900  Biso   1.000  C
  H82      1.0000 0.63370  0.94970  0.84380  Biso   1.000  H
  C119     1.0000 0.58610  0.97010  0.89560  Biso   1.000  C
  H83      1.0000 0.60310  0.95560  0.92140  Biso   1.000  H
  C120     1.0000 0.54150  0.99550  0.90350  Biso   1.000  C
  C121     1.0000 0.51680  0.01430  0.86360  Biso   1.000  C
  H84      1.0000 0.48600  0.02940  0.86720  Biso   1.000  H
  C122     1.0000 0.53850  0.01040  0.81800  Biso   1.000  C
  H85      1.0000 0.52210  0.02430  0.79160  Biso   1.000  H
  C123     1.0000 0.52030  0.99940  0.95260  Biso   1.000  C
  C124     1.0000 0.47140  0.98530  0.96100  Biso   1.000  C
  H86      1.0000 0.45200  0.97580  0.93470  Biso   1.000  H
  C125     1.0000 0.45060  0.98490  0.00680  Biso   1.000  C
  C126     1.0000 0.40040  0.96350  0.01200  Biso   1.000  C
  C127     1.0000 0.36170  0.97970  0.98290  Biso   1.000  C
  H87      1.0000 0.36600  0.00660  0.96220  Biso   1.000  H
  C128     1.0000 0.31640  0.95540  0.98520  Biso   1.000  C
  H88      1.0000 0.29060  0.96660  0.96550  Biso   1.000  H
  C129     1.0000 0.34500  0.90200  0.04320  Biso   1.000  C
  H89      1.0000 0.33920  0.87590  0.06460  Biso   1.000  H
  C130     1.0000 0.39170  0.92370  0.04290  Biso   1.000  C
  H90      1.0000 0.41670  0.91180  0.06300  Biso   1.000  H
  N21      1.0000 0.41850  0.51230  0.81030  Biso   1.000  N
  N22      1.0000 0.69190  0.58340  0.01450  Biso   1.000  N
  C131     1.0000 0.39570  0.53300  0.84900  Biso   1.000  C
  H91      1.0000 0.36630  0.55030  0.84380  Biso   1.000  H
  C132     1.0000 0.41390  0.52990  0.89560  Biso   1.000  C
  H92      1.0000 0.39690  0.54440  0.92140  Biso   1.000  H
  C133     1.0000 0.45850  0.50450  0.90350  Biso   1.000  C
  C134     1.0000 0.48320  0.48570  0.86360  Biso   1.000  C
  H93      1.0000 0.51400  0.47060  0.86720  Biso   1.000  H
  C135     1.0000 0.46150  0.48960  0.81800  Biso   1.000  C
  H94      1.0000 0.47790  0.47570  0.79160  Biso   1.000  H
  C136     1.0000 0.47970  0.50060  0.95260  Biso   1.000  C
  C137     1.0000 0.52860  0.51470  0.96100  Biso   1.000  C
  H95      1.0000 0.54800  0.52420  0.93470  Biso   1.000  H
  C138     1.0000 0.54940  0.51510  0.00680  Biso   1.000  C
  C139     1.0000 0.59960  0.53650  0.01200  Biso   1.000  C
  C140     1.0000 0.63830  0.52030  0.98290  Biso   1.000  C
  H96      1.0000 0.63400  0.49340  0.96220  Biso   1.000  H
  C141     1.0000 0.68360  0.54460  0.98520  Biso   1.000  C
  H97      1.0000 0.70940  0.53340  0.96550  Biso   1.000  H
  C142     1.0000 0.65500  0.59800  0.04320  Biso   1.000  C
  H98      1.0000 0.66080  0.62410  0.06460  Biso   1.000  H
  C143     1.0000 0.60830  0.57630  0.04290  Biso   1.000  C
  H99      1.0000 0.58330  0.58820  0.06300  Biso   1.000  H
  N23      1.0000 0.91850  0.01230  0.31030  Biso   1.000  N
  N24      1.0000 0.19190  0.08340  0.51450  Biso   1.000  N
  C144     1.0000 0.89570  0.03300  0.34900  Biso   1.000  C
  H100     1.0000 0.86630  0.05030  0.34380  Biso   1.000  H
  C145     1.0000 0.91390  0.02990  0.39560  Biso   1.000  C
  H101     1.0000 0.89690  0.04440  0.42140  Biso   1.000  H
  C146     1.0000 0.95850  0.00450  0.40350  Biso   1.000  C
  C147     1.0000 0.98320  0.98570  0.36360  Biso   1.000  C
  H102     1.0000 0.01400  0.97060  0.36720  Biso   1.000  H
  C148     1.0000 0.96150  0.98960  0.31800  Biso   1.000  C
  H103     1.0000 0.97790  0.97570  0.29160  Biso   1.000  H
  C149     1.0000 0.97970  0.00060  0.45260  Biso   1.000  C
  C150     1.0000 0.02860  0.01470  0.46100  Biso   1.000  C
  H104     1.0000 0.04800  0.02420  0.43470  Biso   1.000  H
  C151     1.0000 0.04940  0.01510  0.50680  Biso   1.000  C
  C152     1.0000 0.09960  0.03650  0.51200  Biso   1.000  C
  C153     1.0000 0.13830  0.02030  0.48290  Biso   1.000  C
  H105     1.0000 0.13400  0.99340  0.46220  Biso   1.000  H
  C154     1.0000 0.18360  0.04460  0.48520  Biso   1.000  C
  H106     1.0000 0.20940  0.03340  0.46550  Biso   1.000  H
  C155     1.0000 0.15500  0.09800  0.54320  Biso   1.000  C
  H107     1.0000 0.16080  0.12410  0.56460  Biso   1.000  H
  C156     1.0000 0.10830  0.07630  0.54290  Biso   1.000  C
  H108     1.0000 0.08330  0.08820  0.56300  Biso   1.000  H
  N25      1.0000 0.73770  0.16850  0.06030  Biso   1.000  N
  N26      1.0000 0.66660  0.44190  0.26450  Biso   1.000  N
  C157     1.0000 0.71700  0.14570  0.09900  Biso   1.000  C
  H109     1.0000 0.69970  0.11630  0.09380  Biso   1.000  H
  C158     1.0000 0.72010  0.16390  0.14560  Biso   1.000  C
  H110     1.0000 0.70560  0.14690  0.17140  Biso   1.000  H
  C159     1.0000 0.74550  0.20850  0.15350  Biso   1.000  C
  C160     1.0000 0.76430  0.23320  0.11360  Biso   1.000  C
  H111     1.0000 0.77940  0.26400  0.11720  Biso   1.000  H
  C161     1.0000 0.76040  0.21150  0.06800  Biso   1.000  C
  H112     1.0000 0.77430  0.22790  0.04160  Biso   1.000  H
  C162     1.0000 0.74940  0.22970  0.20260  Biso   1.000  C
  C163     1.0000 0.73530  0.27860  0.21100  Biso   1.000  C
  H113     1.0000 0.72580  0.29800  0.18470  Biso   1.000  H
  C164     1.0000 0.73490  0.29940  0.25680  Biso   1.000  C
  C165     1.0000 0.71350  0.34960  0.26200  Biso   1.000  C
  C166     1.0000 0.72970  0.38830  0.23290  Biso   1.000  C
  H114     1.0000 0.75660  0.38400  0.21220  Biso   1.000  H
  C167     1.0000 0.70540  0.43360  0.23520  Biso   1.000  C
  H115     1.0000 0.71660  0.45940  0.21550  Biso   1.000  H
  C168     1.0000 0.65200  0.40500  0.29320  Biso   1.000  C
  H116     1.0000 0.62590  0.41080  0.31460  Biso   1.000  H
  C169     1.0000 0.67370  0.35830  0.29290  Biso   1.000  C
  H117     1.0000 0.66180  0.33330  0.31300  Biso   1.000  H
  N27      1.0000 0.23770  0.66850  0.56030  Biso   1.000  N
  N28      1.0000 0.16660  0.94190  0.76450  Biso   1.000  N
  C170     1.0000 0.21700  0.64570  0.59900  Biso   1.000  C
  H118     1.0000 0.19970  0.61630  0.59380  Biso   1.000  H
  C171     1.0000 0.22010  0.66390  0.64560  Biso   1.000  C
  H119     1.0000 0.20560  0.64690  0.67140  Biso   1.000  H
  C172     1.0000 0.24550  0.70850  0.65350  Biso   1.000  C
  C173     1.0000 0.26430  0.73320  0.61360  Biso   1.000  C
  H120     1.0000 0.27940  0.76400  0.61720  Biso   1.000  H
  C174     1.0000 0.26040  0.71150  0.56800  Biso   1.000  C
  H121     1.0000 0.27430  0.72790  0.54160  Biso   1.000  H
  C175     1.0000 0.24940  0.72970  0.70260  Biso   1.000  C
  C176     1.0000 0.23530  0.77860  0.71100  Biso   1.000  C
  H122     1.0000 0.22580  0.79800  0.68470  Biso   1.000  H
  C177     1.0000 0.23490  0.79940  0.75680  Biso   1.000  C
  C178     1.0000 0.21350  0.84960  0.76200  Biso   1.000  C
  C179     1.0000 0.22970  0.88830  0.73290  Biso   1.000  C
  H123     1.0000 0.25660  0.88400  0.71220  Biso   1.000  H
  C180     1.0000 0.20540  0.93360  0.73520  Biso   1.000  C
  H124     1.0000 0.21660  0.95940  0.71550  Biso   1.000  H
  C181     1.0000 0.15200  0.90500  0.79320  Biso   1.000  C
  H125     1.0000 0.12590  0.91080  0.81460  Biso   1.000  H
  C182     1.0000 0.17370  0.85830  0.79290  Biso   1.000  C
  H126     1.0000 0.16180  0.83330  0.81300  Biso   1.000  H
  N29      1.0000 0.76230  0.83150  0.56030  Biso   1.000  N
  N30      1.0000 0.83340  0.55810  0.76450  Biso   1.000  N
  C183     1.0000 0.78300  0.85430  0.59900  Biso   1.000  C
  H127     1.0000 0.80030  0.88370  0.59380  Biso   1.000  H
  C184     1.0000 0.77990  0.83610  0.64560  Biso   1.000  C
  H128     1.0000 0.79440  0.85310  0.67140  Biso   1.000  H
  C185     1.0000 0.75450  0.79150  0.65350  Biso   1.000  C
  C186     1.0000 0.73570  0.76680  0.61360  Biso   1.000  C
  H129     1.0000 0.72060  0.73600  0.61720  Biso   1.000  H
  C187     1.0000 0.73960  0.78850  0.56800  Biso   1.000  C
  H130     1.0000 0.72570  0.77210  0.54160  Biso   1.000  H
  C188     1.0000 0.75060  0.77030  0.70260  Biso   1.000  C
  C189     1.0000 0.76470  0.72140  0.71100  Biso   1.000  C
  H131     1.0000 0.77420  0.70200  0.68470  Biso   1.000  H
  C190     1.0000 0.76510  0.70060  0.75680  Biso   1.000  C
  C191     1.0000 0.78650  0.65040  0.76200  Biso   1.000  C
  C192     1.0000 0.77030  0.61170  0.73290  Biso   1.000  C
  H132     1.0000 0.74340  0.61600  0.71220  Biso   1.000  H
  C193     1.0000 0.79460  0.56640  0.73520  Biso   1.000  C
  H133     1.0000 0.78340  0.54060  0.71550  Biso   1.000  H
  C194     1.0000 0.84800  0.59500  0.79320  Biso   1.000  C
  H134     1.0000 0.87410  0.58920  0.81460  Biso   1.000  H
  C195     1.0000 0.82630  0.64170  0.79290  Biso   1.000  C
  H135     1.0000 0.83820  0.66670  0.81300  Biso   1.000  H
  N31      1.0000 0.26230  0.33150  0.06030  Biso   1.000  N
  N32      1.0000 0.33340  0.05810  0.26450  Biso   1.000  N
  C196     1.0000 0.28300  0.35430  0.09900  Biso   1.000  C
  H136     1.0000 0.30030  0.38370  0.09380  Biso   1.000  H
  C197     1.0000 0.27990  0.33610  0.14560  Biso   1.000  C
  H137     1.0000 0.29440  0.35310  0.17140  Biso   1.000  H
  C198     1.0000 0.25450  0.29150  0.15350  Biso   1.000  C
  C199     1.0000 0.23570  0.26680  0.11360  Biso   1.000  C
  H138     1.0000 0.22060  0.23600  0.11720  Biso   1.000  H
  C200     1.0000 0.23960  0.28850  0.06800  Biso   1.000  C
  H139     1.0000 0.22570  0.27210  0.04160  Biso   1.000  H
  C201     1.0000 0.25060  0.27030  0.20260  Biso   1.000  C
  C202     1.0000 0.26470  0.22140  0.21100  Biso   1.000  C
  H140     1.0000 0.27420  0.20200  0.18470  Biso   1.000  H
  C203     1.0000 0.26510  0.20060  0.25680  Biso   1.000  C
  C204     1.0000 0.28650  0.15040  0.26200  Biso   1.000  C
  C205     1.0000 0.27030  0.11170  0.23290  Biso   1.000  C
  H141     1.0000 0.24340  0.11600  0.21220  Biso   1.000  H
  C206     1.0000 0.29460  0.06640  0.23520  Biso   1.000  C
  H142     1.0000 0.28340  0.04060  0.21550  Biso   1.000  H
  C207     1.0000 0.34800  0.09500  0.29320  Biso   1.000  C
  H143     1.0000 0.37410  0.08920  0.31460  Biso   1.000  H
  C208     1.0000 0.32630  0.14170  0.29290  Biso   1.000  C
  H144     1.0000 0.33820  0.16670  0.31300  Biso   1.000  H
  N33      1.0000 0.58150  0.51230  0.31030  Biso   1.000  N
  N34      1.0000 0.30810  0.58340  0.51450  Biso   1.000  N
  C209     1.0000 0.60430  0.53300  0.34900  Biso   1.000  C
  H145     1.0000 0.63370  0.55030  0.34380  Biso   1.000  H
  C210     1.0000 0.58610  0.52990  0.39560  Biso   1.000  C
  H146     1.0000 0.60310  0.54440  0.42140  Biso   1.000  H
  C211     1.0000 0.54150  0.50450  0.40350  Biso   1.000  C
  C212     1.0000 0.51680  0.48570  0.36360  Biso   1.000  C
  H147     1.0000 0.48600  0.47060  0.36720  Biso   1.000  H
  C213     1.0000 0.53850  0.48960  0.31800  Biso   1.000  C
  H148     1.0000 0.52210  0.47570  0.29160  Biso   1.000  H
  C214     1.0000 0.52030  0.50060  0.45260  Biso   1.000  C
  C215     1.0000 0.47140  0.51470  0.46100  Biso   1.000  C
  H149     1.0000 0.45200  0.52420  0.43470  Biso   1.000  H
  C216     1.0000 0.45060  0.51510  0.50680  Biso   1.000  C
  C217     1.0000 0.40040  0.53650  0.51200  Biso   1.000  C
  C218     1.0000 0.36170  0.52030  0.48290  Biso   1.000  C
  H150     1.0000 0.36600  0.49340  0.46220  Biso   1.000  H
  C219     1.0000 0.31640  0.54460  0.48520  Biso   1.000  C
  H151     1.0000 0.29060  0.53340  0.46550  Biso   1.000  H
  C220     1.0000 0.34500  0.59800  0.54320  Biso   1.000  C
  H152     1.0000 0.33920  0.62410  0.56460  Biso   1.000  H
  C221     1.0000 0.39170  0.57630  0.54290  Biso   1.000  C
  H153     1.0000 0.41670  0.58820  0.56300  Biso   1.000  H
  N35      1.0000 0.08150  0.01230  0.81030  Biso   1.000  N
  N36      1.0000 0.80810  0.08340  0.01450  Biso   1.000  N
  C222     1.0000 0.10430  0.03300  0.84900  Biso   1.000  C
  H154     1.0000 0.13370  0.05030  0.84380  Biso   1.000  H
  C223     1.0000 0.08610  0.02990  0.89560  Biso   1.000  C
  H155     1.0000 0.10310  0.04440  0.92140  Biso   1.000  H
  C224     1.0000 0.04150  0.00450  0.90350  Biso   1.000  C
  C225     1.0000 0.01680  0.98570  0.86360  Biso   1.000  C
  H156     1.0000 0.98600  0.97060  0.86720  Biso   1.000  H
  C226     1.0000 0.03850  0.98960  0.81800  Biso   1.000  C
  H157     1.0000 0.02210  0.97570  0.79160  Biso   1.000  H
  C227     1.0000 0.02030  0.00060  0.95260  Biso   1.000  C
  C228     1.0000 0.97140  0.01470  0.96100  Biso   1.000  C
  H158     1.0000 0.95200  0.02420  0.93470  Biso   1.000  H
  C229     1.0000 0.95060  0.01510  0.00680  Biso   1.000  C
  C230     1.0000 0.90040  0.03650  0.01200  Biso   1.000  C
  C231     1.0000 0.86170  0.02030  0.98290  Biso   1.000  C
  H159     1.0000 0.86600  0.99340  0.96220  Biso   1.000  H
  C232     1.0000 0.81640  0.04460  0.98520  Biso   1.000  C
  H160     1.0000 0.79060  0.03340  0.96550  Biso   1.000  H
  C233     1.0000 0.84500  0.09800  0.04320  Biso   1.000  C
  H161     1.0000 0.83920  0.12410  0.06460  Biso   1.000  H
  C234     1.0000 0.89170  0.07630  0.04290  Biso   1.000  C
  H162     1.0000 0.91670  0.08820  0.06300  Biso   1.000  H
  N37      1.0000 0.91850  0.48770  0.81030  Biso   1.000  N
  N38      1.0000 0.19190  0.41660  0.01450  Biso   1.000  N
  C235     1.0000 0.89570  0.46700  0.84900  Biso   1.000  C
  H163     1.0000 0.86630  0.44970  0.84380  Biso   1.000  H
  C236     1.0000 0.91390  0.47010  0.89560  Biso   1.000  C
  H164     1.0000 0.89690  0.45560  0.92140  Biso   1.000  H
  C237     1.0000 0.95850  0.49550  0.90350  Biso   1.000  C
  C238     1.0000 0.98320  0.51430  0.86360  Biso   1.000  C
  H165     1.0000 0.01400  0.52940  0.86720  Biso   1.000  H
  C239     1.0000 0.96150  0.51040  0.81800  Biso   1.000  C
  H166     1.0000 0.97790  0.52430  0.79160  Biso   1.000  H
  C240     1.0000 0.97970  0.49940  0.95260  Biso   1.000  C
  C241     1.0000 0.02860  0.48530  0.96100  Biso   1.000  C
  H167     1.0000 0.04800  0.47580  0.93470  Biso   1.000  H
  C242     1.0000 0.04940  0.48490  0.00680  Biso   1.000  C
  C243     1.0000 0.09960  0.46350  0.01200  Biso   1.000  C
  C244     1.0000 0.13830  0.47970  0.98290  Biso   1.000  C
  H168     1.0000 0.13400  0.50660  0.96220  Biso   1.000  H
  C245     1.0000 0.18360  0.45540  0.98520  Biso   1.000  C
  H169     1.0000 0.20940  0.46660  0.96550  Biso   1.000  H
  C246     1.0000 0.15500  0.40200  0.04320  Biso   1.000  C
  H170     1.0000 0.16080  0.37590  0.06460  Biso   1.000  H
  C247     1.0000 0.10830  0.42370  0.04290  Biso   1.000  C
  H171     1.0000 0.08330  0.41180  0.06300  Biso   1.000  H
  N39      1.0000 0.41850  0.98770  0.31030  Biso   1.000  N
  N40      1.0000 0.69190  0.91660  0.51450  Biso   1.000  N
  C248     1.0000 0.39570  0.96700  0.34900  Biso   1.000  C
  H172     1.0000 0.36630  0.94970  0.34380  Biso   1.000  H
  C249     1.0000 0.41390  0.97010  0.39560  Biso   1.000  C
  H173     1.0000 0.39690  0.95560  0.42140  Biso   1.000  H
  C250     1.0000 0.45850  0.99550  0.40350  Biso   1.000  C
  C251     1.0000 0.48320  0.01430  0.36360  Biso   1.000  C
  H174     1.0000 0.51400  0.02940  0.36720  Biso   1.000  H
  C252     1.0000 0.46150  0.01040  0.31800  Biso   1.000  C
  H175     1.0000 0.47790  0.02430  0.29160  Biso   1.000  H
  C253     1.0000 0.47970  0.99940  0.45260  Biso   1.000  C
  C254     1.0000 0.52860  0.98530  0.46100  Biso   1.000  C
  H176     1.0000 0.54800  0.97580  0.43470  Biso   1.000  H
  C255     1.0000 0.54940  0.98490  0.50680  Biso   1.000  C
  C256     1.0000 0.59960  0.96350  0.51200  Biso   1.000  C
  C257     1.0000 0.63830  0.97970  0.48290  Biso   1.000  C
  H177     1.0000 0.63400  0.00660  0.46220  Biso   1.000  H
  C258     1.0000 0.68360  0.95540  0.48520  Biso   1.000  C
  H178     1.0000 0.70940  0.96660  0.46550  Biso   1.000  H
  C259     1.0000 0.65500  0.90200  0.54320  Biso   1.000  C
  H179     1.0000 0.66080  0.87590  0.56460  Biso   1.000  H
  C260     1.0000 0.60830  0.92370  0.54290  Biso   1.000  C
  H180     1.0000 0.58330  0.91180  0.56300  Biso   1.000  H
  N41      1.0000 0.23770  0.83150  0.06030  Biso   1.000  N
  N42      1.0000 0.16660  0.55810  0.26450  Biso   1.000  N
  C261     1.0000 0.21700  0.85430  0.09900  Biso   1.000  C
  H181     1.0000 0.19970  0.88370  0.09380  Biso   1.000  H
  C262     1.0000 0.22010  0.83610  0.14560  Biso   1.000  C
  H182     1.0000 0.20560  0.85310  0.17140  Biso   1.000  H
  C263     1.0000 0.24550  0.79150  0.15350  Biso   1.000  C
  C264     1.0000 0.26430  0.76680  0.11360  Biso   1.000  C
  H183     1.0000 0.27940  0.73600  0.11720  Biso   1.000  H
  C265     1.0000 0.26040  0.78850  0.06800  Biso   1.000  C
  H184     1.0000 0.27430  0.77210  0.04160  Biso   1.000  H
  C266     1.0000 0.24940  0.77030  0.20260  Biso   1.000  C
  C267     1.0000 0.23530  0.72140  0.21100  Biso   1.000  C
  H185     1.0000 0.22580  0.70200  0.18470  Biso   1.000  H
  C268     1.0000 0.23490  0.70060  0.25680  Biso   1.000  C
  C269     1.0000 0.21350  0.65040  0.26200  Biso   1.000  C
  C270     1.0000 0.22970  0.61170  0.23290  Biso   1.000  C
  H186     1.0000 0.25660  0.61600  0.21220  Biso   1.000  H
  C271     1.0000 0.20540  0.56640  0.23520  Biso   1.000  C
  H187     1.0000 0.21660  0.54060  0.21550  Biso   1.000  H
  C272     1.0000 0.15200  0.59500  0.29320  Biso   1.000  C
  H188     1.0000 0.12590  0.58920  0.31460  Biso   1.000  H
  C273     1.0000 0.17370  0.64170  0.29290  Biso   1.000  C
  H189     1.0000 0.16180  0.66670  0.31300  Biso   1.000  H
  N43      1.0000 0.73770  0.33150  0.56030  Biso   1.000  N
  N44      1.0000 0.66660  0.05810  0.76450  Biso   1.000  N
  C274     1.0000 0.71700  0.35430  0.59900  Biso   1.000  C
  H190     1.0000 0.69970  0.38370  0.59380  Biso   1.000  H
  C275     1.0000 0.72010  0.33610  0.64560  Biso   1.000  C
  H191     1.0000 0.70560  0.35310  0.67140  Biso   1.000  H
  C276     1.0000 0.74550  0.29150  0.65350  Biso   1.000  C
  C277     1.0000 0.76430  0.26680  0.61360  Biso   1.000  C
  H192     1.0000 0.77940  0.23600  0.61720  Biso   1.000  H
  C278     1.0000 0.76040  0.28850  0.56800  Biso   1.000  C
  H193     1.0000 0.77430  0.27210  0.54160  Biso   1.000  H
  C279     1.0000 0.74940  0.27030  0.70260  Biso   1.000  C
  C280     1.0000 0.73530  0.22140  0.71100  Biso   1.000  C
  H194     1.0000 0.72580  0.20200  0.68470  Biso   1.000  H
  C281     1.0000 0.73490  0.20060  0.75680  Biso   1.000  C
  C282     1.0000 0.71350  0.15040  0.76200  Biso   1.000  C
  C283     1.0000 0.72970  0.11170  0.73290  Biso   1.000  C
  H195     1.0000 0.75660  0.11600  0.71220  Biso   1.000  H
  C284     1.0000 0.70540  0.06640  0.73520  Biso   1.000  C
  H196     1.0000 0.71660  0.04060  0.71550  Biso   1.000  H
  C285     1.0000 0.65200  0.09500  0.79320  Biso   1.000  C
  H197     1.0000 0.62590  0.08920  0.81460  Biso   1.000  H
  C286     1.0000 0.67370  0.14170  0.79290  Biso   1.000  C
  H198     1.0000 0.66180  0.16670  0.81300  Biso   1.000  H
  N45      1.0000 0.26230  0.16850  0.56030  Biso   1.000  N
  N46      1.0000 0.33340  0.44190  0.76450  Biso   1.000  N
  C287     1.0000 0.28300  0.14570  0.59900  Biso   1.000  C
  H199     1.0000 0.30030  0.11630  0.59380  Biso   1.000  H
  C288     1.0000 0.27990  0.16390  0.64560  Biso   1.000  C
  H200     1.0000 0.29440  0.14690  0.67140  Biso   1.000  H
  C289     1.0000 0.25450  0.20850  0.65350  Biso   1.000  C
  C290     1.0000 0.23570  0.23320  0.61360  Biso   1.000  C
  H201     1.0000 0.22060  0.26400  0.61720  Biso   1.000  H
  C291     1.0000 0.23960  0.21150  0.56800  Biso   1.000  C
  H202     1.0000 0.22570  0.22790  0.54160  Biso   1.000  H
  C292     1.0000 0.25060  0.22970  0.70260  Biso   1.000  C
  C293     1.0000 0.26470  0.27860  0.71100  Biso   1.000  C
  H203     1.0000 0.27420  0.29800  0.68470  Biso   1.000  H
  C294     1.0000 0.26510  0.29940  0.75680  Biso   1.000  C
  C295     1.0000 0.28650  0.34960  0.76200  Biso   1.000  C
  C296     1.0000 0.27030  0.38830  0.73290  Biso   1.000  C
  H204     1.0000 0.24340  0.38400  0.71220  Biso   1.000  H
  C297     1.0000 0.29460  0.43360  0.73520  Biso   1.000  C
  H205     1.0000 0.28340  0.45940  0.71550  Biso   1.000  H
  C298     1.0000 0.34800  0.40500  0.79320  Biso   1.000  C
  H206     1.0000 0.37410  0.41080  0.81460  Biso   1.000  H
  C299     1.0000 0.32630  0.35830  0.79290  Biso   1.000  C
  H207     1.0000 0.33820  0.33330  0.81300  Biso   1.000  H
  N47      1.0000 0.76230  0.66850  0.06030  Biso   1.000  N
  N48      1.0000 0.83340  0.94190  0.26450  Biso   1.000  N
  C300     1.0000 0.78300  0.64570  0.09900  Biso   1.000  C
  H208     1.0000 0.80030  0.61630  0.09380  Biso   1.000  H
  C301     1.0000 0.77990  0.66390  0.14560  Biso   1.000  C
  H209     1.0000 0.79440  0.64690  0.17140  Biso   1.000  H
  C302     1.0000 0.75450  0.70850  0.15350  Biso   1.000  C
  C303     1.0000 0.73570  0.73320  0.11360  Biso   1.000  C
  H210     1.0000 0.72060  0.76400  0.11720  Biso   1.000  H
  C304     1.0000 0.73960  0.71150  0.06800  Biso   1.000  C
  H211     1.0000 0.72570  0.72790  0.04160  Biso   1.000  H
  C305     1.0000 0.75060  0.72970  0.20260  Biso   1.000  C
  C306     1.0000 0.76470  0.77860  0.21100  Biso   1.000  C
  H212     1.0000 0.77420  0.79800  0.18470  Biso   1.000  H
  C307     1.0000 0.76510  0.79940  0.25680  Biso   1.000  C
  C308     1.0000 0.78650  0.84960  0.26200  Biso   1.000  C
  C309     1.0000 0.77030  0.88830  0.23290  Biso   1.000  C
  H213     1.0000 0.74340  0.88400  0.21220  Biso   1.000  H
  C310     1.0000 0.79460  0.93360  0.23520  Biso   1.000  C
  H214     1.0000 0.78340  0.95940  0.21550  Biso   1.000  H
  C311     1.0000 0.84800  0.90500  0.29320  Biso   1.000  C
  H215     1.0000 0.87410  0.91080  0.31460  Biso   1.000  H
  C312     1.0000 0.82630  0.85830  0.29290  Biso   1.000  C
  H216     1.0000 0.83820  0.83330  0.31300  Biso   1.000  H
  N49      1.0000 0.91850  0.51230  0.68970  Biso   1.000  N
  N50      1.0000 0.19190  0.58340  0.48550  Biso   1.000  N
  C313     1.0000 0.89570  0.53300  0.65100  Biso   1.000  C
  H217     1.0000 0.86630  0.55030  0.65620  Biso   1.000  H
  C314     1.0000 0.91390  0.52990  0.60440  Biso   1.000  C
  H218     1.0000 0.89690  0.54440  0.57860  Biso   1.000  H
  C315     1.0000 0.95850  0.50450  0.59650  Biso   1.000  C
  C316     1.0000 0.98320  0.48570  0.63640  Biso   1.000  C
  H219     1.0000 0.01400  0.47060  0.63280  Biso   1.000  H
  C317     1.0000 0.96150  0.48960  0.68200  Biso   1.000  C
  H220     1.0000 0.97790  0.47570  0.70840  Biso   1.000  H
  C318     1.0000 0.97970  0.50060  0.54740  Biso   1.000  C
  C319     1.0000 0.02860  0.51470  0.53900  Biso   1.000  C
  H221     1.0000 0.04800  0.52420  0.56530  Biso   1.000  H
  C320     1.0000 0.04940  0.51510  0.49320  Biso   1.000  C
  C321     1.0000 0.09960  0.53650  0.48800  Biso   1.000  C
  C322     1.0000 0.13830  0.52030  0.51710  Biso   1.000  C
  H222     1.0000 0.13400  0.49340  0.53780  Biso   1.000  H
  C323     1.0000 0.18360  0.54460  0.51480  Biso   1.000  C
  H223     1.0000 0.20940  0.53340  0.53450  Biso   1.000  H
  C324     1.0000 0.15500  0.59800  0.45680  Biso   1.000  C
  H224     1.0000 0.16080  0.62410  0.43540  Biso   1.000  H
  C325     1.0000 0.10830  0.57630  0.45710  Biso   1.000  C
  H225     1.0000 0.08330  0.58820  0.43700  Biso   1.000  H
  N51      1.0000 0.41850  0.01230  0.18970  Biso   1.000  N
  N52      1.0000 0.69190  0.08340  0.98550  Biso   1.000  N
  C326     1.0000 0.39570  0.03300  0.15100  Biso   1.000  C
  H226     1.0000 0.36630  0.05030  0.15620  Biso   1.000  H
  C327     1.0000 0.41390  0.02990  0.10440  Biso   1.000  C
  H227     1.0000 0.39690  0.04440  0.07860  Biso   1.000  H
  C328     1.0000 0.45850  0.00450  0.09650  Biso   1.000  C
  C329     1.0000 0.48320  0.98570  0.13640  Biso   1.000  C
  H228     1.0000 0.51400  0.97060  0.13280  Biso   1.000  H
  C330     1.0000 0.46150  0.98960  0.18200  Biso   1.000  C
  H229     1.0000 0.47790  0.97570  0.20840  Biso   1.000  H
  C331     1.0000 0.47970  0.00060  0.04740  Biso   1.000  C
  C332     1.0000 0.52860  0.01470  0.03900  Biso   1.000  C
  H230     1.0000 0.54800  0.02420  0.06530  Biso   1.000  H
  C333     1.0000 0.54940  0.01510  0.99320  Biso   1.000  C
  C334     1.0000 0.59960  0.03650  0.98800  Biso   1.000  C
  C335     1.0000 0.63830  0.02030  0.01710  Biso   1.000  C
  H231     1.0000 0.63400  0.99340  0.03780  Biso   1.000  H
  C336     1.0000 0.68360  0.04460  0.01480  Biso   1.000  C
  H232     1.0000 0.70940  0.03340  0.03450  Biso   1.000  H
  C337     1.0000 0.65500  0.09800  0.95680  Biso   1.000  C
  H233     1.0000 0.66080  0.12410  0.93540  Biso   1.000  H
  C338     1.0000 0.60830  0.07630  0.95710  Biso   1.000  C
  H234     1.0000 0.58330  0.08820  0.93700  Biso   1.000  H
  N53      1.0000 0.58150  0.48770  0.18970  Biso   1.000  N
  N54      1.0000 0.30810  0.41660  0.98550  Biso   1.000  N
  C339     1.0000 0.60430  0.46700  0.15100  Biso   1.000  C
  H235     1.0000 0.63370  0.44970  0.15620  Biso   1.000  H
  C340     1.0000 0.58610  0.47010  0.10440  Biso   1.000  C
  H236     1.0000 0.60310  0.45560  0.07860  Biso   1.000  H
  C341     1.0000 0.54150  0.49550  0.09650  Biso   1.000  C
  C342     1.0000 0.51680  0.51430  0.13640  Biso   1.000  C
  H237     1.0000 0.48600  0.52940  0.13280  Biso   1.000  H
  C343     1.0000 0.53850  0.51040  0.18200  Biso   1.000  C
  H238     1.0000 0.52210  0.52430  0.20840  Biso   1.000  H
  C344     1.0000 0.52030  0.49940  0.04740  Biso   1.000  C
  C345     1.0000 0.47140  0.48530  0.03900  Biso   1.000  C
  H239     1.0000 0.45200  0.47580  0.06530  Biso   1.000  H
  C346     1.0000 0.45060  0.48490  0.99320  Biso   1.000  C
  C347     1.0000 0.40040  0.46350  0.98800  Biso   1.000  C
  C348     1.0000 0.36170  0.47970  0.01710  Biso   1.000  C
  H240     1.0000 0.36600  0.50660  0.03780  Biso   1.000  H
  C349     1.0000 0.31640  0.45540  0.01480  Biso   1.000  C
  H241     1.0000 0.29060  0.46660  0.03450  Biso   1.000  H
  C350     1.0000 0.34500  0.40200  0.95680  Biso   1.000  C
  H242     1.0000 0.33920  0.37590  0.93540  Biso   1.000  H
  C351     1.0000 0.39170  0.42370  0.95710  Biso   1.000  C
  H243     1.0000 0.41670  0.41180  0.93700  Biso   1.000  H
  N55      1.0000 0.08150  0.98770  0.68970  Biso   1.000  N
  N56      1.0000 0.80810  0.91660  0.48550  Biso   1.000  N
  C352     1.0000 0.10430  0.96700  0.65100  Biso   1.000  C
  H244     1.0000 0.13370  0.94970  0.65620  Biso   1.000  H
  C353     1.0000 0.08610  0.97010  0.60440  Biso   1.000  C
  H245     1.0000 0.10310  0.95560  0.57860  Biso   1.000  H
  C354     1.0000 0.04150  0.99550  0.59650  Biso   1.000  C
  C355     1.0000 0.01680  0.01430  0.63640  Biso   1.000  C
  H246     1.0000 0.98600  0.02940  0.63280  Biso   1.000  H
  C356     1.0000 0.03850  0.01040  0.68200  Biso   1.000  C
  H247     1.0000 0.02210  0.02430  0.70840  Biso   1.000  H
  C357     1.0000 0.02030  0.99940  0.54740  Biso   1.000  C
  C358     1.0000 0.97140  0.98530  0.53900  Biso   1.000  C
  H248     1.0000 0.95200  0.97580  0.56530  Biso   1.000  H
  C359     1.0000 0.95060  0.98490  0.49320  Biso   1.000  C
  C360     1.0000 0.90040  0.96350  0.48800  Biso   1.000  C
  C361     1.0000 0.86170  0.97970  0.51710  Biso   1.000  C
  H249     1.0000 0.86600  0.00660  0.53780  Biso   1.000  H
  C362     1.0000 0.81640  0.95540  0.51480  Biso   1.000  C
  H250     1.0000 0.79060  0.96660  0.53450  Biso   1.000  H
  C363     1.0000 0.84500  0.90200  0.45680  Biso   1.000  C
  H251     1.0000 0.83920  0.87590  0.43540  Biso   1.000  H
  C364     1.0000 0.89170  0.92370  0.45710  Biso   1.000  C
  H252     1.0000 0.91670  0.91180  0.43700  Biso   1.000  H
  N57      1.0000 0.26230  0.83150  0.93970  Biso   1.000  N
  N58      1.0000 0.33340  0.55810  0.73550  Biso   1.000  N
  C365     1.0000 0.28300  0.85430  0.90100  Biso   1.000  C
  H253     1.0000 0.30030  0.88370  0.90620  Biso   1.000  H
  C366     1.0000 0.27990  0.83610  0.85440  Biso   1.000  C
  H254     1.0000 0.29440  0.85310  0.82860  Biso   1.000  H
  C367     1.0000 0.25450  0.79150  0.84650  Biso   1.000  C
  C368     1.0000 0.23570  0.76680  0.88640  Biso   1.000  C
  H255     1.0000 0.22060  0.73600  0.88280  Biso   1.000  H
  C369     1.0000 0.23960  0.78850  0.93200  Biso   1.000  C
  H256     1.0000 0.22570  0.77210  0.95840  Biso   1.000  H
  C370     1.0000 0.25060  0.77030  0.79740  Biso   1.000  C
  C371     1.0000 0.26470  0.72140  0.78900  Biso   1.000  C
  H257     1.0000 0.27420  0.70200  0.81530  Biso   1.000  H
  C372     1.0000 0.26510  0.70060  0.74320  Biso   1.000  C
  C373     1.0000 0.28650  0.65040  0.73800  Biso   1.000  C
  C374     1.0000 0.27030  0.61170  0.76710  Biso   1.000  C
  H258     1.0000 0.24340  0.61600  0.78780  Biso   1.000  H
  C375     1.0000 0.29460  0.56640  0.76480  Biso   1.000  C
  H259     1.0000 0.28340  0.54060  0.78450  Biso   1.000  H
  C376     1.0000 0.34800  0.59500  0.70680  Biso   1.000  C
  H260     1.0000 0.37410  0.58920  0.68540  Biso   1.000  H
  C377     1.0000 0.32630  0.64170  0.70710  Biso   1.000  C
  H261     1.0000 0.33820  0.66670  0.68700  Biso   1.000  H
  N59      1.0000 0.76230  0.33150  0.43970  Biso   1.000  N
  N60      1.0000 0.83340  0.05810  0.23550  Biso   1.000  N
  C378     1.0000 0.78300  0.35430  0.40100  Biso   1.000  C
  H262     1.0000 0.80030  0.38370  0.40620  Biso   1.000  H
  C379     1.0000 0.77990  0.33610  0.35440  Biso   1.000  C
  H263     1.0000 0.79440  0.35310  0.32860  Biso   1.000  H
  C380     1.0000 0.75450  0.29150  0.34650  Biso   1.000  C
  C381     1.0000 0.73570  0.26680  0.38640  Biso   1.000  C
  H264     1.0000 0.72060  0.23600  0.38280  Biso   1.000  H
  C382     1.0000 0.73960  0.28850  0.43200  Biso   1.000  C
  H265     1.0000 0.72570  0.27210  0.45840  Biso   1.000  H
  C383     1.0000 0.75060  0.27030  0.29740  Biso   1.000  C
  C384     1.0000 0.76470  0.22140  0.28900  Biso   1.000  C
  H266     1.0000 0.77420  0.20200  0.31530  Biso   1.000  H
  C385     1.0000 0.76510  0.20060  0.24320  Biso   1.000  C
  C386     1.0000 0.78650  0.15040  0.23800  Biso   1.000  C
  C387     1.0000 0.77030  0.11170  0.26710  Biso   1.000  C
  H267     1.0000 0.74340  0.11600  0.28780  Biso   1.000  H
  C388     1.0000 0.79460  0.06640  0.26480  Biso   1.000  C
  H268     1.0000 0.78340  0.04060  0.28450  Biso   1.000  H
  C389     1.0000 0.84800  0.09500  0.20680  Biso   1.000  C
  H269     1.0000 0.87410  0.08920  0.18540  Biso   1.000  H
  C390     1.0000 0.82630  0.14170  0.20710  Biso   1.000  C
  H270     1.0000 0.83820  0.16670  0.18700  Biso   1.000  H
  N61      1.0000 0.23770  0.16850  0.43970  Biso   1.000  N
  N62      1.0000 0.16660  0.44190  0.23550  Biso   1.000  N
  C391     1.0000 0.21700  0.14570  0.40100  Biso   1.000  C
  H271     1.0000 0.19970  0.11630  0.40620  Biso   1.000  H
  C392     1.0000 0.22010  0.16390  0.35440  Biso   1.000  C
  H272     1.0000 0.20560  0.14690  0.32860  Biso   1.000  H
  C393     1.0000 0.24550  0.20850  0.34650  Biso   1.000  C
  C394     1.0000 0.26430  0.23320  0.38640  Biso   1.000  C
  H273     1.0000 0.27940  0.26400  0.38280  Biso   1.000  H
  C395     1.0000 0.26040  0.21150  0.43200  Biso   1.000  C
  H274     1.0000 0.27430  0.22790  0.45840  Biso   1.000  H
  C396     1.0000 0.24940  0.22970  0.29740  Biso   1.000  C
  C397     1.0000 0.23530  0.27860  0.28900  Biso   1.000  C
  H275     1.0000 0.22580  0.29800  0.31530  Biso   1.000  H
  C398     1.0000 0.23490  0.29940  0.24320  Biso   1.000  C
  C399     1.0000 0.21350  0.34960  0.23800  Biso   1.000  C
  C400     1.0000 0.22970  0.38830  0.26710  Biso   1.000  C
  H276     1.0000 0.25660  0.38400  0.28780  Biso   1.000  H
  C401     1.0000 0.20540  0.43360  0.26480  Biso   1.000  C
  H277     1.0000 0.21660  0.45940  0.28450  Biso   1.000  H
  C402     1.0000 0.15200  0.40500  0.20680  Biso   1.000  C
  H278     1.0000 0.12590  0.41080  0.18540  Biso   1.000  H
  C403     1.0000 0.17370  0.35830  0.20710  Biso   1.000  C
  H279     1.0000 0.16180  0.33330  0.18700  Biso   1.000  H
  N63      1.0000 0.73770  0.66850  0.93970  Biso   1.000  N
  N64      1.0000 0.66660  0.94190  0.73550  Biso   1.000  N
  C404     1.0000 0.71700  0.64570  0.90100  Biso   1.000  C
  H280     1.0000 0.69970  0.61630  0.90620  Biso   1.000  H
  C405     1.0000 0.72010  0.66390  0.85440  Biso   1.000  C
  H281     1.0000 0.70560  0.64690  0.82860  Biso   1.000  H
  C406     1.0000 0.74550  0.70850  0.84650  Biso   1.000  C
  C407     1.0000 0.76430  0.73320  0.88640  Biso   1.000  C
  H282     1.0000 0.77940  0.76400  0.88280  Biso   1.000  H
  C408     1.0000 0.76040  0.71150  0.93200  Biso   1.000  C
  H283     1.0000 0.77430  0.72790  0.95840  Biso   1.000  H
  C409     1.0000 0.74940  0.72970  0.79740  Biso   1.000  C
  C410     1.0000 0.73530  0.77860  0.78900  Biso   1.000  C
  H284     1.0000 0.72580  0.79800  0.81530  Biso   1.000  H
  C411     1.0000 0.73490  0.79940  0.74320  Biso   1.000  C
  C412     1.0000 0.71350  0.84960  0.73800  Biso   1.000  C
  C413     1.0000 0.72970  0.88830  0.76710  Biso   1.000  C
  H285     1.0000 0.75660  0.88400  0.78780  Biso   1.000  H
  C414     1.0000 0.70540  0.93360  0.76480  Biso   1.000  C
  H286     1.0000 0.71660  0.95940  0.78450  Biso   1.000  H
  C415     1.0000 0.65200  0.90500  0.70680  Biso   1.000  C
  H287     1.0000 0.62590  0.91080  0.68540  Biso   1.000  H
  C416     1.0000 0.67370  0.85830  0.70710  Biso   1.000  C
  H288     1.0000 0.66180  0.83330  0.68700  Biso   1.000  H
  Cu1      1.0000 0.75000  0.37085  0.50000  Biso   1.000  Cu
  Cu2      1.0000 0.25000  0.87085  0.00000  Biso   1.000  Cu
  Cu3      1.0000 0.75000  0.62915  0.00000  Biso   1.000  Cu
  Cu4      1.0000 0.25000  0.12915  0.50000  Biso   1.000  Cu
  Cu5      1.0000 0.87915  0.50000  0.75000  Biso   1.000  Cu
  Cu6      1.0000 0.37915  0.00000  0.25000  Biso   1.000  Cu
  Cu7      1.0000 0.62085  0.50000  0.25000  Biso   1.000  Cu
  Cu8      1.0000 0.12085  0.00000  0.75000  Biso   1.000  Cu
  Cu9      1.0000 0.25000  0.62915  0.50000  Biso   1.000  Cu
  Cu10     1.0000 0.75000  0.12915  0.00000  Biso   1.000  Cu
  Cu11     1.0000 0.25000  0.37085  0.00000  Biso   1.000  Cu
  Cu12     1.0000 0.75000  0.87085  0.50000  Biso   1.000  Cu
  Cu13     1.0000 0.12085  0.50000  0.25000  Biso   1.000  Cu
  Cu14     1.0000 0.62085  0.00000  0.75000  Biso   1.000  Cu
  Cu15     1.0000 0.37915  0.50000  0.75000  Biso   1.000  Cu
  Cu16     1.0000 0.87915  0.00000  0.25000  Biso   1.000  Cu
