data_image0
_cell_length_a       21.8815
_cell_length_b       21.8815
_cell_length_c       75.31
_cell_angle_alpha    90
_cell_angle_beta     90
_cell_angle_gamma    120

_symmetry_space_group_name_H-M    "P 1"
_symmetry_int_tables_number       1

loop_
  _symmetry_equiv_pos_as_xyz
  'x, y, z'

loop_
  _atom_site_label
  _atom_site_occupancy
  _atom_site_fract_x
  _atom_site_fract_y
  _atom_site_fract_z
  _atom_site_thermal_displace_type
  _atom_site_B_iso_or_equiv
  _atom_site_type_symbol
  Ag1      1.0000 0.43243  0.74044  0.00547  Biso   1.000  Ag
  Ag2      1.0000 0.43175  0.69276  0.85749  Biso   1.000  Ag
  Ca1      1.0000 0.63054  0.86750  0.90621  Biso   1.000  Ca
  S1       1.0000 0.45857  0.75814  0.96130  Biso   1.000  S
  S2       1.0000 0.36471  0.79051  0.01944  Biso   1.000  S
  N1       1.0000 0.53420  0.81550  0.99093  Biso   1.000  N
  N2       1.0000 0.53480  0.71930  0.84314  Biso   1.000  N
  O1       1.0000 0.58130  0.89160  0.93484  Biso   1.000  O
  O2       1.0000 0.62880  0.82600  0.93689  Biso   1.000  O
  O3       1.0000 0.67460  0.89380  0.87767  Biso   1.000  O
  O4       1.0000 0.77950  0.98600  0.87929  Biso   1.000  O
  C1       1.0000 0.53540  0.81530  0.97354  Biso   1.000  C
  C2       1.0000 0.59810  0.85940  0.96350  Biso   1.000  C
  C3       1.0000 0.65920  0.90510  0.97324  Biso   1.000  C
  H1       1.0000 0.70090  0.93590  0.96740  Biso   1.000  H
  C4       1.0000 0.65600  0.90330  0.99155  Biso   1.000  C
  H2       1.0000 0.69610  0.93190  0.99820  Biso   1.000  H
  C5       1.0000 0.59290  0.85880  0.99986  Biso   1.000  C
  H3       1.0000 0.59120  0.85890  0.01220  Biso   1.000  H
  C6       1.0000 0.60310  0.85940  0.94375  Biso   1.000  C
  C7       1.0000 0.72990  0.93450  0.87096  Biso   1.000  C
  C8       1.0000 0.73460  0.92930  0.85070  Biso   1.000  C
  C9       1.0000 0.79800  0.94760  0.84114  Biso   1.000  C
  C10      1.0000 0.59420  0.73700  0.85192  Biso   1.000  C
  H4       1.0000 0.59300  0.73810  0.86430  Biso   1.000  H
  C11      1.0000 0.65690  0.75370  0.84397  Biso   1.000  C
  H5       1.0000 0.69650  0.76350  0.85070  Biso   1.000  H
  C12      1.0000 0.65910  0.75520  0.82607  Biso   1.000  C
  H6       1.0000 0.70150  0.76850  0.82030  Biso   1.000  H
  Ag3      1.0000 0.09910  0.07377  0.33880  Biso   1.000  Ag
  Ag4      1.0000 0.09842  0.02609  0.19083  Biso   1.000  Ag
  Ca2      1.0000 0.29721  0.20083  0.23954  Biso   1.000  Ca
  S3       1.0000 0.12524  0.09147  0.29463  Biso   1.000  S
  S4       1.0000 0.03138  0.12384  0.35277  Biso   1.000  S
  N3       1.0000 0.20087  0.14883  0.32426  Biso   1.000  N
  N4       1.0000 0.20147  0.05263  0.17647  Biso   1.000  N
  O5       1.0000 0.24797  0.22493  0.26817  Biso   1.000  O
  O6       1.0000 0.29547  0.15933  0.27022  Biso   1.000  O
  O7       1.0000 0.34127  0.22713  0.21100  Biso   1.000  O
  O8       1.0000 0.44617  0.31933  0.21262  Biso   1.000  O
  C13      1.0000 0.20207  0.14863  0.30687  Biso   1.000  C
  C14      1.0000 0.26477  0.19273  0.29683  Biso   1.000  C
  C15      1.0000 0.32587  0.23843  0.30657  Biso   1.000  C
  H7       1.0000 0.36757  0.26923  0.30073  Biso   1.000  H
  C16      1.0000 0.32267  0.23663  0.32488  Biso   1.000  C
  H8       1.0000 0.36277  0.26523  0.33153  Biso   1.000  H
  C17      1.0000 0.25957  0.19213  0.33319  Biso   1.000  C
  H9       1.0000 0.25787  0.19223  0.34553  Biso   1.000  H
  C18      1.0000 0.26977  0.19273  0.27708  Biso   1.000  C
  C19      1.0000 0.39657  0.26783  0.20429  Biso   1.000  C
  C20      1.0000 0.40127  0.26263  0.18403  Biso   1.000  C
  C21      1.0000 0.46467  0.28093  0.17447  Biso   1.000  C
  C22      1.0000 0.26087  0.07033  0.18525  Biso   1.000  C
  H10      1.0000 0.25967  0.07143  0.19763  Biso   1.000  H
  C23      1.0000 0.32357  0.08703  0.17730  Biso   1.000  C
  H11      1.0000 0.36317  0.09683  0.18403  Biso   1.000  H
  C24      1.0000 0.32577  0.08853  0.15940  Biso   1.000  C
  H12      1.0000 0.36817  0.10183  0.15363  Biso   1.000  H
  Ag5      1.0000 0.76576  0.40711  0.67213  Biso   1.000  Ag
  Ag6      1.0000 0.76508  0.35943  0.52416  Biso   1.000  Ag
  Ca3      1.0000 0.96387  0.53417  0.57288  Biso   1.000  Ca
  S5       1.0000 0.79190  0.42481  0.62797  Biso   1.000  S
  S6       1.0000 0.69804  0.45718  0.68611  Biso   1.000  S
  N5       1.0000 0.86753  0.48217  0.65760  Biso   1.000  N
  N6       1.0000 0.86813  0.38597  0.50981  Biso   1.000  N
  O9       1.0000 0.91463  0.55827  0.60151  Biso   1.000  O
  O10      1.0000 0.96213  0.49267  0.60356  Biso   1.000  O
  O11      1.0000 0.00793  0.56047  0.54434  Biso   1.000  O
  O12      1.0000 0.11283  0.65267  0.54596  Biso   1.000  O
  C25      1.0000 0.86873  0.48197  0.64021  Biso   1.000  C
  C26      1.0000 0.93143  0.52607  0.63017  Biso   1.000  C
  C27      1.0000 0.99253  0.57177  0.63991  Biso   1.000  C
  H13      1.0000 0.03423  0.60257  0.63407  Biso   1.000  H
  C28      1.0000 0.98933  0.56997  0.65822  Biso   1.000  C
  H14      1.0000 0.02943  0.59857  0.66487  Biso   1.000  H
  C29      1.0000 0.92623  0.52547  0.66653  Biso   1.000  C
  H15      1.0000 0.92453  0.52557  0.67887  Biso   1.000  H
  C30      1.0000 0.93643  0.52607  0.61042  Biso   1.000  C
  C31      1.0000 0.06323  0.60117  0.53763  Biso   1.000  C
  C32      1.0000 0.06793  0.59597  0.51737  Biso   1.000  C
  C33      1.0000 0.13133  0.61427  0.50781  Biso   1.000  C
  C34      1.0000 0.92753  0.40367  0.51859  Biso   1.000  C
  H16      1.0000 0.92633  0.40477  0.53097  Biso   1.000  H
  C35      1.0000 0.99023  0.42037  0.51064  Biso   1.000  C
  H17      1.0000 0.02983  0.43017  0.51737  Biso   1.000  H
  C36      1.0000 0.99243  0.42187  0.49274  Biso   1.000  C
  H18      1.0000 0.03483  0.43517  0.48697  Biso   1.000  H
  Ag7      1.0000 0.25956  0.69199  0.00547  Biso   1.000  Ag
  Ag8      1.0000 0.30724  0.73899  0.85749  Biso   1.000  Ag
  Ca4      1.0000 0.13250  0.76304  0.90621  Biso   1.000  Ca
  S7       1.0000 0.24186  0.70043  0.96130  Biso   1.000  S
  S8       1.0000 0.20949  0.57420  0.01944  Biso   1.000  S
  N7       1.0000 0.18450  0.71870  0.99093  Biso   1.000  N
  N8       1.0000 0.28070  0.81550  0.84314  Biso   1.000  N
  O13      1.0000 0.10840  0.68970  0.93484  Biso   1.000  O
  O14      1.0000 0.17400  0.80280  0.93689  Biso   1.000  O
  O15      1.0000 0.10620  0.78080  0.87767  Biso   1.000  O
  O16      1.0000 0.01400  0.79350  0.87929  Biso   1.000  O
  C37      1.0000 0.18470  0.72010  0.97354  Biso   1.000  C
  C38      1.0000 0.14060  0.73870  0.96350  Biso   1.000  C
  C39      1.0000 0.09490  0.75410  0.97324  Biso   1.000  C
  H19      1.0000 0.06410  0.76500  0.96740  Biso   1.000  H
  C40      1.0000 0.09670  0.75270  0.99155  Biso   1.000  C
  H20      1.0000 0.06810  0.76420  0.99820  Biso   1.000  H
  C41      1.0000 0.14120  0.73410  0.99986  Biso   1.000  C
  H21      1.0000 0.14110  0.73230  0.01220  Biso   1.000  H
  C42      1.0000 0.14060  0.74370  0.94375  Biso   1.000  C
  C43      1.0000 0.06550  0.79540  0.87096  Biso   1.000  C
  C44      1.0000 0.07070  0.80530  0.85070  Biso   1.000  C
  C45      1.0000 0.05240  0.85040  0.84114  Biso   1.000  C
  C46      1.0000 0.26300  0.85720  0.85192  Biso   1.000  C
  H22      1.0000 0.26190  0.85490  0.86430  Biso   1.000  H
  C47      1.0000 0.24630  0.90320  0.84397  Biso   1.000  C
  H23      1.0000 0.23650  0.93300  0.85070  Biso   1.000  H
  C48      1.0000 0.24480  0.90390  0.82607  Biso   1.000  C
  H24      1.0000 0.23150  0.93300  0.82030  Biso   1.000  H
  Ag9      1.0000 0.92623  0.02532  0.33880  Biso   1.000  Ag
  Ag10     1.0000 0.97391  0.07232  0.19083  Biso   1.000  Ag
  Ca5      1.0000 0.79917  0.09637  0.23954  Biso   1.000  Ca
  S9       1.0000 0.90853  0.03376  0.29463  Biso   1.000  S
  S10      1.0000 0.87616  0.90753  0.35277  Biso   1.000  S
  N9       1.0000 0.85117  0.05203  0.32426  Biso   1.000  N
  N10      1.0000 0.94737  0.14883  0.17647  Biso   1.000  N
  O17      1.0000 0.77507  0.02303  0.26817  Biso   1.000  O
  O18      1.0000 0.84067  0.13613  0.27022  Biso   1.000  O
  O19      1.0000 0.77287  0.11413  0.21100  Biso   1.000  O
  O20      1.0000 0.68067  0.12683  0.21262  Biso   1.000  O
  C49      1.0000 0.85137  0.05343  0.30687  Biso   1.000  C
  C50      1.0000 0.80727  0.07203  0.29683  Biso   1.000  C
  C51      1.0000 0.76157  0.08743  0.30657  Biso   1.000  C
  H25      1.0000 0.73077  0.09833  0.30073  Biso   1.000  H
  C52      1.0000 0.76337  0.08603  0.32488  Biso   1.000  C
  H26      1.0000 0.73477  0.09753  0.33153  Biso   1.000  H
  C53      1.0000 0.80787  0.06743  0.33319  Biso   1.000  C
  H27      1.0000 0.80777  0.06563  0.34553  Biso   1.000  H
  C54      1.0000 0.80727  0.07703  0.27708  Biso   1.000  C
  C55      1.0000 0.73217  0.12873  0.20429  Biso   1.000  C
  C56      1.0000 0.73737  0.13863  0.18403  Biso   1.000  C
  C57      1.0000 0.71907  0.18373  0.17447  Biso   1.000  C
  C58      1.0000 0.92967  0.19053  0.18525  Biso   1.000  C
  H28      1.0000 0.92857  0.18823  0.19763  Biso   1.000  H
  C59      1.0000 0.91297  0.23653  0.17730  Biso   1.000  C
  H29      1.0000 0.90317  0.26633  0.18403  Biso   1.000  H
  C60      1.0000 0.91147  0.23723  0.15940  Biso   1.000  C
  H30      1.0000 0.89817  0.26633  0.15363  Biso   1.000  H
  Ag11     1.0000 0.59289  0.35866  0.67213  Biso   1.000  Ag
  Ag12     1.0000 0.64057  0.40566  0.52416  Biso   1.000  Ag
  Ca6      1.0000 0.46583  0.42971  0.57288  Biso   1.000  Ca
  S11      1.0000 0.57519  0.36710  0.62797  Biso   1.000  S
  S12      1.0000 0.54282  0.24087  0.68611  Biso   1.000  S
  N11      1.0000 0.51783  0.38537  0.65760  Biso   1.000  N
  N12      1.0000 0.61403  0.48217  0.50981  Biso   1.000  N
  O21      1.0000 0.44173  0.35637  0.60151  Biso   1.000  O
  O22      1.0000 0.50733  0.46947  0.60356  Biso   1.000  O
  O23      1.0000 0.43953  0.44747  0.54434  Biso   1.000  O
  O24      1.0000 0.34733  0.46017  0.54596  Biso   1.000  O
  C61      1.0000 0.51803  0.38677  0.64021  Biso   1.000  C
  C62      1.0000 0.47393  0.40537  0.63017  Biso   1.000  C
  C63      1.0000 0.42823  0.42077  0.63991  Biso   1.000  C
  H31      1.0000 0.39743  0.43167  0.63407  Biso   1.000  H
  C64      1.0000 0.43003  0.41937  0.65822  Biso   1.000  C
  H32      1.0000 0.40143  0.43087  0.66487  Biso   1.000  H
  C65      1.0000 0.47453  0.40077  0.66653  Biso   1.000  C
  H33      1.0000 0.47443  0.39897  0.67887  Biso   1.000  H
  C66      1.0000 0.47393  0.41037  0.61042  Biso   1.000  C
  C67      1.0000 0.39883  0.46207  0.53763  Biso   1.000  C
  C68      1.0000 0.40403  0.47197  0.51737  Biso   1.000  C
  C69      1.0000 0.38573  0.51707  0.50781  Biso   1.000  C
  C70      1.0000 0.59633  0.52387  0.51859  Biso   1.000  C
  H34      1.0000 0.59523  0.52157  0.53097  Biso   1.000  H
  C71      1.0000 0.57963  0.56987  0.51064  Biso   1.000  C
  H35      1.0000 0.56983  0.59967  0.51737  Biso   1.000  H
  C72      1.0000 0.57813  0.57057  0.49274  Biso   1.000  C
  H36      1.0000 0.56483  0.59967  0.48697  Biso   1.000  H
  Ag13     1.0000 0.30801  0.56757  0.00547  Biso   1.000  Ag
  Ag14     1.0000 0.26101  0.56825  0.85749  Biso   1.000  Ag
  Ca7      1.0000 0.23696  0.36946  0.90621  Biso   1.000  Ca
  S13      1.0000 0.29957  0.54143  0.96130  Biso   1.000  S
  S14      1.0000 0.42580  0.63529  0.01944  Biso   1.000  S
  N13      1.0000 0.28130  0.46580  0.99093  Biso   1.000  N
  N14      1.0000 0.18450  0.46520  0.84314  Biso   1.000  N
  O25      1.0000 0.31030  0.41870  0.93484  Biso   1.000  O
  O26      1.0000 0.19720  0.37120  0.93689  Biso   1.000  O
  O27      1.0000 0.21920  0.32540  0.87767  Biso   1.000  O
  O28      1.0000 0.20650  0.22050  0.87929  Biso   1.000  O
  C73      1.0000 0.27990  0.46460  0.97354  Biso   1.000  C
  C74      1.0000 0.26130  0.40190  0.96350  Biso   1.000  C
  C75      1.0000 0.24590  0.34080  0.97324  Biso   1.000  C
  H37      1.0000 0.23500  0.29910  0.96740  Biso   1.000  H
  C76      1.0000 0.24730  0.34400  0.99155  Biso   1.000  C
  H38      1.0000 0.23580  0.30390  0.99820  Biso   1.000  H
  C77      1.0000 0.26590  0.40710  0.99986  Biso   1.000  C
  H39      1.0000 0.26770  0.40880  0.01220  Biso   1.000  H
  C78      1.0000 0.25630  0.39690  0.94375  Biso   1.000  C
  C79      1.0000 0.20460  0.27010  0.87096  Biso   1.000  C
  C80      1.0000 0.19470  0.26540  0.85070  Biso   1.000  C
  C81      1.0000 0.14960  0.20200  0.84114  Biso   1.000  C
  C82      1.0000 0.14280  0.40580  0.85192  Biso   1.000  C
  H40      1.0000 0.14510  0.40700  0.86430  Biso   1.000  H
  C83      1.0000 0.09680  0.34310  0.84397  Biso   1.000  C
  H41      1.0000 0.06700  0.30350  0.85070  Biso   1.000  H
  C84      1.0000 0.09610  0.34090  0.82607  Biso   1.000  C
  H42      1.0000 0.06700  0.29850  0.82030  Biso   1.000  H
  Ag15     1.0000 0.97468  0.90090  0.33880  Biso   1.000  Ag
  Ag16     1.0000 0.92768  0.90158  0.19083  Biso   1.000  Ag
  Ca8      1.0000 0.90363  0.70279  0.23954  Biso   1.000  Ca
  S15      1.0000 0.96624  0.87476  0.29463  Biso   1.000  S
  S16      1.0000 0.09247  0.96862  0.35277  Biso   1.000  S
  N15      1.0000 0.94797  0.79913  0.32426  Biso   1.000  N
  N16      1.0000 0.85117  0.79853  0.17647  Biso   1.000  N
  O29      1.0000 0.97697  0.75203  0.26817  Biso   1.000  O
  O30      1.0000 0.86387  0.70453  0.27022  Biso   1.000  O
  O31      1.0000 0.88587  0.65873  0.21100  Biso   1.000  O
  O32      1.0000 0.87317  0.55383  0.21262  Biso   1.000  O
  C85      1.0000 0.94657  0.79793  0.30687  Biso   1.000  C
  C86      1.0000 0.92797  0.73523  0.29683  Biso   1.000  C
  C87      1.0000 0.91257  0.67413  0.30657  Biso   1.000  C
  H43      1.0000 0.90167  0.63243  0.30073  Biso   1.000  H
  C88      1.0000 0.91397  0.67733  0.32488  Biso   1.000  C
  H44      1.0000 0.90247  0.63723  0.33153  Biso   1.000  H
  C89      1.0000 0.93257  0.74043  0.33319  Biso   1.000  C
  H45      1.0000 0.93437  0.74213  0.34553  Biso   1.000  H
  C90      1.0000 0.92297  0.73023  0.27708  Biso   1.000  C
  C91      1.0000 0.87127  0.60343  0.20429  Biso   1.000  C
  C92      1.0000 0.86137  0.59873  0.18403  Biso   1.000  C
  C93      1.0000 0.81627  0.53533  0.17447  Biso   1.000  C
  C94      1.0000 0.80947  0.73913  0.18525  Biso   1.000  C
  H46      1.0000 0.81177  0.74033  0.19763  Biso   1.000  H
  C95      1.0000 0.76347  0.67643  0.17730  Biso   1.000  C
  H47      1.0000 0.73367  0.63683  0.18403  Biso   1.000  H
  C96      1.0000 0.76277  0.67423  0.15940  Biso   1.000  C
  H48      1.0000 0.73367  0.63183  0.15363  Biso   1.000  H
  Ag17     1.0000 0.64134  0.23424  0.67213  Biso   1.000  Ag
  Ag18     1.0000 0.59434  0.23492  0.52416  Biso   1.000  Ag
  Ca9      1.0000 0.57029  0.03613  0.57288  Biso   1.000  Ca
  S17      1.0000 0.63290  0.20810  0.62797  Biso   1.000  S
  S18      1.0000 0.75913  0.30196  0.68611  Biso   1.000  S
  N17      1.0000 0.61463  0.13247  0.65760  Biso   1.000  N
  N18      1.0000 0.51783  0.13187  0.50981  Biso   1.000  N
  O33      1.0000 0.64363  0.08537  0.60151  Biso   1.000  O
  O34      1.0000 0.53053  0.03787  0.60356  Biso   1.000  O
  O35      1.0000 0.55253  0.99207  0.54434  Biso   1.000  O
  O36      1.0000 0.53983  0.88717  0.54596  Biso   1.000  O
  C97      1.0000 0.61323  0.13127  0.64021  Biso   1.000  C
  C98      1.0000 0.59463  0.06857  0.63017  Biso   1.000  C
  C99      1.0000 0.57923  0.00747  0.63991  Biso   1.000  C
  H49      1.0000 0.56833  0.96577  0.63407  Biso   1.000  H
  C100     1.0000 0.58063  0.01067  0.65822  Biso   1.000  C
  H50      1.0000 0.56913  0.97057  0.66487  Biso   1.000  H
  C101     1.0000 0.59923  0.07377  0.66653  Biso   1.000  C
  H51      1.0000 0.60103  0.07547  0.67887  Biso   1.000  H
  C102     1.0000 0.58963  0.06357  0.61042  Biso   1.000  C
  C103     1.0000 0.53793  0.93677  0.53763  Biso   1.000  C
  C104     1.0000 0.52803  0.93207  0.51737  Biso   1.000  C
  C105     1.0000 0.48293  0.86867  0.50781  Biso   1.000  C
  C106     1.0000 0.47613  0.07247  0.51859  Biso   1.000  C
  H52      1.0000 0.47843  0.07367  0.53097  Biso   1.000  H
  C107     1.0000 0.43013  0.00977  0.51064  Biso   1.000  C
  H53      1.0000 0.40033  0.97017  0.51737  Biso   1.000  H
  C108     1.0000 0.42943  0.00757  0.49274  Biso   1.000  C
  H54      1.0000 0.40033  0.96517  0.48697  Biso   1.000  H
  Ag19     1.0000 0.74044  0.43243  0.49453  Biso   1.000  Ag
  Ag20     1.0000 0.69276  0.43175  0.64251  Biso   1.000  Ag
  Ca10     1.0000 0.86750  0.63054  0.59379  Biso   1.000  Ca
  S19      1.0000 0.75814  0.45857  0.53870  Biso   1.000  S
  S20      1.0000 0.79051  0.36471  0.48056  Biso   1.000  S
  N19      1.0000 0.81550  0.53420  0.50907  Biso   1.000  N
  N20      1.0000 0.71930  0.53480  0.65686  Biso   1.000  N
  O37      1.0000 0.89160  0.58130  0.56516  Biso   1.000  O
  O38      1.0000 0.82600  0.62880  0.56311  Biso   1.000  O
  O39      1.0000 0.89380  0.67460  0.62233  Biso   1.000  O
  O40      1.0000 0.98600  0.77950  0.62071  Biso   1.000  O
  C109     1.0000 0.81530  0.53540  0.52646  Biso   1.000  C
  C110     1.0000 0.85940  0.59810  0.53650  Biso   1.000  C
  C111     1.0000 0.90510  0.65920  0.52676  Biso   1.000  C
  H55      1.0000 0.93590  0.70090  0.53260  Biso   1.000  H
  C112     1.0000 0.90330  0.65600  0.50845  Biso   1.000  C
  H56      1.0000 0.93190  0.69610  0.50180  Biso   1.000  H
  C113     1.0000 0.85880  0.59290  0.50014  Biso   1.000  C
  H57      1.0000 0.85890  0.59120  0.48780  Biso   1.000  H
  C114     1.0000 0.85940  0.60310  0.55625  Biso   1.000  C
  C115     1.0000 0.93450  0.72990  0.62904  Biso   1.000  C
  C116     1.0000 0.92930  0.73460  0.64930  Biso   1.000  C
  C117     1.0000 0.94760  0.79800  0.65886  Biso   1.000  C
  C118     1.0000 0.73700  0.59420  0.64808  Biso   1.000  C
  H58      1.0000 0.73810  0.59300  0.63570  Biso   1.000  H
  C119     1.0000 0.75370  0.65690  0.65603  Biso   1.000  C
  H59      1.0000 0.76350  0.69650  0.64930  Biso   1.000  H
  C120     1.0000 0.75520  0.65910  0.67393  Biso   1.000  C
  H60      1.0000 0.76850  0.70150  0.67970  Biso   1.000  H
  Ag21     1.0000 0.40711  0.76576  0.82787  Biso   1.000  Ag
  Ag22     1.0000 0.35943  0.76508  0.97584  Biso   1.000  Ag
  Ca11     1.0000 0.53417  0.96387  0.92712  Biso   1.000  Ca
  S21      1.0000 0.42481  0.79190  0.87203  Biso   1.000  S
  S22      1.0000 0.45718  0.69804  0.81389  Biso   1.000  S
  N21      1.0000 0.48217  0.86753  0.84240  Biso   1.000  N
  N22      1.0000 0.38597  0.86813  0.99019  Biso   1.000  N
  O41      1.0000 0.55827  0.91463  0.89849  Biso   1.000  O
  O42      1.0000 0.49267  0.96213  0.89644  Biso   1.000  O
  O43      1.0000 0.56047  0.00793  0.95566  Biso   1.000  O
  O44      1.0000 0.65267  0.11283  0.95404  Biso   1.000  O
  C121     1.0000 0.48197  0.86873  0.85979  Biso   1.000  C
  C122     1.0000 0.52607  0.93143  0.86983  Biso   1.000  C
  C123     1.0000 0.57177  0.99253  0.86009  Biso   1.000  C
  H61      1.0000 0.60257  0.03423  0.86593  Biso   1.000  H
  C124     1.0000 0.56997  0.98933  0.84178  Biso   1.000  C
  H62      1.0000 0.59857  0.02943  0.83513  Biso   1.000  H
  C125     1.0000 0.52547  0.92623  0.83347  Biso   1.000  C
  H63      1.0000 0.52557  0.92453  0.82113  Biso   1.000  H
  C126     1.0000 0.52607  0.93643  0.88958  Biso   1.000  C
  C127     1.0000 0.60117  0.06323  0.96237  Biso   1.000  C
  C128     1.0000 0.59597  0.06793  0.98263  Biso   1.000  C
  C129     1.0000 0.61427  0.13133  0.99219  Biso   1.000  C
  C130     1.0000 0.40367  0.92753  0.98141  Biso   1.000  C
  H64      1.0000 0.40477  0.92633  0.96903  Biso   1.000  H
  C131     1.0000 0.42037  0.99023  0.98936  Biso   1.000  C
  H65      1.0000 0.43017  0.02983  0.98263  Biso   1.000  H
  C132     1.0000 0.42187  0.99243  0.00726  Biso   1.000  C
  H66      1.0000 0.43517  0.03483  0.01303  Biso   1.000  H
  Ag23     1.0000 0.07377  0.09910  0.16120  Biso   1.000  Ag
  Ag24     1.0000 0.02609  0.09842  0.30917  Biso   1.000  Ag
  Ca12     1.0000 0.20083  0.29721  0.26046  Biso   1.000  Ca
  S23      1.0000 0.09147  0.12524  0.20537  Biso   1.000  S
  S24      1.0000 0.12384  0.03138  0.14723  Biso   1.000  S
  N23      1.0000 0.14883  0.20087  0.17574  Biso   1.000  N
  N24      1.0000 0.05263  0.20147  0.32353  Biso   1.000  N
  O45      1.0000 0.22493  0.24797  0.23183  Biso   1.000  O
  O46      1.0000 0.15933  0.29547  0.22978  Biso   1.000  O
  O47      1.0000 0.22713  0.34127  0.28900  Biso   1.000  O
  O48      1.0000 0.31933  0.44617  0.28738  Biso   1.000  O
  C133     1.0000 0.14863  0.20207  0.19313  Biso   1.000  C
  C134     1.0000 0.19273  0.26477  0.20317  Biso   1.000  C
  C135     1.0000 0.23843  0.32587  0.19343  Biso   1.000  C
  H67      1.0000 0.26923  0.36757  0.19927  Biso   1.000  H
  C136     1.0000 0.23663  0.32267  0.17512  Biso   1.000  C
  H68      1.0000 0.26523  0.36277  0.16847  Biso   1.000  H
  C137     1.0000 0.19213  0.25957  0.16681  Biso   1.000  C
  H69      1.0000 0.19223  0.25787  0.15447  Biso   1.000  H
  C138     1.0000 0.19273  0.26977  0.22292  Biso   1.000  C
  C139     1.0000 0.26783  0.39657  0.29571  Biso   1.000  C
  C140     1.0000 0.26263  0.40127  0.31597  Biso   1.000  C
  C141     1.0000 0.28093  0.46467  0.32553  Biso   1.000  C
  C142     1.0000 0.07033  0.26087  0.31475  Biso   1.000  C
  H70      1.0000 0.07143  0.25967  0.30237  Biso   1.000  H
  C143     1.0000 0.08703  0.32357  0.32270  Biso   1.000  C
  H71      1.0000 0.09683  0.36317  0.31597  Biso   1.000  H
  C144     1.0000 0.08853  0.32577  0.34060  Biso   1.000  C
  H72      1.0000 0.10183  0.36817  0.34637  Biso   1.000  H
  Ag25     1.0000 0.69199  0.25956  0.49453  Biso   1.000  Ag
  Ag26     1.0000 0.73899  0.30724  0.64251  Biso   1.000  Ag
  Ca13     1.0000 0.76304  0.13250  0.59379  Biso   1.000  Ca
  S25      1.0000 0.70043  0.24186  0.53870  Biso   1.000  S
  S26      1.0000 0.57420  0.20949  0.48056  Biso   1.000  S
  N25      1.0000 0.71870  0.18450  0.50907  Biso   1.000  N
  N26      1.0000 0.81550  0.28070  0.65686  Biso   1.000  N
  O49      1.0000 0.68970  0.10840  0.56516  Biso   1.000  O
  O50      1.0000 0.80280  0.17400  0.56311  Biso   1.000  O
  O51      1.0000 0.78080  0.10620  0.62233  Biso   1.000  O
  O52      1.0000 0.79350  0.01400  0.62071  Biso   1.000  O
  C145     1.0000 0.72010  0.18470  0.52646  Biso   1.000  C
  C146     1.0000 0.73870  0.14060  0.53650  Biso   1.000  C
  C147     1.0000 0.75410  0.09490  0.52676  Biso   1.000  C
  H73      1.0000 0.76500  0.06410  0.53260  Biso   1.000  H
  C148     1.0000 0.75270  0.09670  0.50845  Biso   1.000  C
  H74      1.0000 0.76420  0.06810  0.50180  Biso   1.000  H
  C149     1.0000 0.73410  0.14120  0.50014  Biso   1.000  C
  H75      1.0000 0.73230  0.14110  0.48780  Biso   1.000  H
  C150     1.0000 0.74370  0.14060  0.55625  Biso   1.000  C
  C151     1.0000 0.79540  0.06550  0.62904  Biso   1.000  C
  C152     1.0000 0.80530  0.07070  0.64930  Biso   1.000  C
  C153     1.0000 0.85040  0.05240  0.65886  Biso   1.000  C
  C154     1.0000 0.85720  0.26300  0.64808  Biso   1.000  C
  H76      1.0000 0.85490  0.26190  0.63570  Biso   1.000  H
  C155     1.0000 0.90320  0.24630  0.65603  Biso   1.000  C
  H77      1.0000 0.93300  0.23650  0.64930  Biso   1.000  H
  C156     1.0000 0.90390  0.24480  0.67393  Biso   1.000  C
  H78      1.0000 0.93300  0.23150  0.67970  Biso   1.000  H
  Ag27     1.0000 0.35866  0.59289  0.82787  Biso   1.000  Ag
  Ag28     1.0000 0.40566  0.64057  0.97584  Biso   1.000  Ag
  Ca14     1.0000 0.42971  0.46583  0.92712  Biso   1.000  Ca
  S27      1.0000 0.36710  0.57519  0.87203  Biso   1.000  S
  S28      1.0000 0.24087  0.54282  0.81389  Biso   1.000  S
  N27      1.0000 0.38537  0.51783  0.84240  Biso   1.000  N
  N28      1.0000 0.48217  0.61403  0.99019  Biso   1.000  N
  O53      1.0000 0.35637  0.44173  0.89849  Biso   1.000  O
  O54      1.0000 0.46947  0.50733  0.89644  Biso   1.000  O
  O55      1.0000 0.44747  0.43953  0.95566  Biso   1.000  O
  O56      1.0000 0.46017  0.34733  0.95404  Biso   1.000  O
  C157     1.0000 0.38677  0.51803  0.85979  Biso   1.000  C
  C158     1.0000 0.40537  0.47393  0.86983  Biso   1.000  C
  C159     1.0000 0.42077  0.42823  0.86009  Biso   1.000  C
  H79      1.0000 0.43167  0.39743  0.86593  Biso   1.000  H
  C160     1.0000 0.41937  0.43003  0.84178  Biso   1.000  C
  H80      1.0000 0.43087  0.40143  0.83513  Biso   1.000  H
  C161     1.0000 0.40077  0.47453  0.83347  Biso   1.000  C
  H81      1.0000 0.39897  0.47443  0.82113  Biso   1.000  H
  C162     1.0000 0.41037  0.47393  0.88958  Biso   1.000  C
  C163     1.0000 0.46207  0.39883  0.96237  Biso   1.000  C
  C164     1.0000 0.47197  0.40403  0.98263  Biso   1.000  C
  C165     1.0000 0.51707  0.38573  0.99219  Biso   1.000  C
  C166     1.0000 0.52387  0.59633  0.98141  Biso   1.000  C
  H82      1.0000 0.52157  0.59523  0.96903  Biso   1.000  H
  C167     1.0000 0.56987  0.57963  0.98936  Biso   1.000  C
  H83      1.0000 0.59967  0.56983  0.98263  Biso   1.000  H
  C168     1.0000 0.57057  0.57813  0.00726  Biso   1.000  C
  H84      1.0000 0.59967  0.56483  0.01303  Biso   1.000  H
  Ag29     1.0000 0.02532  0.92623  0.16120  Biso   1.000  Ag
  Ag30     1.0000 0.07232  0.97391  0.30917  Biso   1.000  Ag
  Ca15     1.0000 0.09637  0.79917  0.26046  Biso   1.000  Ca
  S29      1.0000 0.03376  0.90853  0.20537  Biso   1.000  S
  S30      1.0000 0.90753  0.87616  0.14723  Biso   1.000  S
  N29      1.0000 0.05203  0.85117  0.17574  Biso   1.000  N
  N30      1.0000 0.14883  0.94737  0.32353  Biso   1.000  N
  O57      1.0000 0.02303  0.77507  0.23183  Biso   1.000  O
  O58      1.0000 0.13613  0.84067  0.22978  Biso   1.000  O
  O59      1.0000 0.11413  0.77287  0.28900  Biso   1.000  O
  O60      1.0000 0.12683  0.68067  0.28738  Biso   1.000  O
  C169     1.0000 0.05343  0.85137  0.19313  Biso   1.000  C
  C170     1.0000 0.07203  0.80727  0.20317  Biso   1.000  C
  C171     1.0000 0.08743  0.76157  0.19343  Biso   1.000  C
  H85      1.0000 0.09833  0.73077  0.19927  Biso   1.000  H
  C172     1.0000 0.08603  0.76337  0.17512  Biso   1.000  C
  H86      1.0000 0.09753  0.73477  0.16847  Biso   1.000  H
  C173     1.0000 0.06743  0.80787  0.16681  Biso   1.000  C
  H87      1.0000 0.06563  0.80777  0.15447  Biso   1.000  H
  C174     1.0000 0.07703  0.80727  0.22292  Biso   1.000  C
  C175     1.0000 0.12873  0.73217  0.29571  Biso   1.000  C
  C176     1.0000 0.13863  0.73737  0.31597  Biso   1.000  C
  C177     1.0000 0.18373  0.71907  0.32553  Biso   1.000  C
  C178     1.0000 0.19053  0.92967  0.31475  Biso   1.000  C
  H88      1.0000 0.18823  0.92857  0.30237  Biso   1.000  H
  C179     1.0000 0.23653  0.91297  0.32270  Biso   1.000  C
  H89      1.0000 0.26633  0.90317  0.31597  Biso   1.000  H
  C180     1.0000 0.23723  0.91147  0.34060  Biso   1.000  C
  H90      1.0000 0.26633  0.89817  0.34637  Biso   1.000  H
  Ag31     1.0000 0.56757  0.30801  0.49453  Biso   1.000  Ag
  Ag32     1.0000 0.56825  0.26101  0.64251  Biso   1.000  Ag
  Ca16     1.0000 0.36946  0.23696  0.59379  Biso   1.000  Ca
  S31      1.0000 0.54143  0.29957  0.53870  Biso   1.000  S
  S32      1.0000 0.63529  0.42580  0.48056  Biso   1.000  S
  N31      1.0000 0.46580  0.28130  0.50907  Biso   1.000  N
  N32      1.0000 0.46520  0.18450  0.65686  Biso   1.000  N
  O61      1.0000 0.41870  0.31030  0.56516  Biso   1.000  O
  O62      1.0000 0.37120  0.19720  0.56311  Biso   1.000  O
  O63      1.0000 0.32540  0.21920  0.62233  Biso   1.000  O
  O64      1.0000 0.22050  0.20650  0.62071  Biso   1.000  O
  C181     1.0000 0.46460  0.27990  0.52646  Biso   1.000  C
  C182     1.0000 0.40190  0.26130  0.53650  Biso   1.000  C
  C183     1.0000 0.34080  0.24590  0.52676  Biso   1.000  C
  H91      1.0000 0.29910  0.23500  0.53260  Biso   1.000  H
  C184     1.0000 0.34400  0.24730  0.50845  Biso   1.000  C
  H92      1.0000 0.30390  0.23580  0.50180  Biso   1.000  H
  C185     1.0000 0.40710  0.26590  0.50014  Biso   1.000  C
  H93      1.0000 0.40880  0.26770  0.48780  Biso   1.000  H
  C186     1.0000 0.39690  0.25630  0.55625  Biso   1.000  C
  C187     1.0000 0.27010  0.20460  0.62904  Biso   1.000  C
  C188     1.0000 0.26540  0.19470  0.64930  Biso   1.000  C
  C189     1.0000 0.20200  0.14960  0.65886  Biso   1.000  C
  C190     1.0000 0.40580  0.14280  0.64808  Biso   1.000  C
  H94      1.0000 0.40700  0.14510  0.63570  Biso   1.000  H
  C191     1.0000 0.34310  0.09680  0.65603  Biso   1.000  C
  H95      1.0000 0.30350  0.06700  0.64930  Biso   1.000  H
  C192     1.0000 0.34090  0.09610  0.67393  Biso   1.000  C
  H96      1.0000 0.29850  0.06700  0.67970  Biso   1.000  H
  Ag33     1.0000 0.23424  0.64134  0.82787  Biso   1.000  Ag
  Ag34     1.0000 0.23492  0.59434  0.97584  Biso   1.000  Ag
  Ca17     1.0000 0.03613  0.57029  0.92712  Biso   1.000  Ca
  S33      1.0000 0.20810  0.63290  0.87203  Biso   1.000  S
  S34      1.0000 0.30196  0.75913  0.81389  Biso   1.000  S
  N33      1.0000 0.13247  0.61463  0.84240  Biso   1.000  N
  N34      1.0000 0.13187  0.51783  0.99019  Biso   1.000  N
  O65      1.0000 0.08537  0.64363  0.89849  Biso   1.000  O
  O66      1.0000 0.03787  0.53053  0.89644  Biso   1.000  O
  O67      1.0000 0.99207  0.55253  0.95566  Biso   1.000  O
  O68      1.0000 0.88717  0.53983  0.95404  Biso   1.000  O
  C193     1.0000 0.13127  0.61323  0.85979  Biso   1.000  C
  C194     1.0000 0.06857  0.59463  0.86983  Biso   1.000  C
  C195     1.0000 0.00747  0.57923  0.86009  Biso   1.000  C
  H97      1.0000 0.96577  0.56833  0.86593  Biso   1.000  H
  C196     1.0000 0.01067  0.58063  0.84178  Biso   1.000  C
  H98      1.0000 0.97057  0.56913  0.83513  Biso   1.000  H
  C197     1.0000 0.07377  0.59923  0.83347  Biso   1.000  C
  H99      1.0000 0.07547  0.60103  0.82113  Biso   1.000  H
  C198     1.0000 0.06357  0.58963  0.88958  Biso   1.000  C
  C199     1.0000 0.93677  0.53793  0.96237  Biso   1.000  C
  C200     1.0000 0.93207  0.52803  0.98263  Biso   1.000  C
  C201     1.0000 0.86867  0.48293  0.99219  Biso   1.000  C
  C202     1.0000 0.07247  0.47613  0.98141  Biso   1.000  C
  H100     1.0000 0.07367  0.47843  0.96903  Biso   1.000  H
  C203     1.0000 0.00977  0.43013  0.98936  Biso   1.000  C
  H101     1.0000 0.97017  0.40033  0.98263  Biso   1.000  H
  C204     1.0000 0.00757  0.42943  0.00726  Biso   1.000  C
  H102     1.0000 0.96517  0.40033  0.01303  Biso   1.000  H
  Ag35     1.0000 0.90090  0.97468  0.16120  Biso   1.000  Ag
  Ag36     1.0000 0.90158  0.92768  0.30917  Biso   1.000  Ag
  Ca18     1.0000 0.70279  0.90363  0.26046  Biso   1.000  Ca
  S35      1.0000 0.87476  0.96624  0.20537  Biso   1.000  S
  S36      1.0000 0.96862  0.09247  0.14723  Biso   1.000  S
  N35      1.0000 0.79913  0.94797  0.17574  Biso   1.000  N
  N36      1.0000 0.79853  0.85117  0.32353  Biso   1.000  N
  O69      1.0000 0.75203  0.97697  0.23183  Biso   1.000  O
  O70      1.0000 0.70453  0.86387  0.22978  Biso   1.000  O
  O71      1.0000 0.65873  0.88587  0.28900  Biso   1.000  O
  O72      1.0000 0.55383  0.87317  0.28738  Biso   1.000  O
  C205     1.0000 0.79793  0.94657  0.19313  Biso   1.000  C
  C206     1.0000 0.73523  0.92797  0.20317  Biso   1.000  C
  C207     1.0000 0.67413  0.91257  0.19343  Biso   1.000  C
  H103     1.0000 0.63243  0.90167  0.19927  Biso   1.000  H
  C208     1.0000 0.67733  0.91397  0.17512  Biso   1.000  C
  H104     1.0000 0.63723  0.90247  0.16847  Biso   1.000  H
  C209     1.0000 0.74043  0.93257  0.16681  Biso   1.000  C
  H105     1.0000 0.74213  0.93437  0.15447  Biso   1.000  H
  C210     1.0000 0.73023  0.92297  0.22292  Biso   1.000  C
  C211     1.0000 0.60343  0.87127  0.29571  Biso   1.000  C
  C212     1.0000 0.59873  0.86137  0.31597  Biso   1.000  C
  C213     1.0000 0.53533  0.81627  0.32553  Biso   1.000  C
  C214     1.0000 0.73913  0.80947  0.31475  Biso   1.000  C
  H106     1.0000 0.74033  0.81177  0.30237  Biso   1.000  H
  C215     1.0000 0.67643  0.76347  0.32270  Biso   1.000  C
  H107     1.0000 0.63683  0.73367  0.31597  Biso   1.000  H
  C216     1.0000 0.67423  0.76277  0.34060  Biso   1.000  C
  H108     1.0000 0.63183  0.73367  0.34637  Biso   1.000  H
  Ag37     1.0000 0.56757  0.25956  0.99453  Biso   1.000  Ag
  Ag38     1.0000 0.56825  0.30724  0.14251  Biso   1.000  Ag
  Ca19     1.0000 0.36946  0.13250  0.09379  Biso   1.000  Ca
  S37      1.0000 0.54143  0.24186  0.03870  Biso   1.000  S
  S38      1.0000 0.63529  0.20949  0.98056  Biso   1.000  S
  N37      1.0000 0.46580  0.18450  0.00907  Biso   1.000  N
  N38      1.0000 0.46520  0.28070  0.15686  Biso   1.000  N
  O73      1.0000 0.41870  0.10840  0.06516  Biso   1.000  O
  O74      1.0000 0.37120  0.17400  0.06311  Biso   1.000  O
  O75      1.0000 0.32540  0.10620  0.12233  Biso   1.000  O
  O76      1.0000 0.22050  0.01400  0.12071  Biso   1.000  O
  C217     1.0000 0.46460  0.18470  0.02646  Biso   1.000  C
  C218     1.0000 0.40190  0.14060  0.03650  Biso   1.000  C
  C219     1.0000 0.34080  0.09490  0.02676  Biso   1.000  C
  H109     1.0000 0.29910  0.06410  0.03260  Biso   1.000  H
  C220     1.0000 0.34400  0.09670  0.00845  Biso   1.000  C
  H110     1.0000 0.30390  0.06810  0.00180  Biso   1.000  H
  C221     1.0000 0.40710  0.14120  0.00014  Biso   1.000  C
  H111     1.0000 0.40880  0.14110  0.98780  Biso   1.000  H
  C222     1.0000 0.39690  0.14060  0.05625  Biso   1.000  C
  C223     1.0000 0.27010  0.06550  0.12904  Biso   1.000  C
  C224     1.0000 0.26540  0.07070  0.14930  Biso   1.000  C
  C225     1.0000 0.20200  0.05240  0.15886  Biso   1.000  C
  C226     1.0000 0.40580  0.26300  0.14808  Biso   1.000  C
  H112     1.0000 0.40700  0.26190  0.13570  Biso   1.000  H
  C227     1.0000 0.34310  0.24630  0.15603  Biso   1.000  C
  H113     1.0000 0.30350  0.23650  0.14930  Biso   1.000  H
  C228     1.0000 0.34090  0.24480  0.17393  Biso   1.000  C
  H114     1.0000 0.29850  0.23150  0.17970  Biso   1.000  H
  Ag39     1.0000 0.23424  0.59289  0.32787  Biso   1.000  Ag
  Ag40     1.0000 0.23492  0.64057  0.47584  Biso   1.000  Ag
  Ca20     1.0000 0.03613  0.46583  0.42712  Biso   1.000  Ca
  S39      1.0000 0.20810  0.57519  0.37203  Biso   1.000  S
  S40      1.0000 0.30196  0.54282  0.31389  Biso   1.000  S
  N39      1.0000 0.13247  0.51783  0.34240  Biso   1.000  N
  N40      1.0000 0.13187  0.61403  0.49019  Biso   1.000  N
  O77      1.0000 0.08537  0.44173  0.39849  Biso   1.000  O
  O78      1.0000 0.03787  0.50733  0.39644  Biso   1.000  O
  O79      1.0000 0.99207  0.43953  0.45566  Biso   1.000  O
  O80      1.0000 0.88717  0.34733  0.45404  Biso   1.000  O
  C229     1.0000 0.13127  0.51803  0.35979  Biso   1.000  C
  C230     1.0000 0.06857  0.47393  0.36983  Biso   1.000  C
  C231     1.0000 0.00747  0.42823  0.36009  Biso   1.000  C
  H115     1.0000 0.96577  0.39743  0.36593  Biso   1.000  H
  C232     1.0000 0.01067  0.43003  0.34178  Biso   1.000  C
  H116     1.0000 0.97057  0.40143  0.33513  Biso   1.000  H
  C233     1.0000 0.07377  0.47453  0.33347  Biso   1.000  C
  H117     1.0000 0.07547  0.47443  0.32113  Biso   1.000  H
  C234     1.0000 0.06357  0.47393  0.38958  Biso   1.000  C
  C235     1.0000 0.93677  0.39883  0.46237  Biso   1.000  C
  C236     1.0000 0.93207  0.40403  0.48263  Biso   1.000  C
  C237     1.0000 0.86867  0.38573  0.49219  Biso   1.000  C
  C238     1.0000 0.07247  0.59633  0.48141  Biso   1.000  C
  H118     1.0000 0.07367  0.59523  0.46903  Biso   1.000  H
  C239     1.0000 0.00977  0.57963  0.48936  Biso   1.000  C
  H119     1.0000 0.97017  0.56983  0.48263  Biso   1.000  H
  C240     1.0000 0.00757  0.57813  0.50726  Biso   1.000  C
  H120     1.0000 0.96517  0.56483  0.51303  Biso   1.000  H
  Ag41     1.0000 0.90090  0.92623  0.66120  Biso   1.000  Ag
  Ag42     1.0000 0.90158  0.97391  0.80917  Biso   1.000  Ag
  Ca21     1.0000 0.70279  0.79917  0.76046  Biso   1.000  Ca
  S41      1.0000 0.87476  0.90853  0.70537  Biso   1.000  S
  S42      1.0000 0.96862  0.87616  0.64723  Biso   1.000  S
  N41      1.0000 0.79913  0.85117  0.67574  Biso   1.000  N
  N42      1.0000 0.79853  0.94737  0.82353  Biso   1.000  N
  O81      1.0000 0.75203  0.77507  0.73183  Biso   1.000  O
  O82      1.0000 0.70453  0.84067  0.72978  Biso   1.000  O
  O83      1.0000 0.65873  0.77287  0.78900  Biso   1.000  O
  O84      1.0000 0.55383  0.68067  0.78738  Biso   1.000  O
  C241     1.0000 0.79793  0.85137  0.69313  Biso   1.000  C
  C242     1.0000 0.73523  0.80727  0.70317  Biso   1.000  C
  C243     1.0000 0.67413  0.76157  0.69343  Biso   1.000  C
  H121     1.0000 0.63243  0.73077  0.69927  Biso   1.000  H
  C244     1.0000 0.67733  0.76337  0.67512  Biso   1.000  C
  H122     1.0000 0.63723  0.73477  0.66847  Biso   1.000  H
  C245     1.0000 0.74043  0.80787  0.66681  Biso   1.000  C
  H123     1.0000 0.74213  0.80777  0.65447  Biso   1.000  H
  C246     1.0000 0.73023  0.80727  0.72292  Biso   1.000  C
  C247     1.0000 0.60343  0.73217  0.79571  Biso   1.000  C
  C248     1.0000 0.59873  0.73737  0.81597  Biso   1.000  C
  C249     1.0000 0.53533  0.71907  0.82553  Biso   1.000  C
  C250     1.0000 0.73913  0.92967  0.81475  Biso   1.000  C
  H124     1.0000 0.74033  0.92857  0.80237  Biso   1.000  H
  C251     1.0000 0.67643  0.91297  0.82270  Biso   1.000  C
  H125     1.0000 0.63683  0.90317  0.81597  Biso   1.000  H
  C252     1.0000 0.67423  0.91147  0.84060  Biso   1.000  C
  H126     1.0000 0.63183  0.89817  0.84637  Biso   1.000  H
  Ag43     1.0000 0.74044  0.30801  0.99453  Biso   1.000  Ag
  Ag44     1.0000 0.69276  0.26101  0.14251  Biso   1.000  Ag
  Ca22     1.0000 0.86750  0.23696  0.09379  Biso   1.000  Ca
  S43      1.0000 0.75814  0.29957  0.03870  Biso   1.000  S
  S44      1.0000 0.79051  0.42580  0.98056  Biso   1.000  S
  N43      1.0000 0.81550  0.28130  0.00907  Biso   1.000  N
  N44      1.0000 0.71930  0.18450  0.15686  Biso   1.000  N
  O85      1.0000 0.89160  0.31030  0.06516  Biso   1.000  O
  O86      1.0000 0.82600  0.19720  0.06311  Biso   1.000  O
  O87      1.0000 0.89380  0.21920  0.12233  Biso   1.000  O
  O88      1.0000 0.98600  0.20650  0.12071  Biso   1.000  O
  C253     1.0000 0.81530  0.27990  0.02646  Biso   1.000  C
  C254     1.0000 0.85940  0.26130  0.03650  Biso   1.000  C
  C255     1.0000 0.90510  0.24590  0.02676  Biso   1.000  C
  H127     1.0000 0.93590  0.23500  0.03260  Biso   1.000  H
  C256     1.0000 0.90330  0.24730  0.00845  Biso   1.000  C
  H128     1.0000 0.93190  0.23580  0.00180  Biso   1.000  H
  C257     1.0000 0.85880  0.26590  0.00014  Biso   1.000  C
  H129     1.0000 0.85890  0.26770  0.98780  Biso   1.000  H
  C258     1.0000 0.85940  0.25630  0.05625  Biso   1.000  C
  C259     1.0000 0.93450  0.20460  0.12904  Biso   1.000  C
  C260     1.0000 0.92930  0.19470  0.14930  Biso   1.000  C
  C261     1.0000 0.94760  0.14960  0.15886  Biso   1.000  C
  C262     1.0000 0.73700  0.14280  0.14808  Biso   1.000  C
  H130     1.0000 0.73810  0.14510  0.13570  Biso   1.000  H
  C263     1.0000 0.75370  0.09680  0.15603  Biso   1.000  C
  H131     1.0000 0.76350  0.06700  0.14930  Biso   1.000  H
  C264     1.0000 0.75520  0.09610  0.17393  Biso   1.000  C
  H132     1.0000 0.76850  0.06700  0.17970  Biso   1.000  H
  Ag45     1.0000 0.40711  0.64134  0.32787  Biso   1.000  Ag
  Ag46     1.0000 0.35943  0.59434  0.47584  Biso   1.000  Ag
  Ca23     1.0000 0.53417  0.57029  0.42712  Biso   1.000  Ca
  S45      1.0000 0.42481  0.63290  0.37203  Biso   1.000  S
  S46      1.0000 0.45718  0.75913  0.31389  Biso   1.000  S
  N45      1.0000 0.48217  0.61463  0.34240  Biso   1.000  N
  N46      1.0000 0.38597  0.51783  0.49019  Biso   1.000  N
  O89      1.0000 0.55827  0.64363  0.39849  Biso   1.000  O
  O90      1.0000 0.49267  0.53053  0.39644  Biso   1.000  O
  O91      1.0000 0.56047  0.55253  0.45566  Biso   1.000  O
  O92      1.0000 0.65267  0.53983  0.45404  Biso   1.000  O
  C265     1.0000 0.48197  0.61323  0.35979  Biso   1.000  C
  C266     1.0000 0.52607  0.59463  0.36983  Biso   1.000  C
  C267     1.0000 0.57177  0.57923  0.36009  Biso   1.000  C
  H133     1.0000 0.60257  0.56833  0.36593  Biso   1.000  H
  C268     1.0000 0.56997  0.58063  0.34178  Biso   1.000  C
  H134     1.0000 0.59857  0.56913  0.33513  Biso   1.000  H
  C269     1.0000 0.52547  0.59923  0.33347  Biso   1.000  C
  H135     1.0000 0.52557  0.60103  0.32113  Biso   1.000  H
  C270     1.0000 0.52607  0.58963  0.38958  Biso   1.000  C
  C271     1.0000 0.60117  0.53793  0.46237  Biso   1.000  C
  C272     1.0000 0.59597  0.52803  0.48263  Biso   1.000  C
  C273     1.0000 0.61427  0.48293  0.49219  Biso   1.000  C
  C274     1.0000 0.40367  0.47613  0.48141  Biso   1.000  C
  H136     1.0000 0.40477  0.47843  0.46903  Biso   1.000  H
  C275     1.0000 0.42037  0.43013  0.48936  Biso   1.000  C
  H137     1.0000 0.43017  0.40033  0.48263  Biso   1.000  H
  C276     1.0000 0.42187  0.42943  0.50726  Biso   1.000  C
  H138     1.0000 0.43517  0.40033  0.51303  Biso   1.000  H
  Ag47     1.0000 0.07377  0.97468  0.66120  Biso   1.000  Ag
  Ag48     1.0000 0.02609  0.92768  0.80917  Biso   1.000  Ag
  Ca24     1.0000 0.20083  0.90363  0.76046  Biso   1.000  Ca
  S47      1.0000 0.09147  0.96624  0.70537  Biso   1.000  S
  S48      1.0000 0.12384  0.09247  0.64723  Biso   1.000  S
  N47      1.0000 0.14883  0.94797  0.67574  Biso   1.000  N
  N48      1.0000 0.05263  0.85117  0.82353  Biso   1.000  N
  O93      1.0000 0.22493  0.97697  0.73183  Biso   1.000  O
  O94      1.0000 0.15933  0.86387  0.72978  Biso   1.000  O
  O95      1.0000 0.22713  0.88587  0.78900  Biso   1.000  O
  O96      1.0000 0.31933  0.87317  0.78738  Biso   1.000  O
  C277     1.0000 0.14863  0.94657  0.69313  Biso   1.000  C
  C278     1.0000 0.19273  0.92797  0.70317  Biso   1.000  C
  C279     1.0000 0.23843  0.91257  0.69343  Biso   1.000  C
  H139     1.0000 0.26923  0.90167  0.69927  Biso   1.000  H
  C280     1.0000 0.23663  0.91397  0.67512  Biso   1.000  C
  H140     1.0000 0.26523  0.90247  0.66847  Biso   1.000  H
  C281     1.0000 0.19213  0.93257  0.66681  Biso   1.000  C
  H141     1.0000 0.19223  0.93437  0.65447  Biso   1.000  H
  C282     1.0000 0.19273  0.92297  0.72292  Biso   1.000  C
  C283     1.0000 0.26783  0.87127  0.79571  Biso   1.000  C
  C284     1.0000 0.26263  0.86137  0.81597  Biso   1.000  C
  C285     1.0000 0.28093  0.81627  0.82553  Biso   1.000  C
  C286     1.0000 0.07033  0.80947  0.81475  Biso   1.000  C
  H142     1.0000 0.07143  0.81177  0.80237  Biso   1.000  H
  C287     1.0000 0.08703  0.76347  0.82270  Biso   1.000  C
  H143     1.0000 0.09683  0.73367  0.81597  Biso   1.000  H
  C288     1.0000 0.08853  0.76277  0.84060  Biso   1.000  C
  H144     1.0000 0.10183  0.73367  0.84637  Biso   1.000  H
  Ag49     1.0000 0.69199  0.43243  0.99453  Biso   1.000  Ag
  Ag50     1.0000 0.73899  0.43175  0.14251  Biso   1.000  Ag
  Ca25     1.0000 0.76304  0.63054  0.09379  Biso   1.000  Ca
  S49      1.0000 0.70043  0.45857  0.03870  Biso   1.000  S
  S50      1.0000 0.57420  0.36471  0.98056  Biso   1.000  S
  N49      1.0000 0.71870  0.53420  0.00907  Biso   1.000  N
  N50      1.0000 0.81550  0.53480  0.15686  Biso   1.000  N
  O97      1.0000 0.68970  0.58130  0.06516  Biso   1.000  O
  O98      1.0000 0.80280  0.62880  0.06311  Biso   1.000  O
  O99      1.0000 0.78080  0.67460  0.12233  Biso   1.000  O
  O100     1.0000 0.79350  0.77950  0.12071  Biso   1.000  O
  C289     1.0000 0.72010  0.53540  0.02646  Biso   1.000  C
  C290     1.0000 0.73870  0.59810  0.03650  Biso   1.000  C
  C291     1.0000 0.75410  0.65920  0.02676  Biso   1.000  C
  H145     1.0000 0.76500  0.70090  0.03260  Biso   1.000  H
  C292     1.0000 0.75270  0.65600  0.00845  Biso   1.000  C
  H146     1.0000 0.76420  0.69610  0.00180  Biso   1.000  H
  C293     1.0000 0.73410  0.59290  0.00014  Biso   1.000  C
  H147     1.0000 0.73230  0.59120  0.98780  Biso   1.000  H
  C294     1.0000 0.74370  0.60310  0.05625  Biso   1.000  C
  C295     1.0000 0.79540  0.72990  0.12904  Biso   1.000  C
  C296     1.0000 0.80530  0.73460  0.14930  Biso   1.000  C
  C297     1.0000 0.85040  0.79800  0.15886  Biso   1.000  C
  C298     1.0000 0.85720  0.59420  0.14808  Biso   1.000  C
  H148     1.0000 0.85490  0.59300  0.13570  Biso   1.000  H
  C299     1.0000 0.90320  0.65690  0.15603  Biso   1.000  C
  H149     1.0000 0.93300  0.69650  0.14930  Biso   1.000  H
  C300     1.0000 0.90390  0.65910  0.17393  Biso   1.000  C
  H150     1.0000 0.93300  0.70150  0.17970  Biso   1.000  H
  Ag51     1.0000 0.35866  0.76576  0.32787  Biso   1.000  Ag
  Ag52     1.0000 0.40566  0.76508  0.47584  Biso   1.000  Ag
  Ca26     1.0000 0.42971  0.96387  0.42712  Biso   1.000  Ca
  S51      1.0000 0.36710  0.79190  0.37203  Biso   1.000  S
  S52      1.0000 0.24087  0.69804  0.31389  Biso   1.000  S
  N51      1.0000 0.38537  0.86753  0.34240  Biso   1.000  N
  N52      1.0000 0.48217  0.86813  0.49019  Biso   1.000  N
  O101     1.0000 0.35637  0.91463  0.39849  Biso   1.000  O
  O102     1.0000 0.46947  0.96213  0.39644  Biso   1.000  O
  O103     1.0000 0.44747  0.00793  0.45566  Biso   1.000  O
  O104     1.0000 0.46017  0.11283  0.45404  Biso   1.000  O
  C301     1.0000 0.38677  0.86873  0.35979  Biso   1.000  C
  C302     1.0000 0.40537  0.93143  0.36983  Biso   1.000  C
  C303     1.0000 0.42077  0.99253  0.36009  Biso   1.000  C
  H151     1.0000 0.43167  0.03423  0.36593  Biso   1.000  H
  C304     1.0000 0.41937  0.98933  0.34178  Biso   1.000  C
  H152     1.0000 0.43087  0.02943  0.33513  Biso   1.000  H
  C305     1.0000 0.40077  0.92623  0.33347  Biso   1.000  C
  H153     1.0000 0.39897  0.92453  0.32113  Biso   1.000  H
  C306     1.0000 0.41037  0.93643  0.38958  Biso   1.000  C
  C307     1.0000 0.46207  0.06323  0.46237  Biso   1.000  C
  C308     1.0000 0.47197  0.06793  0.48263  Biso   1.000  C
  C309     1.0000 0.51707  0.13133  0.49219  Biso   1.000  C
  C310     1.0000 0.52387  0.92753  0.48141  Biso   1.000  C
  H154     1.0000 0.52157  0.92633  0.46903  Biso   1.000  H
  C311     1.0000 0.56987  0.99023  0.48936  Biso   1.000  C
  H155     1.0000 0.59967  0.02983  0.48263  Biso   1.000  H
  C312     1.0000 0.57057  0.99243  0.50726  Biso   1.000  C
  H156     1.0000 0.59967  0.03483  0.51303  Biso   1.000  H
  Ag53     1.0000 0.02532  0.09910  0.66120  Biso   1.000  Ag
  Ag54     1.0000 0.07232  0.09842  0.80917  Biso   1.000  Ag
  Ca27     1.0000 0.09637  0.29721  0.76046  Biso   1.000  Ca
  S53      1.0000 0.03376  0.12524  0.70537  Biso   1.000  S
  S54      1.0000 0.90753  0.03138  0.64723  Biso   1.000  S
  N53      1.0000 0.05203  0.20087  0.67574  Biso   1.000  N
  N54      1.0000 0.14883  0.20147  0.82353  Biso   1.000  N
  O105     1.0000 0.02303  0.24797  0.73183  Biso   1.000  O
  O106     1.0000 0.13613  0.29547  0.72978  Biso   1.000  O
  O107     1.0000 0.11413  0.34127  0.78900  Biso   1.000  O
  O108     1.0000 0.12683  0.44617  0.78738  Biso   1.000  O
  C313     1.0000 0.05343  0.20207  0.69313  Biso   1.000  C
  C314     1.0000 0.07203  0.26477  0.70317  Biso   1.000  C
  C315     1.0000 0.08743  0.32587  0.69343  Biso   1.000  C
  H157     1.0000 0.09833  0.36757  0.69927  Biso   1.000  H
  C316     1.0000 0.08603  0.32267  0.67512  Biso   1.000  C
  H158     1.0000 0.09753  0.36277  0.66847  Biso   1.000  H
  C317     1.0000 0.06743  0.25957  0.66681  Biso   1.000  C
  H159     1.0000 0.06563  0.25787  0.65447  Biso   1.000  H
  C318     1.0000 0.07703  0.26977  0.72292  Biso   1.000  C
  C319     1.0000 0.12873  0.39657  0.79571  Biso   1.000  C
  C320     1.0000 0.13863  0.40127  0.81597  Biso   1.000  C
  C321     1.0000 0.18373  0.46467  0.82553  Biso   1.000  C
  C322     1.0000 0.19053  0.26087  0.81475  Biso   1.000  C
  H160     1.0000 0.18823  0.25967  0.80237  Biso   1.000  H
  C323     1.0000 0.23653  0.32357  0.82270  Biso   1.000  C
  H161     1.0000 0.26633  0.36317  0.81597  Biso   1.000  H
  C324     1.0000 0.23723  0.32577  0.84060  Biso   1.000  C
  H162     1.0000 0.26633  0.36817  0.84637  Biso   1.000  H
  Ag55     1.0000 0.25956  0.56757  0.50547  Biso   1.000  Ag
  Ag56     1.0000 0.30724  0.56825  0.35749  Biso   1.000  Ag
  Ca28     1.0000 0.13250  0.36946  0.40621  Biso   1.000  Ca
  S55      1.0000 0.24186  0.54143  0.46130  Biso   1.000  S
  S56      1.0000 0.20949  0.63529  0.51944  Biso   1.000  S
  N55      1.0000 0.18450  0.46580  0.49093  Biso   1.000  N
  N56      1.0000 0.28070  0.46520  0.34314  Biso   1.000  N
  O109     1.0000 0.10840  0.41870  0.43484  Biso   1.000  O
  O110     1.0000 0.17400  0.37120  0.43689  Biso   1.000  O
  O111     1.0000 0.10620  0.32540  0.37767  Biso   1.000  O
  O112     1.0000 0.01400  0.22050  0.37929  Biso   1.000  O
  C325     1.0000 0.18470  0.46460  0.47354  Biso   1.000  C
  C326     1.0000 0.14060  0.40190  0.46350  Biso   1.000  C
  C327     1.0000 0.09490  0.34080  0.47324  Biso   1.000  C
  H163     1.0000 0.06410  0.29910  0.46740  Biso   1.000  H
  C328     1.0000 0.09670  0.34400  0.49155  Biso   1.000  C
  H164     1.0000 0.06810  0.30390  0.49820  Biso   1.000  H
  C329     1.0000 0.14120  0.40710  0.49986  Biso   1.000  C
  H165     1.0000 0.14110  0.40880  0.51220  Biso   1.000  H
  C330     1.0000 0.14060  0.39690  0.44375  Biso   1.000  C
  C331     1.0000 0.06550  0.27010  0.37096  Biso   1.000  C
  C332     1.0000 0.07070  0.26540  0.35070  Biso   1.000  C
  C333     1.0000 0.05240  0.20200  0.34114  Biso   1.000  C
  C334     1.0000 0.26300  0.40580  0.35192  Biso   1.000  C
  H166     1.0000 0.26190  0.40700  0.36430  Biso   1.000  H
  C335     1.0000 0.24630  0.34310  0.34397  Biso   1.000  C
  H167     1.0000 0.23650  0.30350  0.35070  Biso   1.000  H
  C336     1.0000 0.24480  0.34090  0.32607  Biso   1.000  C
  H168     1.0000 0.23150  0.29850  0.32030  Biso   1.000  H
  Ag57     1.0000 0.92623  0.90090  0.83880  Biso   1.000  Ag
  Ag58     1.0000 0.97391  0.90158  0.69083  Biso   1.000  Ag
  Ca29     1.0000 0.79917  0.70279  0.73954  Biso   1.000  Ca
  S57      1.0000 0.90853  0.87476  0.79463  Biso   1.000  S
  S58      1.0000 0.87616  0.96862  0.85277  Biso   1.000  S
  N57      1.0000 0.85117  0.79913  0.82426  Biso   1.000  N
  N58      1.0000 0.94737  0.79853  0.67647  Biso   1.000  N
  O113     1.0000 0.77507  0.75203  0.76817  Biso   1.000  O
  O114     1.0000 0.84067  0.70453  0.77022  Biso   1.000  O
  O115     1.0000 0.77287  0.65873  0.71100  Biso   1.000  O
  O116     1.0000 0.68067  0.55383  0.71262  Biso   1.000  O
  C337     1.0000 0.85137  0.79793  0.80687  Biso   1.000  C
  C338     1.0000 0.80727  0.73523  0.79683  Biso   1.000  C
  C339     1.0000 0.76157  0.67413  0.80657  Biso   1.000  C
  H169     1.0000 0.73077  0.63243  0.80073  Biso   1.000  H
  C340     1.0000 0.76337  0.67733  0.82488  Biso   1.000  C
  H170     1.0000 0.73477  0.63723  0.83153  Biso   1.000  H
  C341     1.0000 0.80787  0.74043  0.83319  Biso   1.000  C
  H171     1.0000 0.80777  0.74213  0.84553  Biso   1.000  H
  C342     1.0000 0.80727  0.73023  0.77708  Biso   1.000  C
  C343     1.0000 0.73217  0.60343  0.70429  Biso   1.000  C
  C344     1.0000 0.73737  0.59873  0.68403  Biso   1.000  C
  C345     1.0000 0.71907  0.53533  0.67447  Biso   1.000  C
  C346     1.0000 0.92967  0.73913  0.68525  Biso   1.000  C
  H172     1.0000 0.92857  0.74033  0.69763  Biso   1.000  H
  C347     1.0000 0.91297  0.67643  0.67730  Biso   1.000  C
  H173     1.0000 0.90317  0.63683  0.68403  Biso   1.000  H
  C348     1.0000 0.91147  0.67423  0.65940  Biso   1.000  C
  H174     1.0000 0.89817  0.63183  0.65363  Biso   1.000  H
  Ag59     1.0000 0.59289  0.23424  0.17213  Biso   1.000  Ag
  Ag60     1.0000 0.64057  0.23492  0.02416  Biso   1.000  Ag
  Ca30     1.0000 0.46583  0.03613  0.07288  Biso   1.000  Ca
  S59      1.0000 0.57519  0.20810  0.12797  Biso   1.000  S
  S60      1.0000 0.54282  0.30196  0.18611  Biso   1.000  S
  N59      1.0000 0.51783  0.13247  0.15760  Biso   1.000  N
  N60      1.0000 0.61403  0.13187  0.00981  Biso   1.000  N
  O117     1.0000 0.44173  0.08537  0.10151  Biso   1.000  O
  O118     1.0000 0.50733  0.03787  0.10356  Biso   1.000  O
  O119     1.0000 0.43953  0.99207  0.04434  Biso   1.000  O
  O120     1.0000 0.34733  0.88717  0.04596  Biso   1.000  O
  C349     1.0000 0.51803  0.13127  0.14021  Biso   1.000  C
  C350     1.0000 0.47393  0.06857  0.13017  Biso   1.000  C
  C351     1.0000 0.42823  0.00747  0.13991  Biso   1.000  C
  H175     1.0000 0.39743  0.96577  0.13407  Biso   1.000  H
  C352     1.0000 0.43003  0.01067  0.15822  Biso   1.000  C
  H176     1.0000 0.40143  0.97057  0.16487  Biso   1.000  H
  C353     1.0000 0.47453  0.07377  0.16653  Biso   1.000  C
  H177     1.0000 0.47443  0.07547  0.17887  Biso   1.000  H
  C354     1.0000 0.47393  0.06357  0.11042  Biso   1.000  C
  C355     1.0000 0.39883  0.93677  0.03763  Biso   1.000  C
  C356     1.0000 0.40403  0.93207  0.01737  Biso   1.000  C
  C357     1.0000 0.38573  0.86867  0.00781  Biso   1.000  C
  C358     1.0000 0.59633  0.07247  0.01859  Biso   1.000  C
  H178     1.0000 0.59523  0.07367  0.03097  Biso   1.000  H
  C359     1.0000 0.57963  0.00977  0.01064  Biso   1.000  C
  H179     1.0000 0.56983  0.97017  0.01737  Biso   1.000  H
  C360     1.0000 0.57813  0.00757  0.99274  Biso   1.000  C
  H180     1.0000 0.56483  0.96517  0.98697  Biso   1.000  H
  Ag61     1.0000 0.30801  0.74044  0.50547  Biso   1.000  Ag
  Ag62     1.0000 0.26101  0.69276  0.35749  Biso   1.000  Ag
  Ca31     1.0000 0.23696  0.86750  0.40621  Biso   1.000  Ca
  S61      1.0000 0.29957  0.75814  0.46130  Biso   1.000  S
  S62      1.0000 0.42580  0.79051  0.51944  Biso   1.000  S
  N61      1.0000 0.28130  0.81550  0.49093  Biso   1.000  N
  N62      1.0000 0.18450  0.71930  0.34314  Biso   1.000  N
  O121     1.0000 0.31030  0.89160  0.43484  Biso   1.000  O
  O122     1.0000 0.19720  0.82600  0.43689  Biso   1.000  O
  O123     1.0000 0.21920  0.89380  0.37767  Biso   1.000  O
  O124     1.0000 0.20650  0.98600  0.37929  Biso   1.000  O
  C361     1.0000 0.27990  0.81530  0.47354  Biso   1.000  C
  C362     1.0000 0.26130  0.85940  0.46350  Biso   1.000  C
  C363     1.0000 0.24590  0.90510  0.47324  Biso   1.000  C
  H181     1.0000 0.23500  0.93590  0.46740  Biso   1.000  H
  C364     1.0000 0.24730  0.90330  0.49155  Biso   1.000  C
  H182     1.0000 0.23580  0.93190  0.49820  Biso   1.000  H
  C365     1.0000 0.26590  0.85880  0.49986  Biso   1.000  C
  H183     1.0000 0.26770  0.85890  0.51220  Biso   1.000  H
  C366     1.0000 0.25630  0.85940  0.44375  Biso   1.000  C
  C367     1.0000 0.20460  0.93450  0.37096  Biso   1.000  C
  C368     1.0000 0.19470  0.92930  0.35070  Biso   1.000  C
  C369     1.0000 0.14960  0.94760  0.34114  Biso   1.000  C
  C370     1.0000 0.14280  0.73700  0.35192  Biso   1.000  C
  H184     1.0000 0.14510  0.73810  0.36430  Biso   1.000  H
  C371     1.0000 0.09680  0.75370  0.34397  Biso   1.000  C
  H185     1.0000 0.06700  0.76350  0.35070  Biso   1.000  H
  C372     1.0000 0.09610  0.75520  0.32607  Biso   1.000  C
  H186     1.0000 0.06700  0.76850  0.32030  Biso   1.000  H
  Ag63     1.0000 0.97468  0.07377  0.83880  Biso   1.000  Ag
  Ag64     1.0000 0.92768  0.02609  0.69083  Biso   1.000  Ag
  Ca32     1.0000 0.90363  0.20083  0.73954  Biso   1.000  Ca
  S63      1.0000 0.96624  0.09147  0.79463  Biso   1.000  S
  S64      1.0000 0.09247  0.12384  0.85277  Biso   1.000  S
  N63      1.0000 0.94797  0.14883  0.82426  Biso   1.000  N
  N64      1.0000 0.85117  0.05263  0.67647  Biso   1.000  N
  O125     1.0000 0.97697  0.22493  0.76817  Biso   1.000  O
  O126     1.0000 0.86387  0.15933  0.77022  Biso   1.000  O
  O127     1.0000 0.88587  0.22713  0.71100  Biso   1.000  O
  O128     1.0000 0.87317  0.31933  0.71262  Biso   1.000  O
  C373     1.0000 0.94657  0.14863  0.80687  Biso   1.000  C
  C374     1.0000 0.92797  0.19273  0.79683  Biso   1.000  C
  C375     1.0000 0.91257  0.23843  0.80657  Biso   1.000  C
  H187     1.0000 0.90167  0.26923  0.80073  Biso   1.000  H
  C376     1.0000 0.91397  0.23663  0.82488  Biso   1.000  C
  H188     1.0000 0.90247  0.26523  0.83153  Biso   1.000  H
  C377     1.0000 0.93257  0.19213  0.83319  Biso   1.000  C
  H189     1.0000 0.93437  0.19223  0.84553  Biso   1.000  H
  C378     1.0000 0.92297  0.19273  0.77708  Biso   1.000  C
  C379     1.0000 0.87127  0.26783  0.70429  Biso   1.000  C
  C380     1.0000 0.86137  0.26263  0.68403  Biso   1.000  C
  C381     1.0000 0.81627  0.28093  0.67447  Biso   1.000  C
  C382     1.0000 0.80947  0.07033  0.68525  Biso   1.000  C
  H190     1.0000 0.81177  0.07143  0.69763  Biso   1.000  H
  C383     1.0000 0.76347  0.08703  0.67730  Biso   1.000  C
  H191     1.0000 0.73367  0.09683  0.68403  Biso   1.000  H
  C384     1.0000 0.76277  0.08853  0.65940  Biso   1.000  C
  H192     1.0000 0.73367  0.10183  0.65363  Biso   1.000  H
  Ag65     1.0000 0.64134  0.40711  0.17213  Biso   1.000  Ag
  Ag66     1.0000 0.59434  0.35943  0.02416  Biso   1.000  Ag
  Ca33     1.0000 0.57029  0.53417  0.07288  Biso   1.000  Ca
  S65      1.0000 0.63290  0.42481  0.12797  Biso   1.000  S
  S66      1.0000 0.75913  0.45718  0.18611  Biso   1.000  S
  N65      1.0000 0.61463  0.48217  0.15760  Biso   1.000  N
  N66      1.0000 0.51783  0.38597  0.00981  Biso   1.000  N
  O129     1.0000 0.64363  0.55827  0.10151  Biso   1.000  O
  O130     1.0000 0.53053  0.49267  0.10356  Biso   1.000  O
  O131     1.0000 0.55253  0.56047  0.04434  Biso   1.000  O
  O132     1.0000 0.53983  0.65267  0.04596  Biso   1.000  O
  C385     1.0000 0.61323  0.48197  0.14021  Biso   1.000  C
  C386     1.0000 0.59463  0.52607  0.13017  Biso   1.000  C
  C387     1.0000 0.57923  0.57177  0.13991  Biso   1.000  C
  H193     1.0000 0.56833  0.60257  0.13407  Biso   1.000  H
  C388     1.0000 0.58063  0.56997  0.15822  Biso   1.000  C
  H194     1.0000 0.56913  0.59857  0.16487  Biso   1.000  H
  C389     1.0000 0.59923  0.52547  0.16653  Biso   1.000  C
  H195     1.0000 0.60103  0.52557  0.17887  Biso   1.000  H
  C390     1.0000 0.58963  0.52607  0.11042  Biso   1.000  C
  C391     1.0000 0.53793  0.60117  0.03763  Biso   1.000  C
  C392     1.0000 0.52803  0.59597  0.01737  Biso   1.000  C
  C393     1.0000 0.48293  0.61427  0.00781  Biso   1.000  C
  C394     1.0000 0.47613  0.40367  0.01859  Biso   1.000  C
  H196     1.0000 0.47843  0.40477  0.03097  Biso   1.000  H
  C395     1.0000 0.43013  0.42037  0.01064  Biso   1.000  C
  H197     1.0000 0.40033  0.43017  0.01737  Biso   1.000  H
  C396     1.0000 0.42943  0.42187  0.99274  Biso   1.000  C
  H198     1.0000 0.40033  0.43517  0.98697  Biso   1.000  H
  Ag67     1.0000 0.43243  0.69199  0.50547  Biso   1.000  Ag
  Ag68     1.0000 0.43175  0.73899  0.35749  Biso   1.000  Ag
  Ca34     1.0000 0.63054  0.76304  0.40621  Biso   1.000  Ca
  S67      1.0000 0.45857  0.70043  0.46130  Biso   1.000  S
  S68      1.0000 0.36471  0.57420  0.51944  Biso   1.000  S
  N67      1.0000 0.53420  0.71870  0.49093  Biso   1.000  N
  N68      1.0000 0.53480  0.81550  0.34314  Biso   1.000  N
  O133     1.0000 0.58130  0.68970  0.43484  Biso   1.000  O
  O134     1.0000 0.62880  0.80280  0.43689  Biso   1.000  O
  O135     1.0000 0.67460  0.78080  0.37767  Biso   1.000  O
  O136     1.0000 0.77950  0.79350  0.37929  Biso   1.000  O
  C397     1.0000 0.53540  0.72010  0.47354  Biso   1.000  C
  C398     1.0000 0.59810  0.73870  0.46350  Biso   1.000  C
  C399     1.0000 0.65920  0.75410  0.47324  Biso   1.000  C
  H199     1.0000 0.70090  0.76500  0.46740  Biso   1.000  H
  C400     1.0000 0.65600  0.75270  0.49155  Biso   1.000  C
  H200     1.0000 0.69610  0.76420  0.49820  Biso   1.000  H
  C401     1.0000 0.59290  0.73410  0.49986  Biso   1.000  C
  H201     1.0000 0.59120  0.73230  0.51220  Biso   1.000  H
  C402     1.0000 0.60310  0.74370  0.44375  Biso   1.000  C
  C403     1.0000 0.72990  0.79540  0.37096  Biso   1.000  C
  C404     1.0000 0.73460  0.80530  0.35070  Biso   1.000  C
  C405     1.0000 0.79800  0.85040  0.34114  Biso   1.000  C
  C406     1.0000 0.59420  0.85720  0.35192  Biso   1.000  C
  H202     1.0000 0.59300  0.85490  0.36430  Biso   1.000  H
  C407     1.0000 0.65690  0.90320  0.34397  Biso   1.000  C
  H203     1.0000 0.69650  0.93300  0.35070  Biso   1.000  H
  C408     1.0000 0.65910  0.90390  0.32607  Biso   1.000  C
  H204     1.0000 0.70150  0.93300  0.32030  Biso   1.000  H
  Ag69     1.0000 0.09910  0.02532  0.83880  Biso   1.000  Ag
  Ag70     1.0000 0.09842  0.07232  0.69083  Biso   1.000  Ag
  Ca35     1.0000 0.29721  0.09637  0.73954  Biso   1.000  Ca
  S69      1.0000 0.12524  0.03376  0.79463  Biso   1.000  S
  S70      1.0000 0.03138  0.90753  0.85277  Biso   1.000  S
  N69      1.0000 0.20087  0.05203  0.82426  Biso   1.000  N
  N70      1.0000 0.20147  0.14883  0.67647  Biso   1.000  N
  O137     1.0000 0.24797  0.02303  0.76817  Biso   1.000  O
  O138     1.0000 0.29547  0.13613  0.77022  Biso   1.000  O
  O139     1.0000 0.34127  0.11413  0.71100  Biso   1.000  O
  O140     1.0000 0.44617  0.12683  0.71262  Biso   1.000  O
  C409     1.0000 0.20207  0.05343  0.80687  Biso   1.000  C
  C410     1.0000 0.26477  0.07203  0.79683  Biso   1.000  C
  C411     1.0000 0.32587  0.08743  0.80657  Biso   1.000  C
  H205     1.0000 0.36757  0.09833  0.80073  Biso   1.000  H
  C412     1.0000 0.32267  0.08603  0.82488  Biso   1.000  C
  H206     1.0000 0.36277  0.09753  0.83153  Biso   1.000  H
  C413     1.0000 0.25957  0.06743  0.83319  Biso   1.000  C
  H207     1.0000 0.25787  0.06563  0.84553  Biso   1.000  H
  C414     1.0000 0.26977  0.07703  0.77708  Biso   1.000  C
  C415     1.0000 0.39657  0.12873  0.70429  Biso   1.000  C
  C416     1.0000 0.40127  0.13863  0.68403  Biso   1.000  C
  C417     1.0000 0.46467  0.18373  0.67447  Biso   1.000  C
  C418     1.0000 0.26087  0.19053  0.68525  Biso   1.000  C
  H208     1.0000 0.25967  0.18823  0.69763  Biso   1.000  H
  C419     1.0000 0.32357  0.23653  0.67730  Biso   1.000  C
  H209     1.0000 0.36317  0.26633  0.68403  Biso   1.000  H
  C420     1.0000 0.32577  0.23723  0.65940  Biso   1.000  C
  H210     1.0000 0.36817  0.26633  0.65363  Biso   1.000  H
  Ag71     1.0000 0.76576  0.35866  0.17213  Biso   1.000  Ag
  Ag72     1.0000 0.76508  0.40566  0.02416  Biso   1.000  Ag
  Ca36     1.0000 0.96387  0.42971  0.07288  Biso   1.000  Ca
  S71      1.0000 0.79190  0.36710  0.12797  Biso   1.000  S
  S72      1.0000 0.69804  0.24087  0.18611  Biso   1.000  S
  N71      1.0000 0.86753  0.38537  0.15760  Biso   1.000  N
  N72      1.0000 0.86813  0.48217  0.00981  Biso   1.000  N
  O141     1.0000 0.91463  0.35637  0.10151  Biso   1.000  O
  O142     1.0000 0.96213  0.46947  0.10356  Biso   1.000  O
  O143     1.0000 0.00793  0.44747  0.04434  Biso   1.000  O
  O144     1.0000 0.11283  0.46017  0.04596  Biso   1.000  O
  C421     1.0000 0.86873  0.38677  0.14021  Biso   1.000  C
  C422     1.0000 0.93143  0.40537  0.13017  Biso   1.000  C
  C423     1.0000 0.99253  0.42077  0.13991  Biso   1.000  C
  H211     1.0000 0.03423  0.43167  0.13407  Biso   1.000  H
  C424     1.0000 0.98933  0.41937  0.15822  Biso   1.000  C
  H212     1.0000 0.02943  0.43087  0.16487  Biso   1.000  H
  C425     1.0000 0.92623  0.40077  0.16653  Biso   1.000  C
  H213     1.0000 0.92453  0.39897  0.17887  Biso   1.000  H
  C426     1.0000 0.93643  0.41037  0.11042  Biso   1.000  C
  C427     1.0000 0.06323  0.46207  0.03763  Biso   1.000  C
  C428     1.0000 0.06793  0.47197  0.01737  Biso   1.000  C
  C429     1.0000 0.13133  0.51707  0.00781  Biso   1.000  C
  C430     1.0000 0.92753  0.52387  0.01859  Biso   1.000  C
  H214     1.0000 0.92633  0.52157  0.03097  Biso   1.000  H
  C431     1.0000 0.99023  0.56987  0.01064  Biso   1.000  C
  H215     1.0000 0.02983  0.59967  0.01737  Biso   1.000  H
  C432     1.0000 0.99243  0.57057  0.99274  Biso   1.000  C
  H216     1.0000 0.03483  0.59967  0.98697  Biso   1.000  H
