data_image0
_cell_length_a       30.594
_cell_length_b       30.594
_cell_length_c       15.9646
_cell_angle_alpha    90
_cell_angle_beta     90
_cell_angle_gamma    120

_symmetry_space_group_name_H-M    "P 1"
_symmetry_int_tables_number       1

loop_
  _symmetry_equiv_pos_as_xyz
  'x, y, z'

loop_
  _atom_site_label
  _atom_site_occupancy
  _atom_site_fract_x
  _atom_site_fract_y
  _atom_site_fract_z
  _atom_site_thermal_displace_type
  _atom_site_B_iso_or_equiv
  _atom_site_type_symbol
  N1       1.0000 0.51850  0.45410  0.57150  Biso   1.000  N
  C1       1.0000 0.56460  0.46120  0.55720  Biso   1.000  C
  C2       1.0000 0.58260  0.43170  0.59580  Biso   1.000  C
  H1       1.0000 0.61490  0.43740  0.58480  Biso   1.000  H
  C3       1.0000 0.55110  0.39450  0.64970  Biso   1.000  C
  H2       1.0000 0.56050  0.37300  0.67460  Biso   1.000  H
  C4       1.0000 0.50390  0.39000  0.66580  Biso   1.000  C
  H3       1.0000 0.48280  0.36680  0.70550  Biso   1.000  H
  C5       1.0000 0.48790  0.41890  0.62500  Biso   1.000  C
  H4       1.0000 0.45570  0.41390  0.63470  Biso   1.000  H
  N2       1.0000 0.56990  0.52450  0.45690  Biso   1.000  N
  N3       1.0000 0.60490  0.55823  0.40500  Biso   1.000  N
  N4       1.0000 0.64040  0.51660  0.47030  Biso   1.000  N
  C6       1.0000 0.64410  0.55200  0.41310  Biso   1.000  C
  C7       1.0000 0.59160  0.49920  0.49530  Biso   1.000  C
  N5       1.0000 0.77514  0.63810  0.25930  Biso   1.000  N
  C8       1.0000 0.73270  0.63850  0.24760  Biso   1.000  C
  H5       1.0000 0.73060  0.65630  0.20190  Biso   1.000  H
  C9       1.0000 0.69130  0.61420  0.29870  Biso   1.000  C
  H6       1.0000 0.66350  0.61840  0.29180  Biso   1.000  H
  C10      1.0000 0.69210  0.58330  0.36050  Biso   1.000  C
  C11      1.0000 0.73550  0.58470  0.37810  Biso   1.000  C
  H7       1.0000 0.73870  0.56780  0.42390  Biso   1.000  H
  C12      1.0000 0.77500  0.61240  0.32520  Biso   1.000  C
  H8       1.0000 0.80510  0.61310  0.33720  Biso   1.000  H
  N6       1.0000 0.18517  0.78743  0.90483  Biso   1.000  N
  C13      1.0000 0.23127  0.79453  0.89053  Biso   1.000  C
  C14      1.0000 0.24927  0.76503  0.92913  Biso   1.000  C
  H9       1.0000 0.28157  0.77073  0.91813  Biso   1.000  H
  C15      1.0000 0.21777  0.72783  0.98303  Biso   1.000  C
  H10      1.0000 0.22717  0.70633  0.00793  Biso   1.000  H
  C16      1.0000 0.17057  0.72333  0.99913  Biso   1.000  C
  H11      1.0000 0.14947  0.70013  0.03883  Biso   1.000  H
  C17      1.0000 0.15457  0.75223  0.95833  Biso   1.000  C
  H12      1.0000 0.12237  0.74723  0.96803  Biso   1.000  H
  N7       1.0000 0.23657  0.85783  0.79023  Biso   1.000  N
  N8       1.0000 0.27157  0.89156  0.73833  Biso   1.000  N
  N9       1.0000 0.30707  0.84993  0.80363  Biso   1.000  N
  C18      1.0000 0.31077  0.88533  0.74643  Biso   1.000  C
  C19      1.0000 0.25827  0.83253  0.82863  Biso   1.000  C
  N10      1.0000 0.44181  0.97143  0.59263  Biso   1.000  N
  C20      1.0000 0.39937  0.97183  0.58093  Biso   1.000  C
  H13      1.0000 0.39727  0.98963  0.53523  Biso   1.000  H
  C21      1.0000 0.35797  0.94753  0.63203  Biso   1.000  C
  H14      1.0000 0.33017  0.95173  0.62513  Biso   1.000  H
  C22      1.0000 0.35877  0.91663  0.69383  Biso   1.000  C
  C23      1.0000 0.40217  0.91803  0.71143  Biso   1.000  C
  H15      1.0000 0.40537  0.90113  0.75723  Biso   1.000  H
  C24      1.0000 0.44167  0.94573  0.65853  Biso   1.000  C
  H16      1.0000 0.47177  0.94643  0.67053  Biso   1.000  H
  N11      1.0000 0.85183  0.12077  0.23817  Biso   1.000  N
  C25      1.0000 0.89793  0.12787  0.22387  Biso   1.000  C
  C26      1.0000 0.91593  0.09837  0.26247  Biso   1.000  C
  H17      1.0000 0.94823  0.10407  0.25147  Biso   1.000  H
  C27      1.0000 0.88443  0.06117  0.31637  Biso   1.000  C
  H18      1.0000 0.89383  0.03967  0.34127  Biso   1.000  H
  C28      1.0000 0.83723  0.05667  0.33247  Biso   1.000  C
  H19      1.0000 0.81613  0.03347  0.37217  Biso   1.000  H
  C29      1.0000 0.82123  0.08557  0.29167  Biso   1.000  C
  H20      1.0000 0.78903  0.08057  0.30137  Biso   1.000  H
  N12      1.0000 0.90323  0.19117  0.12357  Biso   1.000  N
  N13      1.0000 0.93823  0.22490  0.07167  Biso   1.000  N
  N14      1.0000 0.97373  0.18327  0.13697  Biso   1.000  N
  C30      1.0000 0.97743  0.21867  0.07977  Biso   1.000  C
  C31      1.0000 0.92493  0.16587  0.16197  Biso   1.000  C
  N15      1.0000 0.10847  0.30477  0.92597  Biso   1.000  N
  C32      1.0000 0.06603  0.30517  0.91427  Biso   1.000  C
  H21      1.0000 0.06393  0.32297  0.86857  Biso   1.000  H
  C33      1.0000 0.02463  0.28087  0.96537  Biso   1.000  C
  H22      1.0000 0.99683  0.28507  0.95847  Biso   1.000  H
  C34      1.0000 0.02543  0.24997  0.02717  Biso   1.000  C
  C35      1.0000 0.06883  0.25137  0.04477  Biso   1.000  C
  H23      1.0000 0.07203  0.23447  0.09057  Biso   1.000  H
  C36      1.0000 0.10833  0.27907  0.99187  Biso   1.000  C
  H24      1.0000 0.13843  0.27977  0.00387  Biso   1.000  H
  N16      1.0000 0.54590  0.06440  0.57150  Biso   1.000  N
  C37      1.0000 0.53880  0.10340  0.55720  Biso   1.000  C
  C38      1.0000 0.56830  0.15090  0.59580  Biso   1.000  C
  H25      1.0000 0.56260  0.17750  0.58480  Biso   1.000  H
  C39      1.0000 0.60550  0.15660  0.64970  Biso   1.000  C
  H26      1.0000 0.62700  0.18750  0.67460  Biso   1.000  H
  C40      1.0000 0.61000  0.11390  0.66580  Biso   1.000  C
  H27      1.0000 0.63320  0.11600  0.70550  Biso   1.000  H
  C41      1.0000 0.58110  0.06900  0.62500  Biso   1.000  C
  H28      1.0000 0.58610  0.04180  0.63470  Biso   1.000  H
  N17      1.0000 0.47550  0.04540  0.45690  Biso   1.000  N
  N18      1.0000 0.44177  0.04667  0.40500  Biso   1.000  N
  N19      1.0000 0.48340  0.12380  0.47030  Biso   1.000  N
  C42      1.0000 0.44800  0.09210  0.41310  Biso   1.000  C
  C43      1.0000 0.50080  0.09240  0.49530  Biso   1.000  C
  N20      1.0000 0.36190  0.13704  0.25930  Biso   1.000  N
  C44      1.0000 0.36150  0.09420  0.24760  Biso   1.000  C
  H29      1.0000 0.34370  0.07430  0.20190  Biso   1.000  H
  C45      1.0000 0.38580  0.07710  0.29870  Biso   1.000  C
  H30      1.0000 0.38160  0.04510  0.29180  Biso   1.000  H
  C46      1.0000 0.41670  0.10880  0.36050  Biso   1.000  C
  C47      1.0000 0.41530  0.15080  0.37810  Biso   1.000  C
  H31      1.0000 0.43220  0.17090  0.42390  Biso   1.000  H
  C48      1.0000 0.38760  0.16260  0.32520  Biso   1.000  C
  H32      1.0000 0.38690  0.19200  0.33720  Biso   1.000  H
  N21      1.0000 0.21257  0.39773  0.90483  Biso   1.000  N
  C49      1.0000 0.20547  0.43673  0.89053  Biso   1.000  C
  C50      1.0000 0.23497  0.48423  0.92913  Biso   1.000  C
  H33      1.0000 0.22927  0.51083  0.91813  Biso   1.000  H
  C51      1.0000 0.27217  0.48993  0.98303  Biso   1.000  C
  H34      1.0000 0.29367  0.52083  0.00793  Biso   1.000  H
  C52      1.0000 0.27667  0.44723  0.99913  Biso   1.000  C
  H35      1.0000 0.29987  0.44933  0.03883  Biso   1.000  H
  C53      1.0000 0.24777  0.40233  0.95833  Biso   1.000  C
  H36      1.0000 0.25277  0.37513  0.96803  Biso   1.000  H
  N22      1.0000 0.14217  0.37873  0.79023  Biso   1.000  N
  N23      1.0000 0.10844  0.38000  0.73833  Biso   1.000  N
  N24      1.0000 0.15007  0.45713  0.80363  Biso   1.000  N
  C54      1.0000 0.11467  0.42543  0.74643  Biso   1.000  C
  C55      1.0000 0.16747  0.42573  0.82863  Biso   1.000  C
  N25      1.0000 0.02857  0.47037  0.59263  Biso   1.000  N
  C56      1.0000 0.02817  0.42753  0.58093  Biso   1.000  C
  H37      1.0000 0.01037  0.40763  0.53523  Biso   1.000  H
  C57      1.0000 0.05247  0.41043  0.63203  Biso   1.000  C
  H38      1.0000 0.04827  0.37843  0.62513  Biso   1.000  H
  C58      1.0000 0.08337  0.44213  0.69383  Biso   1.000  C
  C59      1.0000 0.08197  0.48413  0.71143  Biso   1.000  C
  H39      1.0000 0.09887  0.50423  0.75723  Biso   1.000  H
  C60      1.0000 0.05427  0.49593  0.65853  Biso   1.000  C
  H40      1.0000 0.05357  0.52533  0.67053  Biso   1.000  H
  N26      1.0000 0.87923  0.73107  0.23817  Biso   1.000  N
  C61      1.0000 0.87213  0.77007  0.22387  Biso   1.000  C
  C62      1.0000 0.90163  0.81757  0.26247  Biso   1.000  C
  H41      1.0000 0.89593  0.84417  0.25147  Biso   1.000  H
  C63      1.0000 0.93883  0.82327  0.31637  Biso   1.000  C
  H42      1.0000 0.96033  0.85417  0.34127  Biso   1.000  H
  C64      1.0000 0.94333  0.78057  0.33247  Biso   1.000  C
  H43      1.0000 0.96653  0.78267  0.37217  Biso   1.000  H
  C65      1.0000 0.91443  0.73567  0.29167  Biso   1.000  C
  H44      1.0000 0.91943  0.70847  0.30137  Biso   1.000  H
  N27      1.0000 0.80883  0.71207  0.12357  Biso   1.000  N
  N28      1.0000 0.77510  0.71334  0.07167  Biso   1.000  N
  N29      1.0000 0.81673  0.79047  0.13697  Biso   1.000  N
  C66      1.0000 0.78133  0.75877  0.07977  Biso   1.000  C
  C67      1.0000 0.83413  0.75907  0.16197  Biso   1.000  C
  N30      1.0000 0.69523  0.80371  0.92597  Biso   1.000  N
  C68      1.0000 0.69483  0.76087  0.91427  Biso   1.000  C
  H45      1.0000 0.67703  0.74097  0.86857  Biso   1.000  H
  C69      1.0000 0.71913  0.74377  0.96537  Biso   1.000  C
  H46      1.0000 0.71493  0.71177  0.95847  Biso   1.000  H
  C70      1.0000 0.75003  0.77547  0.02717  Biso   1.000  C
  C71      1.0000 0.74863  0.81747  0.04477  Biso   1.000  C
  H47      1.0000 0.76553  0.83757  0.09057  Biso   1.000  H
  C72      1.0000 0.72093  0.82927  0.99187  Biso   1.000  C
  H48      1.0000 0.72023  0.85867  0.00387  Biso   1.000  H
  N31      1.0000 0.93560  0.48150  0.57150  Biso   1.000  N
  C73      1.0000 0.89660  0.43540  0.55720  Biso   1.000  C
  C74      1.0000 0.84910  0.41740  0.59580  Biso   1.000  C
  H49      1.0000 0.82250  0.38510  0.58480  Biso   1.000  H
  C75      1.0000 0.84340  0.44890  0.64970  Biso   1.000  C
  H50      1.0000 0.81250  0.43950  0.67460  Biso   1.000  H
  C76      1.0000 0.88610  0.49610  0.66580  Biso   1.000  C
  H51      1.0000 0.88400  0.51720  0.70550  Biso   1.000  H
  C77      1.0000 0.93100  0.51210  0.62500  Biso   1.000  C
  H52      1.0000 0.95820  0.54430  0.63470  Biso   1.000  H
  N32      1.0000 0.95460  0.43010  0.45690  Biso   1.000  N
  N33      1.0000 0.95333  0.39510  0.40500  Biso   1.000  N
  N34      1.0000 0.87620  0.35960  0.47030  Biso   1.000  N
  C78      1.0000 0.90790  0.35590  0.41310  Biso   1.000  C
  C79      1.0000 0.90760  0.40840  0.49530  Biso   1.000  C
  N35      1.0000 0.86296  0.22486  0.25930  Biso   1.000  N
  C80      1.0000 0.90580  0.26730  0.24760  Biso   1.000  C
  H53      1.0000 0.92570  0.26940  0.20190  Biso   1.000  H
  C81      1.0000 0.92290  0.30870  0.29870  Biso   1.000  C
  H54      1.0000 0.95490  0.33650  0.29180  Biso   1.000  H
  C82      1.0000 0.89120  0.30790  0.36050  Biso   1.000  C
  C83      1.0000 0.84920  0.26450  0.37810  Biso   1.000  C
  H55      1.0000 0.82910  0.26130  0.42390  Biso   1.000  H
  C84      1.0000 0.83740  0.22500  0.32520  Biso   1.000  C
  H56      1.0000 0.80800  0.19490  0.33720  Biso   1.000  H
  N36      1.0000 0.60227  0.81483  0.90483  Biso   1.000  N
  C85      1.0000 0.56327  0.76873  0.89053  Biso   1.000  C
  C86      1.0000 0.51577  0.75073  0.92913  Biso   1.000  C
  H57      1.0000 0.48917  0.71843  0.91813  Biso   1.000  H
  C87      1.0000 0.51007  0.78223  0.98303  Biso   1.000  C
  H58      1.0000 0.47917  0.77283  0.00793  Biso   1.000  H
  C88      1.0000 0.55277  0.82943  0.99913  Biso   1.000  C
  H59      1.0000 0.55067  0.85053  0.03883  Biso   1.000  H
  C89      1.0000 0.59767  0.84543  0.95833  Biso   1.000  C
  H60      1.0000 0.62487  0.87763  0.96803  Biso   1.000  H
  N37      1.0000 0.62127  0.76343  0.79023  Biso   1.000  N
  N38      1.0000 0.62000  0.72843  0.73833  Biso   1.000  N
  N39      1.0000 0.54287  0.69293  0.80363  Biso   1.000  N
  C90      1.0000 0.57457  0.68923  0.74643  Biso   1.000  C
  C91      1.0000 0.57427  0.74173  0.82863  Biso   1.000  C
  N40      1.0000 0.52963  0.55819  0.59263  Biso   1.000  N
  C92      1.0000 0.57247  0.60063  0.58093  Biso   1.000  C
  H61      1.0000 0.59237  0.60273  0.53523  Biso   1.000  H
  C93      1.0000 0.58957  0.64203  0.63203  Biso   1.000  C
  H62      1.0000 0.62157  0.66983  0.62513  Biso   1.000  H
  C94      1.0000 0.55787  0.64123  0.69383  Biso   1.000  C
  C95      1.0000 0.51587  0.59783  0.71143  Biso   1.000  C
  H63      1.0000 0.49577  0.59463  0.75723  Biso   1.000  H
  C96      1.0000 0.50407  0.55833  0.65853  Biso   1.000  C
  H64      1.0000 0.47467  0.52823  0.67053  Biso   1.000  H
  N41      1.0000 0.26893  0.14817  0.23817  Biso   1.000  N
  C97      1.0000 0.22993  0.10207  0.22387  Biso   1.000  C
  C98      1.0000 0.18243  0.08407  0.26247  Biso   1.000  C
  H65      1.0000 0.15583  0.05177  0.25147  Biso   1.000  H
  C99      1.0000 0.17673  0.11557  0.31637  Biso   1.000  C
  H66      1.0000 0.14583  0.10617  0.34127  Biso   1.000  H
  C100     1.0000 0.21943  0.16277  0.33247  Biso   1.000  C
  H67      1.0000 0.21733  0.18387  0.37217  Biso   1.000  H
  C101     1.0000 0.26433  0.17877  0.29167  Biso   1.000  C
  H68      1.0000 0.29153  0.21097  0.30137  Biso   1.000  H
  N42      1.0000 0.28793  0.09677  0.12357  Biso   1.000  N
  N43      1.0000 0.28666  0.06177  0.07167  Biso   1.000  N
  N44      1.0000 0.20953  0.02627  0.13697  Biso   1.000  N
  C102     1.0000 0.24123  0.02257  0.07977  Biso   1.000  C
  C103     1.0000 0.24093  0.07507  0.16197  Biso   1.000  C
  N45      1.0000 0.19629  0.89153  0.92597  Biso   1.000  N
  C104     1.0000 0.23913  0.93397  0.91427  Biso   1.000  C
  H69      1.0000 0.25903  0.93607  0.86857  Biso   1.000  H
  C105     1.0000 0.25623  0.97537  0.96537  Biso   1.000  C
  H70      1.0000 0.28823  0.00317  0.95847  Biso   1.000  H
  C106     1.0000 0.22453  0.97457  0.02717  Biso   1.000  C
  C107     1.0000 0.18253  0.93117  0.04477  Biso   1.000  C
  H71      1.0000 0.16243  0.92797  0.09057  Biso   1.000  H
  C108     1.0000 0.17073  0.89167  0.99187  Biso   1.000  C
  H72      1.0000 0.14133  0.86157  0.00387  Biso   1.000  H
  N46      1.0000 0.48150  0.54590  0.42850  Biso   1.000  N
  C109     1.0000 0.43540  0.53880  0.44280  Biso   1.000  C
  C110     1.0000 0.41740  0.56830  0.40420  Biso   1.000  C
  H73      1.0000 0.38510  0.56260  0.41520  Biso   1.000  H
  C111     1.0000 0.44890  0.60550  0.35030  Biso   1.000  C
  H74      1.0000 0.43950  0.62700  0.32540  Biso   1.000  H
  C112     1.0000 0.49610  0.61000  0.33420  Biso   1.000  C
  H75      1.0000 0.51720  0.63320  0.29450  Biso   1.000  H
  C113     1.0000 0.51210  0.58110  0.37500  Biso   1.000  C
  H76      1.0000 0.54430  0.58610  0.36530  Biso   1.000  H
  N47      1.0000 0.43010  0.47550  0.54310  Biso   1.000  N
  N48      1.0000 0.39510  0.44177  0.59500  Biso   1.000  N
  N49      1.0000 0.35960  0.48340  0.52970  Biso   1.000  N
  C114     1.0000 0.35590  0.44800  0.58690  Biso   1.000  C
  C115     1.0000 0.40840  0.50080  0.50470  Biso   1.000  C
  N50      1.0000 0.22486  0.36190  0.74070  Biso   1.000  N
  C116     1.0000 0.26730  0.36150  0.75240  Biso   1.000  C
  H77      1.0000 0.26940  0.34370  0.79810  Biso   1.000  H
  C117     1.0000 0.30870  0.38580  0.70130  Biso   1.000  C
  H78      1.0000 0.33650  0.38160  0.70820  Biso   1.000  H
  C118     1.0000 0.30790  0.41670  0.63950  Biso   1.000  C
  C119     1.0000 0.26450  0.41530  0.62190  Biso   1.000  C
  H79      1.0000 0.26130  0.43220  0.57610  Biso   1.000  H
  C120     1.0000 0.22500  0.38760  0.67480  Biso   1.000  C
  H80      1.0000 0.19490  0.38690  0.66280  Biso   1.000  H
  N51      1.0000 0.14817  0.87923  0.76183  Biso   1.000  N
  C121     1.0000 0.10207  0.87213  0.77613  Biso   1.000  C
  C122     1.0000 0.08407  0.90163  0.73753  Biso   1.000  C
  H81      1.0000 0.05177  0.89593  0.74853  Biso   1.000  H
  C123     1.0000 0.11557  0.93883  0.68363  Biso   1.000  C
  H82      1.0000 0.10617  0.96033  0.65873  Biso   1.000  H
  C124     1.0000 0.16277  0.94333  0.66753  Biso   1.000  C
  H83      1.0000 0.18387  0.96653  0.62783  Biso   1.000  H
  C125     1.0000 0.17877  0.91443  0.70833  Biso   1.000  C
  H84      1.0000 0.21097  0.91943  0.69863  Biso   1.000  H
  N52      1.0000 0.09677  0.80883  0.87643  Biso   1.000  N
  N53      1.0000 0.06177  0.77510  0.92833  Biso   1.000  N
  N54      1.0000 0.02627  0.81673  0.86303  Biso   1.000  N
  C126     1.0000 0.02257  0.78133  0.92023  Biso   1.000  C
  C127     1.0000 0.07507  0.83413  0.83803  Biso   1.000  C
  N55      1.0000 0.89153  0.69523  0.07403  Biso   1.000  N
  C128     1.0000 0.93397  0.69483  0.08573  Biso   1.000  C
  H85      1.0000 0.93607  0.67703  0.13143  Biso   1.000  H
  C129     1.0000 0.97537  0.71913  0.03463  Biso   1.000  C
  H86      1.0000 0.00317  0.71493  0.04153  Biso   1.000  H
  C130     1.0000 0.97457  0.75003  0.97283  Biso   1.000  C
  C131     1.0000 0.93117  0.74863  0.95523  Biso   1.000  C
  H87      1.0000 0.92797  0.76553  0.90943  Biso   1.000  H
  C132     1.0000 0.89167  0.72093  0.00813  Biso   1.000  C
  H88      1.0000 0.86157  0.72023  0.99613  Biso   1.000  H
  N56      1.0000 0.81483  0.21257  0.09517  Biso   1.000  N
  C133     1.0000 0.76873  0.20547  0.10947  Biso   1.000  C
  C134     1.0000 0.75073  0.23497  0.07087  Biso   1.000  C
  H89      1.0000 0.71843  0.22927  0.08187  Biso   1.000  H
  C135     1.0000 0.78223  0.27217  0.01697  Biso   1.000  C
  H90      1.0000 0.77283  0.29367  0.99207  Biso   1.000  H
  C136     1.0000 0.82943  0.27667  0.00087  Biso   1.000  C
  H91      1.0000 0.85053  0.29987  0.96117  Biso   1.000  H
  C137     1.0000 0.84543  0.24777  0.04167  Biso   1.000  C
  H92      1.0000 0.87763  0.25277  0.03197  Biso   1.000  H
  N57      1.0000 0.76343  0.14217  0.20977  Biso   1.000  N
  N58      1.0000 0.72843  0.10844  0.26167  Biso   1.000  N
  N59      1.0000 0.69293  0.15007  0.19637  Biso   1.000  N
  C138     1.0000 0.68923  0.11467  0.25357  Biso   1.000  C
  C139     1.0000 0.74173  0.16747  0.17137  Biso   1.000  C
  N60      1.0000 0.55819  0.02857  0.40737  Biso   1.000  N
  C140     1.0000 0.60063  0.02817  0.41907  Biso   1.000  C
  H93      1.0000 0.60273  0.01037  0.46477  Biso   1.000  H
  C141     1.0000 0.64203  0.05247  0.36797  Biso   1.000  C
  H94      1.0000 0.66983  0.04827  0.37487  Biso   1.000  H
  C142     1.0000 0.64123  0.08337  0.30617  Biso   1.000  C
  C143     1.0000 0.59783  0.08197  0.28857  Biso   1.000  C
  H95      1.0000 0.59463  0.09887  0.24277  Biso   1.000  H
  C144     1.0000 0.55833  0.05427  0.34147  Biso   1.000  C
  H96      1.0000 0.52823  0.05357  0.32947  Biso   1.000  H
  N61      1.0000 0.45410  0.93560  0.42850  Biso   1.000  N
  C145     1.0000 0.46120  0.89660  0.44280  Biso   1.000  C
  C146     1.0000 0.43170  0.84910  0.40420  Biso   1.000  C
  H97      1.0000 0.43740  0.82250  0.41520  Biso   1.000  H
  C147     1.0000 0.39450  0.84340  0.35030  Biso   1.000  C
  H98      1.0000 0.37300  0.81250  0.32540  Biso   1.000  H
  C148     1.0000 0.39000  0.88610  0.33420  Biso   1.000  C
  H99      1.0000 0.36680  0.88400  0.29450  Biso   1.000  H
  C149     1.0000 0.41890  0.93100  0.37500  Biso   1.000  C
  H100     1.0000 0.41390  0.95820  0.36530  Biso   1.000  H
  N62      1.0000 0.52450  0.95460  0.54310  Biso   1.000  N
  N63      1.0000 0.55823  0.95333  0.59500  Biso   1.000  N
  N64      1.0000 0.51660  0.87620  0.52970  Biso   1.000  N
  C150     1.0000 0.55200  0.90790  0.58690  Biso   1.000  C
  C151     1.0000 0.49920  0.90760  0.50470  Biso   1.000  C
  N65      1.0000 0.63810  0.86296  0.74070  Biso   1.000  N
  C152     1.0000 0.63850  0.90580  0.75240  Biso   1.000  C
  H101     1.0000 0.65630  0.92570  0.79810  Biso   1.000  H
  C153     1.0000 0.61420  0.92290  0.70130  Biso   1.000  C
  H102     1.0000 0.61840  0.95490  0.70820  Biso   1.000  H
  C154     1.0000 0.58330  0.89120  0.63950  Biso   1.000  C
  C155     1.0000 0.58470  0.84920  0.62190  Biso   1.000  C
  H103     1.0000 0.56780  0.82910  0.57610  Biso   1.000  H
  C156     1.0000 0.61240  0.83740  0.67480  Biso   1.000  C
  H104     1.0000 0.61310  0.80800  0.66280  Biso   1.000  H
  N66      1.0000 0.12077  0.26893  0.76183  Biso   1.000  N
  C157     1.0000 0.12787  0.22993  0.77613  Biso   1.000  C
  C158     1.0000 0.09837  0.18243  0.73753  Biso   1.000  C
  H105     1.0000 0.10407  0.15583  0.74853  Biso   1.000  H
  C159     1.0000 0.06117  0.17673  0.68363  Biso   1.000  C
  H106     1.0000 0.03967  0.14583  0.65873  Biso   1.000  H
  C160     1.0000 0.05667  0.21943  0.66753  Biso   1.000  C
  H107     1.0000 0.03347  0.21733  0.62783  Biso   1.000  H
  C161     1.0000 0.08557  0.26433  0.70833  Biso   1.000  C
  H108     1.0000 0.08057  0.29153  0.69863  Biso   1.000  H
  N67      1.0000 0.19117  0.28793  0.87643  Biso   1.000  N
  N68      1.0000 0.22490  0.28666  0.92833  Biso   1.000  N
  N69      1.0000 0.18327  0.20953  0.86303  Biso   1.000  N
  C162     1.0000 0.21867  0.24123  0.92023  Biso   1.000  C
  C163     1.0000 0.16587  0.24093  0.83803  Biso   1.000  C
  N70      1.0000 0.30477  0.19629  0.07403  Biso   1.000  N
  C164     1.0000 0.30517  0.23913  0.08573  Biso   1.000  C
  H109     1.0000 0.32297  0.25903  0.13143  Biso   1.000  H
  C165     1.0000 0.28087  0.25623  0.03463  Biso   1.000  C
  H110     1.0000 0.28507  0.28823  0.04153  Biso   1.000  H
  C166     1.0000 0.24997  0.22453  0.97283  Biso   1.000  C
  C167     1.0000 0.25137  0.18253  0.95523  Biso   1.000  C
  H111     1.0000 0.23447  0.16243  0.90943  Biso   1.000  H
  C168     1.0000 0.27907  0.17073  0.00813  Biso   1.000  C
  H112     1.0000 0.27977  0.14133  0.99613  Biso   1.000  H
  N71      1.0000 0.78743  0.60227  0.09517  Biso   1.000  N
  C169     1.0000 0.79453  0.56327  0.10947  Biso   1.000  C
  C170     1.0000 0.76503  0.51577  0.07087  Biso   1.000  C
  H113     1.0000 0.77073  0.48917  0.08187  Biso   1.000  H
  C171     1.0000 0.72783  0.51007  0.01697  Biso   1.000  C
  H114     1.0000 0.70633  0.47917  0.99207  Biso   1.000  H
  C172     1.0000 0.72333  0.55277  0.00087  Biso   1.000  C
  H115     1.0000 0.70013  0.55067  0.96117  Biso   1.000  H
  C173     1.0000 0.75223  0.59767  0.04167  Biso   1.000  C
  H116     1.0000 0.74723  0.62487  0.03197  Biso   1.000  H
  N72      1.0000 0.85783  0.62127  0.20977  Biso   1.000  N
  N73      1.0000 0.89156  0.62000  0.26167  Biso   1.000  N
  N74      1.0000 0.84993  0.54287  0.19637  Biso   1.000  N
  C174     1.0000 0.88533  0.57457  0.25357  Biso   1.000  C
  C175     1.0000 0.83253  0.57427  0.17137  Biso   1.000  C
  N75      1.0000 0.97143  0.52963  0.40737  Biso   1.000  N
  C176     1.0000 0.97183  0.57247  0.41907  Biso   1.000  C
  H117     1.0000 0.98963  0.59237  0.46477  Biso   1.000  H
  C177     1.0000 0.94753  0.58957  0.36797  Biso   1.000  C
  H118     1.0000 0.95173  0.62157  0.37487  Biso   1.000  H
  C178     1.0000 0.91663  0.55787  0.30617  Biso   1.000  C
  C179     1.0000 0.91803  0.51587  0.28857  Biso   1.000  C
  H119     1.0000 0.90113  0.49577  0.24277  Biso   1.000  H
  C180     1.0000 0.94573  0.50407  0.34147  Biso   1.000  C
  H120     1.0000 0.94643  0.47467  0.32947  Biso   1.000  H
  N76      1.0000 0.06440  0.51850  0.42850  Biso   1.000  N
  C181     1.0000 0.10340  0.56460  0.44280  Biso   1.000  C
  C182     1.0000 0.15090  0.58260  0.40420  Biso   1.000  C
  H121     1.0000 0.17750  0.61490  0.41520  Biso   1.000  H
  C183     1.0000 0.15660  0.55110  0.35030  Biso   1.000  C
  H122     1.0000 0.18750  0.56050  0.32540  Biso   1.000  H
  C184     1.0000 0.11390  0.50390  0.33420  Biso   1.000  C
  H123     1.0000 0.11600  0.48280  0.29450  Biso   1.000  H
  C185     1.0000 0.06900  0.48790  0.37500  Biso   1.000  C
  H124     1.0000 0.04180  0.45570  0.36530  Biso   1.000  H
  N77      1.0000 0.04540  0.56990  0.54310  Biso   1.000  N
  N78      1.0000 0.04667  0.60490  0.59500  Biso   1.000  N
  N79      1.0000 0.12380  0.64040  0.52970  Biso   1.000  N
  C186     1.0000 0.09210  0.64410  0.58690  Biso   1.000  C
  C187     1.0000 0.09240  0.59160  0.50470  Biso   1.000  C
  N80      1.0000 0.13704  0.77514  0.74070  Biso   1.000  N
  C188     1.0000 0.09420  0.73270  0.75240  Biso   1.000  C
  H125     1.0000 0.07430  0.73060  0.79810  Biso   1.000  H
  C189     1.0000 0.07710  0.69130  0.70130  Biso   1.000  C
  H126     1.0000 0.04510  0.66350  0.70820  Biso   1.000  H
  C190     1.0000 0.10880  0.69210  0.63950  Biso   1.000  C
  C191     1.0000 0.15080  0.73550  0.62190  Biso   1.000  C
  H127     1.0000 0.17090  0.73870  0.57610  Biso   1.000  H
  C192     1.0000 0.16260  0.77500  0.67480  Biso   1.000  C
  H128     1.0000 0.19200  0.80510  0.66280  Biso   1.000  H
  N81      1.0000 0.73107  0.85183  0.76183  Biso   1.000  N
  C193     1.0000 0.77007  0.89793  0.77613  Biso   1.000  C
  C194     1.0000 0.81757  0.91593  0.73753  Biso   1.000  C
  H129     1.0000 0.84417  0.94823  0.74853  Biso   1.000  H
  C195     1.0000 0.82327  0.88443  0.68363  Biso   1.000  C
  H130     1.0000 0.85417  0.89383  0.65873  Biso   1.000  H
  C196     1.0000 0.78057  0.83723  0.66753  Biso   1.000  C
  H131     1.0000 0.78267  0.81613  0.62783  Biso   1.000  H
  C197     1.0000 0.73567  0.82123  0.70833  Biso   1.000  C
  H132     1.0000 0.70847  0.78903  0.69863  Biso   1.000  H
  N82      1.0000 0.71207  0.90323  0.87643  Biso   1.000  N
  N83      1.0000 0.71334  0.93823  0.92833  Biso   1.000  N
  N84      1.0000 0.79047  0.97373  0.86303  Biso   1.000  N
  C198     1.0000 0.75877  0.97743  0.92023  Biso   1.000  C
  C199     1.0000 0.75907  0.92493  0.83803  Biso   1.000  C
  N85      1.0000 0.80371  0.10847  0.07403  Biso   1.000  N
  C200     1.0000 0.76087  0.06603  0.08573  Biso   1.000  C
  H133     1.0000 0.74097  0.06393  0.13143  Biso   1.000  H
  C201     1.0000 0.74377  0.02463  0.03463  Biso   1.000  C
  H134     1.0000 0.71177  0.99683  0.04153  Biso   1.000  H
  C202     1.0000 0.77547  0.02543  0.97283  Biso   1.000  C
  C203     1.0000 0.81747  0.06883  0.95523  Biso   1.000  C
  H135     1.0000 0.83757  0.07203  0.90943  Biso   1.000  H
  C204     1.0000 0.82927  0.10833  0.00813  Biso   1.000  C
  H136     1.0000 0.85867  0.13843  0.99613  Biso   1.000  H
  N86      1.0000 0.39773  0.18517  0.09517  Biso   1.000  N
  C205     1.0000 0.43673  0.23127  0.10947  Biso   1.000  C
  C206     1.0000 0.48423  0.24927  0.07087  Biso   1.000  C
  H137     1.0000 0.51083  0.28157  0.08187  Biso   1.000  H
  C207     1.0000 0.48993  0.21777  0.01697  Biso   1.000  C
  H138     1.0000 0.52083  0.22717  0.99207  Biso   1.000  H
  C208     1.0000 0.44723  0.17057  0.00087  Biso   1.000  C
  H139     1.0000 0.44933  0.14947  0.96117  Biso   1.000  H
  C209     1.0000 0.40233  0.15457  0.04167  Biso   1.000  C
  H140     1.0000 0.37513  0.12237  0.03197  Biso   1.000  H
  N87      1.0000 0.37873  0.23657  0.20977  Biso   1.000  N
  N88      1.0000 0.38000  0.27157  0.26167  Biso   1.000  N
  N89      1.0000 0.45713  0.30707  0.19637  Biso   1.000  N
  C210     1.0000 0.42543  0.31077  0.25357  Biso   1.000  C
  C211     1.0000 0.42573  0.25827  0.17137  Biso   1.000  C
  N90      1.0000 0.47037  0.44181  0.40737  Biso   1.000  N
  C212     1.0000 0.42753  0.39937  0.41907  Biso   1.000  C
  H141     1.0000 0.40763  0.39727  0.46477  Biso   1.000  H
  C213     1.0000 0.41043  0.35797  0.36797  Biso   1.000  C
  H142     1.0000 0.37843  0.33017  0.37487  Biso   1.000  H
  C214     1.0000 0.44213  0.35877  0.30617  Biso   1.000  C
  C215     1.0000 0.48413  0.40217  0.28857  Biso   1.000  C
  H143     1.0000 0.50423  0.40537  0.24277  Biso   1.000  H
  C216     1.0000 0.49593  0.44167  0.34147  Biso   1.000  C
  H144     1.0000 0.52533  0.47177  0.32947  Biso   1.000  H
  Ni1      1.0000 0.50000  0.50000  0.50000  Biso   1.000  Ni
  Ni2      1.0000 0.16667  0.83333  0.83333  Biso   1.000  Ni
  Ni3      1.0000 0.83333  0.16667  0.16667  Biso   1.000  Ni
  Ni4      1.0000 0.50000  0.00000  0.50000  Biso   1.000  Ni
  Ni5      1.0000 0.16667  0.33333  0.83333  Biso   1.000  Ni
  Ni6      1.0000 0.83333  0.66667  0.16667  Biso   1.000  Ni
  Ni7      1.0000 0.00000  0.50000  0.50000  Biso   1.000  Ni
  Ni8      1.0000 0.66667  0.83333  0.83333  Biso   1.000  Ni
  Ni9      1.0000 0.33333  0.16667  0.16667  Biso   1.000  Ni
  N91      1.0000 0.45410  0.51850  0.92850  Biso   1.000  N
  C217     1.0000 0.46120  0.56460  0.94280  Biso   1.000  C
  C218     1.0000 0.43170  0.58260  0.90420  Biso   1.000  C
  H145     1.0000 0.43740  0.61490  0.91520  Biso   1.000  H
  C219     1.0000 0.39450  0.55110  0.85030  Biso   1.000  C
  H146     1.0000 0.37300  0.56050  0.82540  Biso   1.000  H
  C220     1.0000 0.39000  0.50390  0.83420  Biso   1.000  C
  H147     1.0000 0.36680  0.48280  0.79450  Biso   1.000  H
  C221     1.0000 0.41890  0.48790  0.87500  Biso   1.000  C
  H148     1.0000 0.41390  0.45570  0.86530  Biso   1.000  H
  N92      1.0000 0.52450  0.56990  0.04310  Biso   1.000  N
  N93      1.0000 0.55823  0.60490  0.09500  Biso   1.000  N
  N94      1.0000 0.51660  0.64040  0.02970  Biso   1.000  N
  C222     1.0000 0.55200  0.64410  0.08690  Biso   1.000  C
  C223     1.0000 0.49920  0.59160  0.00470  Biso   1.000  C
  N95      1.0000 0.63810  0.77514  0.24070  Biso   1.000  N
  C224     1.0000 0.63850  0.73270  0.25240  Biso   1.000  C
  H149     1.0000 0.65630  0.73060  0.29810  Biso   1.000  H
  C225     1.0000 0.61420  0.69130  0.20130  Biso   1.000  C
  H150     1.0000 0.61840  0.66350  0.20820  Biso   1.000  H
  C226     1.0000 0.58330  0.69210  0.13950  Biso   1.000  C
  C227     1.0000 0.58470  0.73550  0.12190  Biso   1.000  C
  H151     1.0000 0.56780  0.73870  0.07610  Biso   1.000  H
  C228     1.0000 0.61240  0.77500  0.17480  Biso   1.000  C
  H152     1.0000 0.61310  0.80510  0.16280  Biso   1.000  H
  N96      1.0000 0.12077  0.85183  0.26183  Biso   1.000  N
  C229     1.0000 0.12787  0.89793  0.27613  Biso   1.000  C
  C230     1.0000 0.09837  0.91593  0.23753  Biso   1.000  C
  H153     1.0000 0.10407  0.94823  0.24853  Biso   1.000  H
  C231     1.0000 0.06117  0.88443  0.18363  Biso   1.000  C
  H154     1.0000 0.03967  0.89383  0.15873  Biso   1.000  H
  C232     1.0000 0.05667  0.83723  0.16753  Biso   1.000  C
  H155     1.0000 0.03347  0.81613  0.12783  Biso   1.000  H
  C233     1.0000 0.08557  0.82123  0.20833  Biso   1.000  C
  H156     1.0000 0.08057  0.78903  0.19863  Biso   1.000  H
  N97      1.0000 0.19117  0.90323  0.37643  Biso   1.000  N
  N98      1.0000 0.22490  0.93823  0.42833  Biso   1.000  N
  N99      1.0000 0.18327  0.97373  0.36303  Biso   1.000  N
  C234     1.0000 0.21867  0.97743  0.42023  Biso   1.000  C
  C235     1.0000 0.16587  0.92493  0.33803  Biso   1.000  C
  N100     1.0000 0.30477  0.10847  0.57403  Biso   1.000  N
  C236     1.0000 0.30517  0.06603  0.58573  Biso   1.000  C
  H157     1.0000 0.32297  0.06393  0.63143  Biso   1.000  H
  C237     1.0000 0.28087  0.02463  0.53463  Biso   1.000  C
  H158     1.0000 0.28507  0.99683  0.54153  Biso   1.000  H
  C238     1.0000 0.24997  0.02543  0.47283  Biso   1.000  C
  C239     1.0000 0.25137  0.06883  0.45523  Biso   1.000  C
  H159     1.0000 0.23447  0.07203  0.40943  Biso   1.000  H
  C240     1.0000 0.27907  0.10833  0.50813  Biso   1.000  C
  H160     1.0000 0.27977  0.13843  0.49613  Biso   1.000  H
  N101     1.0000 0.78743  0.18517  0.59517  Biso   1.000  N
  C241     1.0000 0.79453  0.23127  0.60947  Biso   1.000  C
  C242     1.0000 0.76503  0.24927  0.57087  Biso   1.000  C
  H161     1.0000 0.77073  0.28157  0.58187  Biso   1.000  H
  C243     1.0000 0.72783  0.21777  0.51697  Biso   1.000  C
  H162     1.0000 0.70633  0.22717  0.49207  Biso   1.000  H
  C244     1.0000 0.72333  0.17057  0.50087  Biso   1.000  C
  H163     1.0000 0.70013  0.14947  0.46117  Biso   1.000  H
  C245     1.0000 0.75223  0.15457  0.54167  Biso   1.000  C
  H164     1.0000 0.74723  0.12237  0.53197  Biso   1.000  H
  N102     1.0000 0.85783  0.23657  0.70977  Biso   1.000  N
  N103     1.0000 0.89156  0.27157  0.76167  Biso   1.000  N
  N104     1.0000 0.84993  0.30707  0.69637  Biso   1.000  N
  C246     1.0000 0.88533  0.31077  0.75357  Biso   1.000  C
  C247     1.0000 0.83253  0.25827  0.67137  Biso   1.000  C
  N105     1.0000 0.97143  0.44181  0.90737  Biso   1.000  N
  C248     1.0000 0.97183  0.39937  0.91907  Biso   1.000  C
  H165     1.0000 0.98963  0.39727  0.96477  Biso   1.000  H
  C249     1.0000 0.94753  0.35797  0.86797  Biso   1.000  C
  H166     1.0000 0.95173  0.33017  0.87487  Biso   1.000  H
  C250     1.0000 0.91663  0.35877  0.80617  Biso   1.000  C
  C251     1.0000 0.91803  0.40217  0.78857  Biso   1.000  C
  H167     1.0000 0.90113  0.40537  0.74277  Biso   1.000  H
  C252     1.0000 0.94573  0.44167  0.84147  Biso   1.000  C
  H168     1.0000 0.94643  0.47177  0.82947  Biso   1.000  H
  N106     1.0000 0.06440  0.54590  0.92850  Biso   1.000  N
  C253     1.0000 0.10340  0.53880  0.94280  Biso   1.000  C
  C254     1.0000 0.15090  0.56830  0.90420  Biso   1.000  C
  H169     1.0000 0.17750  0.56260  0.91520  Biso   1.000  H
  C255     1.0000 0.15660  0.60550  0.85030  Biso   1.000  C
  H170     1.0000 0.18750  0.62700  0.82540  Biso   1.000  H
  C256     1.0000 0.11390  0.61000  0.83420  Biso   1.000  C
  H171     1.0000 0.11600  0.63320  0.79450  Biso   1.000  H
  C257     1.0000 0.06900  0.58110  0.87500  Biso   1.000  C
  H172     1.0000 0.04180  0.58610  0.86530  Biso   1.000  H
  N107     1.0000 0.04540  0.47550  0.04310  Biso   1.000  N
  N108     1.0000 0.04667  0.44177  0.09500  Biso   1.000  N
  N109     1.0000 0.12380  0.48340  0.02970  Biso   1.000  N
  C258     1.0000 0.09210  0.44800  0.08690  Biso   1.000  C
  C259     1.0000 0.09240  0.50080  0.00470  Biso   1.000  C
  N110     1.0000 0.13704  0.36190  0.24070  Biso   1.000  N
  C260     1.0000 0.09420  0.36150  0.25240  Biso   1.000  C
  H173     1.0000 0.07430  0.34370  0.29810  Biso   1.000  H
  C261     1.0000 0.07710  0.38580  0.20130  Biso   1.000  C
  H174     1.0000 0.04510  0.38160  0.20820  Biso   1.000  H
  C262     1.0000 0.10880  0.41670  0.13950  Biso   1.000  C
  C263     1.0000 0.15080  0.41530  0.12190  Biso   1.000  C
  H175     1.0000 0.17090  0.43220  0.07610  Biso   1.000  H
  C264     1.0000 0.16260  0.38760  0.17480  Biso   1.000  C
  H176     1.0000 0.19200  0.38690  0.16280  Biso   1.000  H
  N111     1.0000 0.73107  0.87923  0.26183  Biso   1.000  N
  C265     1.0000 0.77007  0.87213  0.27613  Biso   1.000  C
  C266     1.0000 0.81757  0.90163  0.23753  Biso   1.000  C
  H177     1.0000 0.84417  0.89593  0.24853  Biso   1.000  H
  C267     1.0000 0.82327  0.93883  0.18363  Biso   1.000  C
  H178     1.0000 0.85417  0.96033  0.15873  Biso   1.000  H
  C268     1.0000 0.78057  0.94333  0.16753  Biso   1.000  C
  H179     1.0000 0.78267  0.96653  0.12783  Biso   1.000  H
  C269     1.0000 0.73567  0.91443  0.20833  Biso   1.000  C
  H180     1.0000 0.70847  0.91943  0.19863  Biso   1.000  H
  N112     1.0000 0.71207  0.80883  0.37643  Biso   1.000  N
  N113     1.0000 0.71334  0.77510  0.42833  Biso   1.000  N
  N114     1.0000 0.79047  0.81673  0.36303  Biso   1.000  N
  C270     1.0000 0.75877  0.78133  0.42023  Biso   1.000  C
  C271     1.0000 0.75907  0.83413  0.33803  Biso   1.000  C
  N115     1.0000 0.80371  0.69523  0.57403  Biso   1.000  N
  C272     1.0000 0.76087  0.69483  0.58573  Biso   1.000  C
  H181     1.0000 0.74097  0.67703  0.63143  Biso   1.000  H
  C273     1.0000 0.74377  0.71913  0.53463  Biso   1.000  C
  H182     1.0000 0.71177  0.71493  0.54153  Biso   1.000  H
  C274     1.0000 0.77547  0.75003  0.47283  Biso   1.000  C
  C275     1.0000 0.81747  0.74863  0.45523  Biso   1.000  C
  H183     1.0000 0.83757  0.76553  0.40943  Biso   1.000  H
  C276     1.0000 0.82927  0.72093  0.50813  Biso   1.000  C
  H184     1.0000 0.85867  0.72023  0.49613  Biso   1.000  H
  N116     1.0000 0.39773  0.21257  0.59517  Biso   1.000  N
  C277     1.0000 0.43673  0.20547  0.60947  Biso   1.000  C
  C278     1.0000 0.48423  0.23497  0.57087  Biso   1.000  C
  H185     1.0000 0.51083  0.22927  0.58187  Biso   1.000  H
  C279     1.0000 0.48993  0.27217  0.51697  Biso   1.000  C
  H186     1.0000 0.52083  0.29367  0.49207  Biso   1.000  H
  C280     1.0000 0.44723  0.27667  0.50087  Biso   1.000  C
  H187     1.0000 0.44933  0.29987  0.46117  Biso   1.000  H
  C281     1.0000 0.40233  0.24777  0.54167  Biso   1.000  C
  H188     1.0000 0.37513  0.25277  0.53197  Biso   1.000  H
  N117     1.0000 0.37873  0.14217  0.70977  Biso   1.000  N
  N118     1.0000 0.38000  0.10844  0.76167  Biso   1.000  N
  N119     1.0000 0.45713  0.15007  0.69637  Biso   1.000  N
  C282     1.0000 0.42543  0.11467  0.75357  Biso   1.000  C
  C283     1.0000 0.42573  0.16747  0.67137  Biso   1.000  C
  N120     1.0000 0.47037  0.02857  0.90737  Biso   1.000  N
  C284     1.0000 0.42753  0.02817  0.91907  Biso   1.000  C
  H189     1.0000 0.40763  0.01037  0.96477  Biso   1.000  H
  C285     1.0000 0.41043  0.05247  0.86797  Biso   1.000  C
  H190     1.0000 0.37843  0.04827  0.87487  Biso   1.000  H
  C286     1.0000 0.44213  0.08337  0.80617  Biso   1.000  C
  C287     1.0000 0.48413  0.08197  0.78857  Biso   1.000  C
  H191     1.0000 0.50423  0.09887  0.74277  Biso   1.000  H
  C288     1.0000 0.49593  0.05427  0.84147  Biso   1.000  C
  H192     1.0000 0.52533  0.05357  0.82947  Biso   1.000  H
  N121     1.0000 0.48150  0.93560  0.92850  Biso   1.000  N
  C289     1.0000 0.43540  0.89660  0.94280  Biso   1.000  C
  C290     1.0000 0.41740  0.84910  0.90420  Biso   1.000  C
  H193     1.0000 0.38510  0.82250  0.91520  Biso   1.000  H
  C291     1.0000 0.44890  0.84340  0.85030  Biso   1.000  C
  H194     1.0000 0.43950  0.81250  0.82540  Biso   1.000  H
  C292     1.0000 0.49610  0.88610  0.83420  Biso   1.000  C
  H195     1.0000 0.51720  0.88400  0.79450  Biso   1.000  H
  C293     1.0000 0.51210  0.93100  0.87500  Biso   1.000  C
  H196     1.0000 0.54430  0.95820  0.86530  Biso   1.000  H
  N122     1.0000 0.43010  0.95460  0.04310  Biso   1.000  N
  N123     1.0000 0.39510  0.95333  0.09500  Biso   1.000  N
  N124     1.0000 0.35960  0.87620  0.02970  Biso   1.000  N
  C294     1.0000 0.35590  0.90790  0.08690  Biso   1.000  C
  C295     1.0000 0.40840  0.90760  0.00470  Biso   1.000  C
  N125     1.0000 0.22486  0.86296  0.24070  Biso   1.000  N
  C296     1.0000 0.26730  0.90580  0.25240  Biso   1.000  C
  H197     1.0000 0.26940  0.92570  0.29810  Biso   1.000  H
  C297     1.0000 0.30870  0.92290  0.20130  Biso   1.000  C
  H198     1.0000 0.33650  0.95490  0.20820  Biso   1.000  H
  C298     1.0000 0.30790  0.89120  0.13950  Biso   1.000  C
  C299     1.0000 0.26450  0.84920  0.12190  Biso   1.000  C
  H199     1.0000 0.26130  0.82910  0.07610  Biso   1.000  H
  C300     1.0000 0.22500  0.83740  0.17480  Biso   1.000  C
  H200     1.0000 0.19490  0.80800  0.16280  Biso   1.000  H
  N126     1.0000 0.14817  0.26893  0.26183  Biso   1.000  N
  C301     1.0000 0.10207  0.22993  0.27613  Biso   1.000  C
  C302     1.0000 0.08407  0.18243  0.23753  Biso   1.000  C
  H201     1.0000 0.05177  0.15583  0.24853  Biso   1.000  H
  C303     1.0000 0.11557  0.17673  0.18363  Biso   1.000  C
  H202     1.0000 0.10617  0.14583  0.15873  Biso   1.000  H
  C304     1.0000 0.16277  0.21943  0.16753  Biso   1.000  C
  H203     1.0000 0.18387  0.21733  0.12783  Biso   1.000  H
  C305     1.0000 0.17877  0.26433  0.20833  Biso   1.000  C
  H204     1.0000 0.21097  0.29153  0.19863  Biso   1.000  H
  N127     1.0000 0.09677  0.28793  0.37643  Biso   1.000  N
  N128     1.0000 0.06177  0.28666  0.42833  Biso   1.000  N
  N129     1.0000 0.02627  0.20953  0.36303  Biso   1.000  N
  C306     1.0000 0.02257  0.24123  0.42023  Biso   1.000  C
  C307     1.0000 0.07507  0.24093  0.33803  Biso   1.000  C
  N130     1.0000 0.89153  0.19629  0.57403  Biso   1.000  N
  C308     1.0000 0.93397  0.23913  0.58573  Biso   1.000  C
  H205     1.0000 0.93607  0.25903  0.63143  Biso   1.000  H
  C309     1.0000 0.97537  0.25623  0.53463  Biso   1.000  C
  H206     1.0000 0.00317  0.28823  0.54153  Biso   1.000  H
  C310     1.0000 0.97457  0.22453  0.47283  Biso   1.000  C
  C311     1.0000 0.93117  0.18253  0.45523  Biso   1.000  C
  H207     1.0000 0.92797  0.16243  0.40943  Biso   1.000  H
  C312     1.0000 0.89167  0.17073  0.50813  Biso   1.000  C
  H208     1.0000 0.86157  0.14133  0.49613  Biso   1.000  H
  N131     1.0000 0.81483  0.60227  0.59517  Biso   1.000  N
  C313     1.0000 0.76873  0.56327  0.60947  Biso   1.000  C
  C314     1.0000 0.75073  0.51577  0.57087  Biso   1.000  C
  H209     1.0000 0.71843  0.48917  0.58187  Biso   1.000  H
  C315     1.0000 0.78223  0.51007  0.51697  Biso   1.000  C
  H210     1.0000 0.77283  0.47917  0.49207  Biso   1.000  H
  C316     1.0000 0.82943  0.55277  0.50087  Biso   1.000  C
  H211     1.0000 0.85053  0.55067  0.46117  Biso   1.000  H
  C317     1.0000 0.84543  0.59767  0.54167  Biso   1.000  C
  H212     1.0000 0.87763  0.62487  0.53197  Biso   1.000  H
  N132     1.0000 0.76343  0.62127  0.70977  Biso   1.000  N
  N133     1.0000 0.72843  0.62000  0.76167  Biso   1.000  N
  N134     1.0000 0.69293  0.54287  0.69637  Biso   1.000  N
  C318     1.0000 0.68923  0.57457  0.75357  Biso   1.000  C
  C319     1.0000 0.74173  0.57427  0.67137  Biso   1.000  C
  N135     1.0000 0.55819  0.52963  0.90737  Biso   1.000  N
  C320     1.0000 0.60063  0.57247  0.91907  Biso   1.000  C
  H213     1.0000 0.60273  0.59237  0.96477  Biso   1.000  H
  C321     1.0000 0.64203  0.58957  0.86797  Biso   1.000  C
  H214     1.0000 0.66983  0.62157  0.87487  Biso   1.000  H
  C322     1.0000 0.64123  0.55787  0.80617  Biso   1.000  C
  C323     1.0000 0.59783  0.51587  0.78857  Biso   1.000  C
  H215     1.0000 0.59463  0.49577  0.74277  Biso   1.000  H
  C324     1.0000 0.55833  0.50407  0.84147  Biso   1.000  C
  H216     1.0000 0.52823  0.47467  0.82947  Biso   1.000  H
  N136     1.0000 0.54590  0.48150  0.07150  Biso   1.000  N
  C325     1.0000 0.53880  0.43540  0.05720  Biso   1.000  C
  C326     1.0000 0.56830  0.41740  0.09580  Biso   1.000  C
  H217     1.0000 0.56260  0.38510  0.08480  Biso   1.000  H
  C327     1.0000 0.60550  0.44890  0.14970  Biso   1.000  C
  H218     1.0000 0.62700  0.43950  0.17460  Biso   1.000  H
  C328     1.0000 0.61000  0.49610  0.16580  Biso   1.000  C
  H219     1.0000 0.63320  0.51720  0.20550  Biso   1.000  H
  C329     1.0000 0.58110  0.51210  0.12500  Biso   1.000  C
  H220     1.0000 0.58610  0.54430  0.13470  Biso   1.000  H
  N137     1.0000 0.47550  0.43010  0.95690  Biso   1.000  N
  N138     1.0000 0.44177  0.39510  0.90500  Biso   1.000  N
  N139     1.0000 0.48340  0.35960  0.97030  Biso   1.000  N
  C330     1.0000 0.44800  0.35590  0.91310  Biso   1.000  C
  C331     1.0000 0.50080  0.40840  0.99530  Biso   1.000  C
  N140     1.0000 0.36190  0.22486  0.75930  Biso   1.000  N
  C332     1.0000 0.36150  0.26730  0.74760  Biso   1.000  C
  H221     1.0000 0.34370  0.26940  0.70190  Biso   1.000  H
  C333     1.0000 0.38580  0.30870  0.79870  Biso   1.000  C
  H222     1.0000 0.38160  0.33650  0.79180  Biso   1.000  H
  C334     1.0000 0.41670  0.30790  0.86050  Biso   1.000  C
  C335     1.0000 0.41530  0.26450  0.87810  Biso   1.000  C
  H223     1.0000 0.43220  0.26130  0.92390  Biso   1.000  H
  C336     1.0000 0.38760  0.22500  0.82520  Biso   1.000  C
  H224     1.0000 0.38690  0.19490  0.83720  Biso   1.000  H
  N141     1.0000 0.21257  0.81483  0.40483  Biso   1.000  N
  C337     1.0000 0.20547  0.76873  0.39053  Biso   1.000  C
  C338     1.0000 0.23497  0.75073  0.42913  Biso   1.000  C
  H225     1.0000 0.22927  0.71843  0.41813  Biso   1.000  H
  C339     1.0000 0.27217  0.78223  0.48303  Biso   1.000  C
  H226     1.0000 0.29367  0.77283  0.50793  Biso   1.000  H
  C340     1.0000 0.27667  0.82943  0.49913  Biso   1.000  C
  H227     1.0000 0.29987  0.85053  0.53883  Biso   1.000  H
  C341     1.0000 0.24777  0.84543  0.45833  Biso   1.000  C
  H228     1.0000 0.25277  0.87763  0.46803  Biso   1.000  H
  N142     1.0000 0.14217  0.76343  0.29023  Biso   1.000  N
  N143     1.0000 0.10844  0.72843  0.23833  Biso   1.000  N
  N144     1.0000 0.15007  0.69293  0.30363  Biso   1.000  N
  C342     1.0000 0.11467  0.68923  0.24643  Biso   1.000  C
  C343     1.0000 0.16747  0.74173  0.32863  Biso   1.000  C
  N145     1.0000 0.02857  0.55819  0.09263  Biso   1.000  N
  C344     1.0000 0.02817  0.60063  0.08093  Biso   1.000  C
  H229     1.0000 0.01037  0.60273  0.03523  Biso   1.000  H
  C345     1.0000 0.05247  0.64203  0.13203  Biso   1.000  C
  H230     1.0000 0.04827  0.66983  0.12513  Biso   1.000  H
  C346     1.0000 0.08337  0.64123  0.19383  Biso   1.000  C
  C347     1.0000 0.08197  0.59783  0.21143  Biso   1.000  C
  H231     1.0000 0.09887  0.59463  0.25723  Biso   1.000  H
  C348     1.0000 0.05427  0.55833  0.15853  Biso   1.000  C
  H232     1.0000 0.05357  0.52823  0.17053  Biso   1.000  H
  N146     1.0000 0.87923  0.14817  0.73817  Biso   1.000  N
  C349     1.0000 0.87213  0.10207  0.72387  Biso   1.000  C
  C350     1.0000 0.90163  0.08407  0.76247  Biso   1.000  C
  H233     1.0000 0.89593  0.05177  0.75147  Biso   1.000  H
  C351     1.0000 0.93883  0.11557  0.81637  Biso   1.000  C
  H234     1.0000 0.96033  0.10617  0.84127  Biso   1.000  H
  C352     1.0000 0.94333  0.16277  0.83247  Biso   1.000  C
  H235     1.0000 0.96653  0.18387  0.87217  Biso   1.000  H
  C353     1.0000 0.91443  0.17877  0.79167  Biso   1.000  C
  H236     1.0000 0.91943  0.21097  0.80137  Biso   1.000  H
  N147     1.0000 0.80883  0.09677  0.62357  Biso   1.000  N
  N148     1.0000 0.77510  0.06177  0.57167  Biso   1.000  N
  N149     1.0000 0.81673  0.02627  0.63697  Biso   1.000  N
  C354     1.0000 0.78133  0.02257  0.57977  Biso   1.000  C
  C355     1.0000 0.83413  0.07507  0.66197  Biso   1.000  C
  N150     1.0000 0.69523  0.89153  0.42597  Biso   1.000  N
  C356     1.0000 0.69483  0.93397  0.41427  Biso   1.000  C
  H237     1.0000 0.67703  0.93607  0.36857  Biso   1.000  H
  C357     1.0000 0.71913  0.97537  0.46537  Biso   1.000  C
  H238     1.0000 0.71493  0.00317  0.45847  Biso   1.000  H
  C358     1.0000 0.75003  0.97457  0.52717  Biso   1.000  C
  C359     1.0000 0.74863  0.93117  0.54477  Biso   1.000  C
  H239     1.0000 0.76553  0.92797  0.59057  Biso   1.000  H
  C360     1.0000 0.72093  0.89167  0.49187  Biso   1.000  C
  H240     1.0000 0.72023  0.86157  0.50387  Biso   1.000  H
  N151     1.0000 0.93560  0.45410  0.07150  Biso   1.000  N
  C361     1.0000 0.89660  0.46120  0.05720  Biso   1.000  C
  C362     1.0000 0.84910  0.43170  0.09580  Biso   1.000  C
  H241     1.0000 0.82250  0.43740  0.08480  Biso   1.000  H
  C363     1.0000 0.84340  0.39450  0.14970  Biso   1.000  C
  H242     1.0000 0.81250  0.37300  0.17460  Biso   1.000  H
  C364     1.0000 0.88610  0.39000  0.16580  Biso   1.000  C
  H243     1.0000 0.88400  0.36680  0.20550  Biso   1.000  H
  C365     1.0000 0.93100  0.41890  0.12500  Biso   1.000  C
  H244     1.0000 0.95820  0.41390  0.13470  Biso   1.000  H
  N152     1.0000 0.95460  0.52450  0.95690  Biso   1.000  N
  N153     1.0000 0.95333  0.55823  0.90500  Biso   1.000  N
  N154     1.0000 0.87620  0.51660  0.97030  Biso   1.000  N
  C366     1.0000 0.90790  0.55200  0.91310  Biso   1.000  C
  C367     1.0000 0.90760  0.49920  0.99530  Biso   1.000  C
  N155     1.0000 0.86296  0.63810  0.75930  Biso   1.000  N
  C368     1.0000 0.90580  0.63850  0.74760  Biso   1.000  C
  H245     1.0000 0.92570  0.65630  0.70190  Biso   1.000  H
  C369     1.0000 0.92290  0.61420  0.79870  Biso   1.000  C
  H246     1.0000 0.95490  0.61840  0.79180  Biso   1.000  H
  C370     1.0000 0.89120  0.58330  0.86050  Biso   1.000  C
  C371     1.0000 0.84920  0.58470  0.87810  Biso   1.000  C
  H247     1.0000 0.82910  0.56780  0.92390  Biso   1.000  H
  C372     1.0000 0.83740  0.61240  0.82520  Biso   1.000  C
  H248     1.0000 0.80800  0.61310  0.83720  Biso   1.000  H
  N156     1.0000 0.60227  0.78743  0.40483  Biso   1.000  N
  C373     1.0000 0.56327  0.79453  0.39053  Biso   1.000  C
  C374     1.0000 0.51577  0.76503  0.42913  Biso   1.000  C
  H249     1.0000 0.48917  0.77073  0.41813  Biso   1.000  H
  C375     1.0000 0.51007  0.72783  0.48303  Biso   1.000  C
  H250     1.0000 0.47917  0.70633  0.50793  Biso   1.000  H
  C376     1.0000 0.55277  0.72333  0.49913  Biso   1.000  C
  H251     1.0000 0.55067  0.70013  0.53883  Biso   1.000  H
  C377     1.0000 0.59767  0.75223  0.45833  Biso   1.000  C
  H252     1.0000 0.62487  0.74723  0.46803  Biso   1.000  H
  N157     1.0000 0.62127  0.85783  0.29023  Biso   1.000  N
  N158     1.0000 0.62000  0.89156  0.23833  Biso   1.000  N
  N159     1.0000 0.54287  0.84993  0.30363  Biso   1.000  N
  C378     1.0000 0.57457  0.88533  0.24643  Biso   1.000  C
  C379     1.0000 0.57427  0.83253  0.32863  Biso   1.000  C
  N160     1.0000 0.52963  0.97143  0.09263  Biso   1.000  N
  C380     1.0000 0.57247  0.97183  0.08093  Biso   1.000  C
  H253     1.0000 0.59237  0.98963  0.03523  Biso   1.000  H
  C381     1.0000 0.58957  0.94753  0.13203  Biso   1.000  C
  H254     1.0000 0.62157  0.95173  0.12513  Biso   1.000  H
  C382     1.0000 0.55787  0.91663  0.19383  Biso   1.000  C
  C383     1.0000 0.51587  0.91803  0.21143  Biso   1.000  C
  H255     1.0000 0.49577  0.90113  0.25723  Biso   1.000  H
  C384     1.0000 0.50407  0.94573  0.15853  Biso   1.000  C
  H256     1.0000 0.47467  0.94643  0.17053  Biso   1.000  H
  N161     1.0000 0.26893  0.12077  0.73817  Biso   1.000  N
  C385     1.0000 0.22993  0.12787  0.72387  Biso   1.000  C
  C386     1.0000 0.18243  0.09837  0.76247  Biso   1.000  C
  H257     1.0000 0.15583  0.10407  0.75147  Biso   1.000  H
  C387     1.0000 0.17673  0.06117  0.81637  Biso   1.000  C
  H258     1.0000 0.14583  0.03967  0.84127  Biso   1.000  H
  C388     1.0000 0.21943  0.05667  0.83247  Biso   1.000  C
  H259     1.0000 0.21733  0.03347  0.87217  Biso   1.000  H
  C389     1.0000 0.26433  0.08557  0.79167  Biso   1.000  C
  H260     1.0000 0.29153  0.08057  0.80137  Biso   1.000  H
  N162     1.0000 0.28793  0.19117  0.62357  Biso   1.000  N
  N163     1.0000 0.28666  0.22490  0.57167  Biso   1.000  N
  N164     1.0000 0.20953  0.18327  0.63697  Biso   1.000  N
  C390     1.0000 0.24123  0.21867  0.57977  Biso   1.000  C
  C391     1.0000 0.24093  0.16587  0.66197  Biso   1.000  C
  N165     1.0000 0.19629  0.30477  0.42597  Biso   1.000  N
  C392     1.0000 0.23913  0.30517  0.41427  Biso   1.000  C
  H261     1.0000 0.25903  0.32297  0.36857  Biso   1.000  H
  C393     1.0000 0.25623  0.28087  0.46537  Biso   1.000  C
  H262     1.0000 0.28823  0.28507  0.45847  Biso   1.000  H
  C394     1.0000 0.22453  0.24997  0.52717  Biso   1.000  C
  C395     1.0000 0.18253  0.25137  0.54477  Biso   1.000  C
  H263     1.0000 0.16243  0.23447  0.59057  Biso   1.000  H
  C396     1.0000 0.17073  0.27907  0.49187  Biso   1.000  C
  H264     1.0000 0.14133  0.27977  0.50387  Biso   1.000  H
  N166     1.0000 0.51850  0.06440  0.07150  Biso   1.000  N
  C397     1.0000 0.56460  0.10340  0.05720  Biso   1.000  C
  C398     1.0000 0.58260  0.15090  0.09580  Biso   1.000  C
  H265     1.0000 0.61490  0.17750  0.08480  Biso   1.000  H
  C399     1.0000 0.55110  0.15660  0.14970  Biso   1.000  C
  H266     1.0000 0.56050  0.18750  0.17460  Biso   1.000  H
  C400     1.0000 0.50390  0.11390  0.16580  Biso   1.000  C
  H267     1.0000 0.48280  0.11600  0.20550  Biso   1.000  H
  C401     1.0000 0.48790  0.06900  0.12500  Biso   1.000  C
  H268     1.0000 0.45570  0.04180  0.13470  Biso   1.000  H
  N167     1.0000 0.56990  0.04540  0.95690  Biso   1.000  N
  N168     1.0000 0.60490  0.04667  0.90500  Biso   1.000  N
  N169     1.0000 0.64040  0.12380  0.97030  Biso   1.000  N
  C402     1.0000 0.64410  0.09210  0.91310  Biso   1.000  C
  C403     1.0000 0.59160  0.09240  0.99530  Biso   1.000  C
  N170     1.0000 0.77514  0.13704  0.75930  Biso   1.000  N
  C404     1.0000 0.73270  0.09420  0.74760  Biso   1.000  C
  H269     1.0000 0.73060  0.07430  0.70190  Biso   1.000  H
  C405     1.0000 0.69130  0.07710  0.79870  Biso   1.000  C
  H270     1.0000 0.66350  0.04510  0.79180  Biso   1.000  H
  C406     1.0000 0.69210  0.10880  0.86050  Biso   1.000  C
  C407     1.0000 0.73550  0.15080  0.87810  Biso   1.000  C
  H271     1.0000 0.73870  0.17090  0.92390  Biso   1.000  H
  C408     1.0000 0.77500  0.16260  0.82520  Biso   1.000  C
  H272     1.0000 0.80510  0.19200  0.83720  Biso   1.000  H
  N171     1.0000 0.18517  0.39773  0.40483  Biso   1.000  N
  C409     1.0000 0.23127  0.43673  0.39053  Biso   1.000  C
  C410     1.0000 0.24927  0.48423  0.42913  Biso   1.000  C
  H273     1.0000 0.28157  0.51083  0.41813  Biso   1.000  H
  C411     1.0000 0.21777  0.48993  0.48303  Biso   1.000  C
  H274     1.0000 0.22717  0.52083  0.50793  Biso   1.000  H
  C412     1.0000 0.17057  0.44723  0.49913  Biso   1.000  C
  H275     1.0000 0.14947  0.44933  0.53883  Biso   1.000  H
  C413     1.0000 0.15457  0.40233  0.45833  Biso   1.000  C
  H276     1.0000 0.12237  0.37513  0.46803  Biso   1.000  H
  N172     1.0000 0.23657  0.37873  0.29023  Biso   1.000  N
  N173     1.0000 0.27157  0.38000  0.23833  Biso   1.000  N
  N174     1.0000 0.30707  0.45713  0.30363  Biso   1.000  N
  C414     1.0000 0.31077  0.42543  0.24643  Biso   1.000  C
  C415     1.0000 0.25827  0.42573  0.32863  Biso   1.000  C
  N175     1.0000 0.44181  0.47037  0.09263  Biso   1.000  N
  C416     1.0000 0.39937  0.42753  0.08093  Biso   1.000  C
  H277     1.0000 0.39727  0.40763  0.03523  Biso   1.000  H
  C417     1.0000 0.35797  0.41043  0.13203  Biso   1.000  C
  H278     1.0000 0.33017  0.37843  0.12513  Biso   1.000  H
  C418     1.0000 0.35877  0.44213  0.19383  Biso   1.000  C
  C419     1.0000 0.40217  0.48413  0.21143  Biso   1.000  C
  H279     1.0000 0.40537  0.50423  0.25723  Biso   1.000  H
  C420     1.0000 0.44167  0.49593  0.15853  Biso   1.000  C
  H280     1.0000 0.47177  0.52533  0.17053  Biso   1.000  H
  N176     1.0000 0.85183  0.73107  0.73817  Biso   1.000  N
  C421     1.0000 0.89793  0.77007  0.72387  Biso   1.000  C
  C422     1.0000 0.91593  0.81757  0.76247  Biso   1.000  C
  H281     1.0000 0.94823  0.84417  0.75147  Biso   1.000  H
  C423     1.0000 0.88443  0.82327  0.81637  Biso   1.000  C
  H282     1.0000 0.89383  0.85417  0.84127  Biso   1.000  H
  C424     1.0000 0.83723  0.78057  0.83247  Biso   1.000  C
  H283     1.0000 0.81613  0.78267  0.87217  Biso   1.000  H
  C425     1.0000 0.82123  0.73567  0.79167  Biso   1.000  C
  H284     1.0000 0.78903  0.70847  0.80137  Biso   1.000  H
  N177     1.0000 0.90323  0.71207  0.62357  Biso   1.000  N
  N178     1.0000 0.93823  0.71334  0.57167  Biso   1.000  N
  N179     1.0000 0.97373  0.79047  0.63697  Biso   1.000  N
  C426     1.0000 0.97743  0.75877  0.57977  Biso   1.000  C
  C427     1.0000 0.92493  0.75907  0.66197  Biso   1.000  C
  N180     1.0000 0.10847  0.80371  0.42597  Biso   1.000  N
  C428     1.0000 0.06603  0.76087  0.41427  Biso   1.000  C
  H285     1.0000 0.06393  0.74097  0.36857  Biso   1.000  H
  C429     1.0000 0.02463  0.74377  0.46537  Biso   1.000  C
  H286     1.0000 0.99683  0.71177  0.45847  Biso   1.000  H
  C430     1.0000 0.02543  0.77547  0.52717  Biso   1.000  C
  C431     1.0000 0.06883  0.81747  0.54477  Biso   1.000  C
  H287     1.0000 0.07203  0.83757  0.59057  Biso   1.000  H
  C432     1.0000 0.10833  0.82927  0.49187  Biso   1.000  C
  H288     1.0000 0.13843  0.85867  0.50387  Biso   1.000  H
  Ni10     1.0000 0.50000  0.50000  0.00000  Biso   1.000  Ni
  Ni11     1.0000 0.16667  0.83333  0.33333  Biso   1.000  Ni
  Ni12     1.0000 0.83333  0.16667  0.66667  Biso   1.000  Ni
  Ni13     1.0000 0.00000  0.50000  0.00000  Biso   1.000  Ni
  Ni14     1.0000 0.66667  0.83333  0.33333  Biso   1.000  Ni
  Ni15     1.0000 0.33333  0.16667  0.66667  Biso   1.000  Ni
  Ni16     1.0000 0.50000  0.00000  0.00000  Biso   1.000  Ni
  Ni17     1.0000 0.16667  0.33333  0.33333  Biso   1.000  Ni
  Ni18     1.0000 0.83333  0.66667  0.66667  Biso   1.000  Ni
