data_image0
_cell_length_a       41.393
_cell_length_b       41.393
_cell_length_c       41.393
_cell_angle_alpha    90
_cell_angle_beta     90
_cell_angle_gamma    90

_symmetry_space_group_name_H-M    "P 1"
_symmetry_int_tables_number       1

loop_
  _symmetry_equiv_pos_as_xyz
  'x, y, z'

loop_
  _atom_site_label
  _atom_site_occupancy
  _atom_site_fract_x
  _atom_site_fract_y
  _atom_site_fract_z
  _atom_site_thermal_displace_type
  _atom_site_B_iso_or_equiv
  _atom_site_type_symbol
  Zn1      1.0000 0.70388  0.87758  0.03351  Biso   1.000  Zn
  O1       1.0000 0.72674  0.90817  0.00606  Biso   1.000  O
  N1       1.0000 0.68106  0.84918  0.00189  Biso   1.000  N
  N2       1.0000 0.67317  0.90260  0.06070  Biso   1.000  N
  N3       1.0000 0.65382  0.81164  0.97630  Biso   1.000  N
  C1       1.0000 0.75900  0.95477  0.99873  Biso   1.000  C
  O2       1.0000 0.75635  0.92434  0.04767  Biso   1.000  O
  C2       1.0000 0.74759  0.92656  0.01950  Biso   1.000  C
  C3       1.0000 0.65396  0.83275  0.00086  Biso   1.000  C
  C4       1.0000 0.67400  0.92797  0.08100  Biso   1.000  C
  N4       1.0000 0.69910  0.83800  0.97700  Biso   1.000  N
  N5       1.0000 0.69870  0.94870  0.08310  Biso   1.000  N
  H1       1.0000 0.69640  0.96640  0.09370  Biso   1.000  H
  H2       1.0000 0.71680  0.94430  0.07390  Biso   1.000  H
  N6       1.0000 0.63010  0.83450  0.02360  Biso   1.000  N
  H3       1.0000 0.63230  0.84700  0.04000  Biso   1.000  H
  H4       1.0000 0.61290  0.82300  0.02150  Biso   1.000  H
  N7       1.0000 0.64616  0.93327  0.09430  Biso   1.000  N
  N8       1.0000 0.62670  0.90920  0.08290  Biso   1.000  N
  N9       1.0000 0.68260  0.81700  0.96150  Biso   1.000  N
  C5       1.0000 0.78604  0.97221  0.00857  Biso   1.000  C
  H5       1.0000 0.79770  0.96600  0.02680  Biso   1.000  H
  O3       1.0000 0.60260  0.99220  0.09640  Biso   1.000  O
  N10      1.0000 0.64300  0.89080  0.06490  Biso   1.000  N
  C6       1.0000 0.58960  0.04350  0.05670  Biso   1.000  C
  H6       1.0000 0.60760  0.03070  0.05250  Biso   1.000  H
  O4       1.0000 0.56050  0.00310  0.12790  Biso   1.000  O
  C7       1.0000 0.56990  0.03700  0.08220  Biso   1.000  C
  C8       1.0000 0.57750  0.00850  0.10390  Biso   1.000  C
  Zn2      1.0000 0.70388  0.37758  0.53351  Biso   1.000  Zn
  O5       1.0000 0.72674  0.40817  0.50606  Biso   1.000  O
  N11      1.0000 0.68106  0.34918  0.50189  Biso   1.000  N
  N12      1.0000 0.67317  0.40260  0.56070  Biso   1.000  N
  N13      1.0000 0.65382  0.31164  0.47630  Biso   1.000  N
  C9       1.0000 0.75900  0.45477  0.49873  Biso   1.000  C
  O6       1.0000 0.75635  0.42434  0.54767  Biso   1.000  O
  C10      1.0000 0.74759  0.42656  0.51950  Biso   1.000  C
  C11      1.0000 0.65396  0.33275  0.50086  Biso   1.000  C
  C12      1.0000 0.67400  0.42797  0.58100  Biso   1.000  C
  N14      1.0000 0.69910  0.33800  0.47700  Biso   1.000  N
  N15      1.0000 0.69870  0.44870  0.58310  Biso   1.000  N
  H7       1.0000 0.69640  0.46640  0.59370  Biso   1.000  H
  H8       1.0000 0.71680  0.44430  0.57390  Biso   1.000  H
  N16      1.0000 0.63010  0.33450  0.52360  Biso   1.000  N
  H9       1.0000 0.63230  0.34700  0.54000  Biso   1.000  H
  H10      1.0000 0.61290  0.32300  0.52150  Biso   1.000  H
  N17      1.0000 0.64616  0.43327  0.59430  Biso   1.000  N
  N18      1.0000 0.62670  0.40920  0.58290  Biso   1.000  N
  N19      1.0000 0.68260  0.31700  0.46150  Biso   1.000  N
  C13      1.0000 0.78604  0.47221  0.50857  Biso   1.000  C
  H11      1.0000 0.79770  0.46600  0.52680  Biso   1.000  H
  O7       1.0000 0.60260  0.49220  0.59640  Biso   1.000  O
  N20      1.0000 0.64300  0.39080  0.56490  Biso   1.000  N
  C14      1.0000 0.58960  0.54350  0.55670  Biso   1.000  C
  H12      1.0000 0.60760  0.53070  0.55250  Biso   1.000  H
  O8       1.0000 0.56050  0.50310  0.62790  Biso   1.000  O
  C15      1.0000 0.56990  0.53700  0.58220  Biso   1.000  C
  C16      1.0000 0.57750  0.50850  0.60390  Biso   1.000  C
  Zn3      1.0000 0.20388  0.87758  0.53351  Biso   1.000  Zn
  O9       1.0000 0.22674  0.90817  0.50606  Biso   1.000  O
  N21      1.0000 0.18106  0.84918  0.50189  Biso   1.000  N
  N22      1.0000 0.17317  0.90260  0.56070  Biso   1.000  N
  N23      1.0000 0.15382  0.81164  0.47630  Biso   1.000  N
  C17      1.0000 0.25900  0.95477  0.49873  Biso   1.000  C
  O10      1.0000 0.25635  0.92434  0.54767  Biso   1.000  O
  C18      1.0000 0.24759  0.92656  0.51950  Biso   1.000  C
  C19      1.0000 0.15396  0.83275  0.50086  Biso   1.000  C
  C20      1.0000 0.17400  0.92797  0.58100  Biso   1.000  C
  N24      1.0000 0.19910  0.83800  0.47700  Biso   1.000  N
  N25      1.0000 0.19870  0.94870  0.58310  Biso   1.000  N
  H13      1.0000 0.19640  0.96640  0.59370  Biso   1.000  H
  H14      1.0000 0.21680  0.94430  0.57390  Biso   1.000  H
  N26      1.0000 0.13010  0.83450  0.52360  Biso   1.000  N
  H15      1.0000 0.13230  0.84700  0.54000  Biso   1.000  H
  H16      1.0000 0.11290  0.82300  0.52150  Biso   1.000  H
  N27      1.0000 0.14616  0.93327  0.59430  Biso   1.000  N
  N28      1.0000 0.12670  0.90920  0.58290  Biso   1.000  N
  N29      1.0000 0.18260  0.81700  0.46150  Biso   1.000  N
  C21      1.0000 0.28604  0.97221  0.50857  Biso   1.000  C
  H17      1.0000 0.29770  0.96600  0.52680  Biso   1.000  H
  O11      1.0000 0.10260  0.99220  0.59640  Biso   1.000  O
  N30      1.0000 0.14300  0.89080  0.56490  Biso   1.000  N
  C22      1.0000 0.08960  0.04350  0.55670  Biso   1.000  C
  H18      1.0000 0.10760  0.03070  0.55250  Biso   1.000  H
  O12      1.0000 0.06050  0.00310  0.62790  Biso   1.000  O
  C23      1.0000 0.06990  0.03700  0.58220  Biso   1.000  C
  C24      1.0000 0.07750  0.00850  0.60390  Biso   1.000  C
  Zn4      1.0000 0.20388  0.37758  0.03351  Biso   1.000  Zn
  O13      1.0000 0.22674  0.40817  0.00606  Biso   1.000  O
  N31      1.0000 0.18106  0.34918  0.00189  Biso   1.000  N
  N32      1.0000 0.17317  0.40260  0.06070  Biso   1.000  N
  N33      1.0000 0.15382  0.31164  0.97630  Biso   1.000  N
  C25      1.0000 0.25900  0.45477  0.99873  Biso   1.000  C
  O14      1.0000 0.25635  0.42434  0.04767  Biso   1.000  O
  C26      1.0000 0.24759  0.42656  0.01950  Biso   1.000  C
  C27      1.0000 0.15396  0.33275  0.00086  Biso   1.000  C
  C28      1.0000 0.17400  0.42797  0.08100  Biso   1.000  C
  N34      1.0000 0.19910  0.33800  0.97700  Biso   1.000  N
  N35      1.0000 0.19870  0.44870  0.08310  Biso   1.000  N
  H19      1.0000 0.19640  0.46640  0.09370  Biso   1.000  H
  H20      1.0000 0.21680  0.44430  0.07390  Biso   1.000  H
  N36      1.0000 0.13010  0.33450  0.02360  Biso   1.000  N
  H21      1.0000 0.13230  0.34700  0.04000  Biso   1.000  H
  H22      1.0000 0.11290  0.32300  0.02150  Biso   1.000  H
  N37      1.0000 0.14616  0.43327  0.09430  Biso   1.000  N
  N38      1.0000 0.12670  0.40920  0.08290  Biso   1.000  N
  N39      1.0000 0.18260  0.31700  0.96150  Biso   1.000  N
  C29      1.0000 0.28604  0.47221  0.00857  Biso   1.000  C
  H23      1.0000 0.29770  0.46600  0.02680  Biso   1.000  H
  O15      1.0000 0.10260  0.49220  0.09640  Biso   1.000  O
  N40      1.0000 0.14300  0.39080  0.06490  Biso   1.000  N
  C30      1.0000 0.08960  0.54350  0.05670  Biso   1.000  C
  H24      1.0000 0.10760  0.53070  0.05250  Biso   1.000  H
  O16      1.0000 0.06050  0.50310  0.12790  Biso   1.000  O
  C31      1.0000 0.06990  0.53700  0.08220  Biso   1.000  C
  C32      1.0000 0.07750  0.50850  0.10390  Biso   1.000  C
  Zn5      1.0000 0.54612  0.37242  0.03351  Biso   1.000  Zn
  O17      1.0000 0.52326  0.34183  0.00606  Biso   1.000  O
  N41      1.0000 0.56894  0.40082  0.00189  Biso   1.000  N
  N42      1.0000 0.57683  0.34740  0.06070  Biso   1.000  N
  N43      1.0000 0.59618  0.43836  0.97630  Biso   1.000  N
  C33      1.0000 0.49100  0.29523  0.99873  Biso   1.000  C
  O18      1.0000 0.49365  0.32566  0.04767  Biso   1.000  O
  C34      1.0000 0.50241  0.32344  0.01950  Biso   1.000  C
  C35      1.0000 0.59604  0.41725  0.00086  Biso   1.000  C
  C36      1.0000 0.57600  0.32203  0.08100  Biso   1.000  C
  N44      1.0000 0.55090  0.41200  0.97700  Biso   1.000  N
  N45      1.0000 0.55130  0.30130  0.08310  Biso   1.000  N
  H25      1.0000 0.55360  0.28360  0.09370  Biso   1.000  H
  H26      1.0000 0.53320  0.30570  0.07390  Biso   1.000  H
  N46      1.0000 0.61990  0.41550  0.02360  Biso   1.000  N
  H27      1.0000 0.61770  0.40300  0.04000  Biso   1.000  H
  H28      1.0000 0.63710  0.42700  0.02150  Biso   1.000  H
  N47      1.0000 0.60384  0.31673  0.09430  Biso   1.000  N
  N48      1.0000 0.62330  0.34080  0.08290  Biso   1.000  N
  N49      1.0000 0.56740  0.43300  0.96150  Biso   1.000  N
  C37      1.0000 0.46396  0.27779  0.00857  Biso   1.000  C
  H29      1.0000 0.45230  0.28400  0.02680  Biso   1.000  H
  O19      1.0000 0.64740  0.25780  0.09640  Biso   1.000  O
  N50      1.0000 0.60700  0.35920  0.06490  Biso   1.000  N
  C38      1.0000 0.66040  0.20650  0.05670  Biso   1.000  C
  H30      1.0000 0.64240  0.21930  0.05250  Biso   1.000  H
  O20      1.0000 0.68950  0.24690  0.12790  Biso   1.000  O
  C39      1.0000 0.68010  0.21300  0.08220  Biso   1.000  C
  C40      1.0000 0.67250  0.24150  0.10390  Biso   1.000  C
  Zn6      1.0000 0.54612  0.87242  0.53351  Biso   1.000  Zn
  O21      1.0000 0.52326  0.84183  0.50606  Biso   1.000  O
  N51      1.0000 0.56894  0.90082  0.50189  Biso   1.000  N
  N52      1.0000 0.57683  0.84740  0.56070  Biso   1.000  N
  N53      1.0000 0.59618  0.93836  0.47630  Biso   1.000  N
  C41      1.0000 0.49100  0.79523  0.49873  Biso   1.000  C
  O22      1.0000 0.49365  0.82566  0.54767  Biso   1.000  O
  C42      1.0000 0.50241  0.82344  0.51950  Biso   1.000  C
  C43      1.0000 0.59604  0.91725  0.50086  Biso   1.000  C
  C44      1.0000 0.57600  0.82203  0.58100  Biso   1.000  C
  N54      1.0000 0.55090  0.91200  0.47700  Biso   1.000  N
  N55      1.0000 0.55130  0.80130  0.58310  Biso   1.000  N
  H31      1.0000 0.55360  0.78360  0.59370  Biso   1.000  H
  H32      1.0000 0.53320  0.80570  0.57390  Biso   1.000  H
  N56      1.0000 0.61990  0.91550  0.52360  Biso   1.000  N
  H33      1.0000 0.61770  0.90300  0.54000  Biso   1.000  H
  H34      1.0000 0.63710  0.92700  0.52150  Biso   1.000  H
  N57      1.0000 0.60384  0.81673  0.59430  Biso   1.000  N
  N58      1.0000 0.62330  0.84080  0.58290  Biso   1.000  N
  N59      1.0000 0.56740  0.93300  0.46150  Biso   1.000  N
  C45      1.0000 0.46396  0.77779  0.50857  Biso   1.000  C
  H35      1.0000 0.45230  0.78400  0.52680  Biso   1.000  H
  O23      1.0000 0.64740  0.75780  0.59640  Biso   1.000  O
  N60      1.0000 0.60700  0.85920  0.56490  Biso   1.000  N
  C46      1.0000 0.66040  0.70650  0.55670  Biso   1.000  C
  H36      1.0000 0.64240  0.71930  0.55250  Biso   1.000  H
  O24      1.0000 0.68950  0.74690  0.62790  Biso   1.000  O
  C47      1.0000 0.68010  0.71300  0.58220  Biso   1.000  C
  C48      1.0000 0.67250  0.74150  0.60390  Biso   1.000  C
  Zn7      1.0000 0.04612  0.37242  0.53351  Biso   1.000  Zn
  O25      1.0000 0.02326  0.34183  0.50606  Biso   1.000  O
  N61      1.0000 0.06894  0.40082  0.50189  Biso   1.000  N
  N62      1.0000 0.07683  0.34740  0.56070  Biso   1.000  N
  N63      1.0000 0.09618  0.43836  0.47630  Biso   1.000  N
  C49      1.0000 0.99100  0.29523  0.49873  Biso   1.000  C
  O26      1.0000 0.99365  0.32566  0.54767  Biso   1.000  O
  C50      1.0000 0.00241  0.32344  0.51950  Biso   1.000  C
  C51      1.0000 0.09604  0.41725  0.50086  Biso   1.000  C
  C52      1.0000 0.07600  0.32203  0.58100  Biso   1.000  C
  N64      1.0000 0.05090  0.41200  0.47700  Biso   1.000  N
  N65      1.0000 0.05130  0.30130  0.58310  Biso   1.000  N
  H37      1.0000 0.05360  0.28360  0.59370  Biso   1.000  H
  H38      1.0000 0.03320  0.30570  0.57390  Biso   1.000  H
  N66      1.0000 0.11990  0.41550  0.52360  Biso   1.000  N
  H39      1.0000 0.11770  0.40300  0.54000  Biso   1.000  H
  H40      1.0000 0.13710  0.42700  0.52150  Biso   1.000  H
  N67      1.0000 0.10384  0.31673  0.59430  Biso   1.000  N
  N68      1.0000 0.12330  0.34080  0.58290  Biso   1.000  N
  N69      1.0000 0.06740  0.43300  0.46150  Biso   1.000  N
  C53      1.0000 0.96396  0.27779  0.50857  Biso   1.000  C
  H41      1.0000 0.95230  0.28400  0.52680  Biso   1.000  H
  O27      1.0000 0.14740  0.25780  0.59640  Biso   1.000  O
  N70      1.0000 0.10700  0.35920  0.56490  Biso   1.000  N
  C54      1.0000 0.16040  0.20650  0.55670  Biso   1.000  C
  H42      1.0000 0.14240  0.21930  0.55250  Biso   1.000  H
  O28      1.0000 0.18950  0.24690  0.62790  Biso   1.000  O
  C55      1.0000 0.18010  0.21300  0.58220  Biso   1.000  C
  C56      1.0000 0.17250  0.24150  0.60390  Biso   1.000  C
  Zn8      1.0000 0.04612  0.87242  0.03351  Biso   1.000  Zn
  O29      1.0000 0.02326  0.84183  0.00606  Biso   1.000  O
  N71      1.0000 0.06894  0.90082  0.00189  Biso   1.000  N
  N72      1.0000 0.07683  0.84740  0.06070  Biso   1.000  N
  N73      1.0000 0.09618  0.93836  0.97630  Biso   1.000  N
  C57      1.0000 0.99100  0.79523  0.99873  Biso   1.000  C
  O30      1.0000 0.99365  0.82566  0.04767  Biso   1.000  O
  C58      1.0000 0.00241  0.82344  0.01950  Biso   1.000  C
  C59      1.0000 0.09604  0.91725  0.00086  Biso   1.000  C
  C60      1.0000 0.07600  0.82203  0.08100  Biso   1.000  C
  N74      1.0000 0.05090  0.91200  0.97700  Biso   1.000  N
  N75      1.0000 0.05130  0.80130  0.08310  Biso   1.000  N
  H43      1.0000 0.05360  0.78360  0.09370  Biso   1.000  H
  H44      1.0000 0.03320  0.80570  0.07390  Biso   1.000  H
  N76      1.0000 0.11990  0.91550  0.02360  Biso   1.000  N
  H45      1.0000 0.11770  0.90300  0.04000  Biso   1.000  H
  H46      1.0000 0.13710  0.92700  0.02150  Biso   1.000  H
  N77      1.0000 0.10384  0.81673  0.09430  Biso   1.000  N
  N78      1.0000 0.12330  0.84080  0.08290  Biso   1.000  N
  N79      1.0000 0.06740  0.93300  0.96150  Biso   1.000  N
  C61      1.0000 0.96396  0.77779  0.00857  Biso   1.000  C
  H47      1.0000 0.95230  0.78400  0.02680  Biso   1.000  H
  O31      1.0000 0.14740  0.75780  0.09640  Biso   1.000  O
  N80      1.0000 0.10700  0.85920  0.06490  Biso   1.000  N
  C62      1.0000 0.16040  0.70650  0.05670  Biso   1.000  C
  H48      1.0000 0.14240  0.71930  0.05250  Biso   1.000  H
  O32      1.0000 0.18950  0.74690  0.12790  Biso   1.000  O
  C63      1.0000 0.18010  0.71300  0.08220  Biso   1.000  C
  C64      1.0000 0.17250  0.74150  0.10390  Biso   1.000  C
  Zn9      1.0000 0.54612  0.87758  0.21649  Biso   1.000  Zn
  O33      1.0000 0.52326  0.90817  0.24394  Biso   1.000  O
  N81      1.0000 0.56894  0.84918  0.24811  Biso   1.000  N
  N82      1.0000 0.57683  0.90260  0.18930  Biso   1.000  N
  N83      1.0000 0.59618  0.81164  0.27370  Biso   1.000  N
  C65      1.0000 0.49100  0.95477  0.25127  Biso   1.000  C
  O34      1.0000 0.49365  0.92434  0.20233  Biso   1.000  O
  C66      1.0000 0.50241  0.92656  0.23050  Biso   1.000  C
  C67      1.0000 0.59604  0.83275  0.24914  Biso   1.000  C
  C68      1.0000 0.57600  0.92797  0.16900  Biso   1.000  C
  N84      1.0000 0.55090  0.83800  0.27300  Biso   1.000  N
  N85      1.0000 0.55130  0.94870  0.16690  Biso   1.000  N
  H49      1.0000 0.55360  0.96640  0.15630  Biso   1.000  H
  H50      1.0000 0.53320  0.94430  0.17610  Biso   1.000  H
  N86      1.0000 0.61990  0.83450  0.22640  Biso   1.000  N
  H51      1.0000 0.61770  0.84700  0.21000  Biso   1.000  H
  H52      1.0000 0.63710  0.82300  0.22850  Biso   1.000  H
  N87      1.0000 0.60384  0.93327  0.15570  Biso   1.000  N
  N88      1.0000 0.62330  0.90920  0.16710  Biso   1.000  N
  N89      1.0000 0.56740  0.81700  0.28850  Biso   1.000  N
  C69      1.0000 0.46396  0.97221  0.24143  Biso   1.000  C
  H53      1.0000 0.45230  0.96600  0.22320  Biso   1.000  H
  O35      1.0000 0.64740  0.99220  0.15360  Biso   1.000  O
  N90      1.0000 0.60700  0.89080  0.18510  Biso   1.000  N
  C70      1.0000 0.66040  0.04350  0.19330  Biso   1.000  C
  H54      1.0000 0.64240  0.03070  0.19750  Biso   1.000  H
  O36      1.0000 0.68950  0.00310  0.12210  Biso   1.000  O
  C71      1.0000 0.68010  0.03700  0.16780  Biso   1.000  C
  C72      1.0000 0.67250  0.00850  0.14610  Biso   1.000  C
  Zn10     1.0000 0.54612  0.37758  0.71649  Biso   1.000  Zn
  O37      1.0000 0.52326  0.40817  0.74394  Biso   1.000  O
  N91      1.0000 0.56894  0.34918  0.74811  Biso   1.000  N
  N92      1.0000 0.57683  0.40260  0.68930  Biso   1.000  N
  N93      1.0000 0.59618  0.31164  0.77370  Biso   1.000  N
  C73      1.0000 0.49100  0.45477  0.75127  Biso   1.000  C
  O38      1.0000 0.49365  0.42434  0.70233  Biso   1.000  O
  C74      1.0000 0.50241  0.42656  0.73050  Biso   1.000  C
  C75      1.0000 0.59604  0.33275  0.74914  Biso   1.000  C
  C76      1.0000 0.57600  0.42797  0.66900  Biso   1.000  C
  N94      1.0000 0.55090  0.33800  0.77300  Biso   1.000  N
  N95      1.0000 0.55130  0.44870  0.66690  Biso   1.000  N
  H55      1.0000 0.55360  0.46640  0.65630  Biso   1.000  H
  H56      1.0000 0.53320  0.44430  0.67610  Biso   1.000  H
  N96      1.0000 0.61990  0.33450  0.72640  Biso   1.000  N
  H57      1.0000 0.61770  0.34700  0.71000  Biso   1.000  H
  H58      1.0000 0.63710  0.32300  0.72850  Biso   1.000  H
  N97      1.0000 0.60384  0.43327  0.65570  Biso   1.000  N
  N98      1.0000 0.62330  0.40920  0.66710  Biso   1.000  N
  N99      1.0000 0.56740  0.31700  0.78850  Biso   1.000  N
  C77      1.0000 0.46396  0.47221  0.74143  Biso   1.000  C
  H59      1.0000 0.45230  0.46600  0.72320  Biso   1.000  H
  O39      1.0000 0.64740  0.49220  0.65360  Biso   1.000  O
  N100     1.0000 0.60700  0.39080  0.68510  Biso   1.000  N
  C78      1.0000 0.66040  0.54350  0.69330  Biso   1.000  C
  H60      1.0000 0.64240  0.53070  0.69750  Biso   1.000  H
  O40      1.0000 0.68950  0.50310  0.62210  Biso   1.000  O
  C79      1.0000 0.68010  0.53700  0.66780  Biso   1.000  C
  C80      1.0000 0.67250  0.50850  0.64610  Biso   1.000  C
  Zn11     1.0000 0.04612  0.87758  0.71649  Biso   1.000  Zn
  O41      1.0000 0.02326  0.90817  0.74394  Biso   1.000  O
  N101     1.0000 0.06894  0.84918  0.74811  Biso   1.000  N
  N102     1.0000 0.07683  0.90260  0.68930  Biso   1.000  N
  N103     1.0000 0.09618  0.81164  0.77370  Biso   1.000  N
  C81      1.0000 0.99100  0.95477  0.75127  Biso   1.000  C
  O42      1.0000 0.99365  0.92434  0.70233  Biso   1.000  O
  C82      1.0000 0.00241  0.92656  0.73050  Biso   1.000  C
  C83      1.0000 0.09604  0.83275  0.74914  Biso   1.000  C
  C84      1.0000 0.07600  0.92797  0.66900  Biso   1.000  C
  N104     1.0000 0.05090  0.83800  0.77300  Biso   1.000  N
  N105     1.0000 0.05130  0.94870  0.66690  Biso   1.000  N
  H61      1.0000 0.05360  0.96640  0.65630  Biso   1.000  H
  H62      1.0000 0.03320  0.94430  0.67610  Biso   1.000  H
  N106     1.0000 0.11990  0.83450  0.72640  Biso   1.000  N
  H63      1.0000 0.11770  0.84700  0.71000  Biso   1.000  H
  H64      1.0000 0.13710  0.82300  0.72850  Biso   1.000  H
  N107     1.0000 0.10384  0.93327  0.65570  Biso   1.000  N
  N108     1.0000 0.12330  0.90920  0.66710  Biso   1.000  N
  N109     1.0000 0.06740  0.81700  0.78850  Biso   1.000  N
  C85      1.0000 0.96396  0.97221  0.74143  Biso   1.000  C
  H65      1.0000 0.95230  0.96600  0.72320  Biso   1.000  H
  O43      1.0000 0.14740  0.99220  0.65360  Biso   1.000  O
  N110     1.0000 0.10700  0.89080  0.68510  Biso   1.000  N
  C86      1.0000 0.16040  0.04350  0.69330  Biso   1.000  C
  H66      1.0000 0.14240  0.03070  0.69750  Biso   1.000  H
  O44      1.0000 0.18950  0.00310  0.62210  Biso   1.000  O
  C87      1.0000 0.18010  0.03700  0.66780  Biso   1.000  C
  C88      1.0000 0.17250  0.00850  0.64610  Biso   1.000  C
  Zn12     1.0000 0.04612  0.37758  0.21649  Biso   1.000  Zn
  O45      1.0000 0.02326  0.40817  0.24394  Biso   1.000  O
  N111     1.0000 0.06894  0.34918  0.24811  Biso   1.000  N
  N112     1.0000 0.07683  0.40260  0.18930  Biso   1.000  N
  N113     1.0000 0.09618  0.31164  0.27370  Biso   1.000  N
  C89      1.0000 0.99100  0.45477  0.25127  Biso   1.000  C
  O46      1.0000 0.99365  0.42434  0.20233  Biso   1.000  O
  C90      1.0000 0.00241  0.42656  0.23050  Biso   1.000  C
  C91      1.0000 0.09604  0.33275  0.24914  Biso   1.000  C
  C92      1.0000 0.07600  0.42797  0.16900  Biso   1.000  C
  N114     1.0000 0.05090  0.33800  0.27300  Biso   1.000  N
  N115     1.0000 0.05130  0.44870  0.16690  Biso   1.000  N
  H67      1.0000 0.05360  0.46640  0.15630  Biso   1.000  H
  H68      1.0000 0.03320  0.44430  0.17610  Biso   1.000  H
  N116     1.0000 0.11990  0.33450  0.22640  Biso   1.000  N
  H69      1.0000 0.11770  0.34700  0.21000  Biso   1.000  H
  H70      1.0000 0.13710  0.32300  0.22850  Biso   1.000  H
  N117     1.0000 0.10384  0.43327  0.15570  Biso   1.000  N
  N118     1.0000 0.12330  0.40920  0.16710  Biso   1.000  N
  N119     1.0000 0.06740  0.31700  0.28850  Biso   1.000  N
  C93      1.0000 0.96396  0.47221  0.24143  Biso   1.000  C
  H71      1.0000 0.95230  0.46600  0.22320  Biso   1.000  H
  O47      1.0000 0.14740  0.49220  0.15360  Biso   1.000  O
  N120     1.0000 0.10700  0.39080  0.18510  Biso   1.000  N
  C94      1.0000 0.16040  0.54350  0.19330  Biso   1.000  C
  H72      1.0000 0.14240  0.53070  0.19750  Biso   1.000  H
  O48      1.0000 0.18950  0.50310  0.12210  Biso   1.000  O
  C95      1.0000 0.18010  0.53700  0.16780  Biso   1.000  C
  C96      1.0000 0.17250  0.50850  0.14610  Biso   1.000  C
  Zn13     1.0000 0.70388  0.37242  0.21649  Biso   1.000  Zn
  O49      1.0000 0.72674  0.34183  0.24394  Biso   1.000  O
  N121     1.0000 0.68106  0.40082  0.24811  Biso   1.000  N
  N122     1.0000 0.67317  0.34740  0.18930  Biso   1.000  N
  N123     1.0000 0.65382  0.43836  0.27370  Biso   1.000  N
  C97      1.0000 0.75900  0.29523  0.25127  Biso   1.000  C
  O50      1.0000 0.75635  0.32566  0.20233  Biso   1.000  O
  C98      1.0000 0.74759  0.32344  0.23050  Biso   1.000  C
  C99      1.0000 0.65396  0.41725  0.24914  Biso   1.000  C
  C100     1.0000 0.67400  0.32203  0.16900  Biso   1.000  C
  N124     1.0000 0.69910  0.41200  0.27300  Biso   1.000  N
  N125     1.0000 0.69870  0.30130  0.16690  Biso   1.000  N
  H73      1.0000 0.69640  0.28360  0.15630  Biso   1.000  H
  H74      1.0000 0.71680  0.30570  0.17610  Biso   1.000  H
  N126     1.0000 0.63010  0.41550  0.22640  Biso   1.000  N
  H75      1.0000 0.63230  0.40300  0.21000  Biso   1.000  H
  H76      1.0000 0.61290  0.42700  0.22850  Biso   1.000  H
  N127     1.0000 0.64616  0.31673  0.15570  Biso   1.000  N
  N128     1.0000 0.62670  0.34080  0.16710  Biso   1.000  N
  N129     1.0000 0.68260  0.43300  0.28850  Biso   1.000  N
  C101     1.0000 0.78604  0.27779  0.24143  Biso   1.000  C
  H77      1.0000 0.79770  0.28400  0.22320  Biso   1.000  H
  O51      1.0000 0.60260  0.25780  0.15360  Biso   1.000  O
  N130     1.0000 0.64300  0.35920  0.18510  Biso   1.000  N
  C102     1.0000 0.58960  0.20650  0.19330  Biso   1.000  C
  H78      1.0000 0.60760  0.21930  0.19750  Biso   1.000  H
  O52      1.0000 0.56050  0.24690  0.12210  Biso   1.000  O
  C103     1.0000 0.56990  0.21300  0.16780  Biso   1.000  C
  C104     1.0000 0.57750  0.24150  0.14610  Biso   1.000  C
  Zn14     1.0000 0.70388  0.87242  0.71649  Biso   1.000  Zn
  O53      1.0000 0.72674  0.84183  0.74394  Biso   1.000  O
  N131     1.0000 0.68106  0.90082  0.74811  Biso   1.000  N
  N132     1.0000 0.67317  0.84740  0.68930  Biso   1.000  N
  N133     1.0000 0.65382  0.93836  0.77370  Biso   1.000  N
  C105     1.0000 0.75900  0.79523  0.75127  Biso   1.000  C
  O54      1.0000 0.75635  0.82566  0.70233  Biso   1.000  O
  C106     1.0000 0.74759  0.82344  0.73050  Biso   1.000  C
  C107     1.0000 0.65396  0.91725  0.74914  Biso   1.000  C
  C108     1.0000 0.67400  0.82203  0.66900  Biso   1.000  C
  N134     1.0000 0.69910  0.91200  0.77300  Biso   1.000  N
  N135     1.0000 0.69870  0.80130  0.66690  Biso   1.000  N
  H79      1.0000 0.69640  0.78360  0.65630  Biso   1.000  H
  H80      1.0000 0.71680  0.80570  0.67610  Biso   1.000  H
  N136     1.0000 0.63010  0.91550  0.72640  Biso   1.000  N
  H81      1.0000 0.63230  0.90300  0.71000  Biso   1.000  H
  H82      1.0000 0.61290  0.92700  0.72850  Biso   1.000  H
  N137     1.0000 0.64616  0.81673  0.65570  Biso   1.000  N
  N138     1.0000 0.62670  0.84080  0.66710  Biso   1.000  N
  N139     1.0000 0.68260  0.93300  0.78850  Biso   1.000  N
  C109     1.0000 0.78604  0.77779  0.74143  Biso   1.000  C
  H83      1.0000 0.79770  0.78400  0.72320  Biso   1.000  H
  O55      1.0000 0.60260  0.75780  0.65360  Biso   1.000  O
  N140     1.0000 0.64300  0.85920  0.68510  Biso   1.000  N
  C110     1.0000 0.58960  0.70650  0.69330  Biso   1.000  C
  H84      1.0000 0.60760  0.71930  0.69750  Biso   1.000  H
  O56      1.0000 0.56050  0.74690  0.62210  Biso   1.000  O
  C111     1.0000 0.56990  0.71300  0.66780  Biso   1.000  C
  C112     1.0000 0.57750  0.74150  0.64610  Biso   1.000  C
  Zn15     1.0000 0.20388  0.37242  0.71649  Biso   1.000  Zn
  O57      1.0000 0.22674  0.34183  0.74394  Biso   1.000  O
  N141     1.0000 0.18106  0.40082  0.74811  Biso   1.000  N
  N142     1.0000 0.17317  0.34740  0.68930  Biso   1.000  N
  N143     1.0000 0.15382  0.43836  0.77370  Biso   1.000  N
  C113     1.0000 0.25900  0.29523  0.75127  Biso   1.000  C
  O58      1.0000 0.25635  0.32566  0.70233  Biso   1.000  O
  C114     1.0000 0.24759  0.32344  0.73050  Biso   1.000  C
  C115     1.0000 0.15396  0.41725  0.74914  Biso   1.000  C
  C116     1.0000 0.17400  0.32203  0.66900  Biso   1.000  C
  N144     1.0000 0.19910  0.41200  0.77300  Biso   1.000  N
  N145     1.0000 0.19870  0.30130  0.66690  Biso   1.000  N
  H85      1.0000 0.19640  0.28360  0.65630  Biso   1.000  H
  H86      1.0000 0.21680  0.30570  0.67610  Biso   1.000  H
  N146     1.0000 0.13010  0.41550  0.72640  Biso   1.000  N
  H87      1.0000 0.13230  0.40300  0.71000  Biso   1.000  H
  H88      1.0000 0.11290  0.42700  0.72850  Biso   1.000  H
  N147     1.0000 0.14616  0.31673  0.65570  Biso   1.000  N
  N148     1.0000 0.12670  0.34080  0.66710  Biso   1.000  N
  N149     1.0000 0.18260  0.43300  0.78850  Biso   1.000  N
  C117     1.0000 0.28604  0.27779  0.74143  Biso   1.000  C
  H89      1.0000 0.29770  0.28400  0.72320  Biso   1.000  H
  O59      1.0000 0.10260  0.25780  0.65360  Biso   1.000  O
  N150     1.0000 0.14300  0.35920  0.68510  Biso   1.000  N
  C118     1.0000 0.08960  0.20650  0.69330  Biso   1.000  C
  H90      1.0000 0.10760  0.21930  0.69750  Biso   1.000  H
  O60      1.0000 0.06050  0.24690  0.62210  Biso   1.000  O
  C119     1.0000 0.06990  0.21300  0.66780  Biso   1.000  C
  C120     1.0000 0.07750  0.24150  0.64610  Biso   1.000  C
  Zn16     1.0000 0.20388  0.87242  0.21649  Biso   1.000  Zn
  O61      1.0000 0.22674  0.84183  0.24394  Biso   1.000  O
  N151     1.0000 0.18106  0.90082  0.24811  Biso   1.000  N
  N152     1.0000 0.17317  0.84740  0.18930  Biso   1.000  N
  N153     1.0000 0.15382  0.93836  0.27370  Biso   1.000  N
  C121     1.0000 0.25900  0.79523  0.25127  Biso   1.000  C
  O62      1.0000 0.25635  0.82566  0.20233  Biso   1.000  O
  C122     1.0000 0.24759  0.82344  0.23050  Biso   1.000  C
  C123     1.0000 0.15396  0.91725  0.24914  Biso   1.000  C
  C124     1.0000 0.17400  0.82203  0.16900  Biso   1.000  C
  N154     1.0000 0.19910  0.91200  0.27300  Biso   1.000  N
  N155     1.0000 0.19870  0.80130  0.16690  Biso   1.000  N
  H91      1.0000 0.19640  0.78360  0.15630  Biso   1.000  H
  H92      1.0000 0.21680  0.80570  0.17610  Biso   1.000  H
  N156     1.0000 0.13010  0.91550  0.22640  Biso   1.000  N
  H93      1.0000 0.13230  0.90300  0.21000  Biso   1.000  H
  H94      1.0000 0.11290  0.92700  0.22850  Biso   1.000  H
  N157     1.0000 0.14616  0.81673  0.15570  Biso   1.000  N
  N158     1.0000 0.12670  0.84080  0.16710  Biso   1.000  N
  N159     1.0000 0.18260  0.93300  0.28850  Biso   1.000  N
  C125     1.0000 0.28604  0.77779  0.24143  Biso   1.000  C
  H95      1.0000 0.29770  0.78400  0.22320  Biso   1.000  H
  O63      1.0000 0.10260  0.75780  0.15360  Biso   1.000  O
  N160     1.0000 0.14300  0.85920  0.18510  Biso   1.000  N
  C126     1.0000 0.08960  0.70650  0.19330  Biso   1.000  C
  H96      1.0000 0.10760  0.71930  0.19750  Biso   1.000  H
  O64      1.0000 0.06050  0.74690  0.12210  Biso   1.000  O
  C127     1.0000 0.06990  0.71300  0.16780  Biso   1.000  C
  C128     1.0000 0.07750  0.74150  0.14610  Biso   1.000  C
  Zn17     1.0000 0.03351  0.70388  0.87758  Biso   1.000  Zn
  O65      1.0000 0.00606  0.72674  0.90817  Biso   1.000  O
  N161     1.0000 0.00189  0.68106  0.84918  Biso   1.000  N
  N162     1.0000 0.06070  0.67317  0.90260  Biso   1.000  N
  N163     1.0000 0.97630  0.65382  0.81164  Biso   1.000  N
  C129     1.0000 0.99873  0.75900  0.95477  Biso   1.000  C
  O66      1.0000 0.04767  0.75635  0.92434  Biso   1.000  O
  C130     1.0000 0.01950  0.74759  0.92656  Biso   1.000  C
  C131     1.0000 0.00086  0.65396  0.83275  Biso   1.000  C
  C132     1.0000 0.08100  0.67400  0.92797  Biso   1.000  C
  N164     1.0000 0.97700  0.69910  0.83800  Biso   1.000  N
  N165     1.0000 0.08310  0.69870  0.94870  Biso   1.000  N
  H97      1.0000 0.09370  0.69640  0.96640  Biso   1.000  H
  H98      1.0000 0.07390  0.71680  0.94430  Biso   1.000  H
  N166     1.0000 0.02360  0.63010  0.83450  Biso   1.000  N
  H99      1.0000 0.04000  0.63230  0.84700  Biso   1.000  H
  H100     1.0000 0.02150  0.61290  0.82300  Biso   1.000  H
  N167     1.0000 0.09430  0.64616  0.93327  Biso   1.000  N
  N168     1.0000 0.08290  0.62670  0.90920  Biso   1.000  N
  N169     1.0000 0.96150  0.68260  0.81700  Biso   1.000  N
  C133     1.0000 0.00857  0.78604  0.97221  Biso   1.000  C
  H101     1.0000 0.02680  0.79770  0.96600  Biso   1.000  H
  O67      1.0000 0.09640  0.60260  0.99220  Biso   1.000  O
  N170     1.0000 0.06490  0.64300  0.89080  Biso   1.000  N
  C134     1.0000 0.05670  0.58960  0.04350  Biso   1.000  C
  H102     1.0000 0.05250  0.60760  0.03070  Biso   1.000  H
  O68      1.0000 0.12790  0.56050  0.00310  Biso   1.000  O
  C135     1.0000 0.08220  0.56990  0.03700  Biso   1.000  C
  C136     1.0000 0.10390  0.57750  0.00850  Biso   1.000  C
  Zn18     1.0000 0.03351  0.20388  0.37758  Biso   1.000  Zn
  O69      1.0000 0.00606  0.22674  0.40817  Biso   1.000  O
  N171     1.0000 0.00189  0.18106  0.34918  Biso   1.000  N
  N172     1.0000 0.06070  0.17317  0.40260  Biso   1.000  N
  N173     1.0000 0.97630  0.15382  0.31164  Biso   1.000  N
  C137     1.0000 0.99873  0.25900  0.45477  Biso   1.000  C
  O70      1.0000 0.04767  0.25635  0.42434  Biso   1.000  O
  C138     1.0000 0.01950  0.24759  0.42656  Biso   1.000  C
  C139     1.0000 0.00086  0.15396  0.33275  Biso   1.000  C
  C140     1.0000 0.08100  0.17400  0.42797  Biso   1.000  C
  N174     1.0000 0.97700  0.19910  0.33800  Biso   1.000  N
  N175     1.0000 0.08310  0.19870  0.44870  Biso   1.000  N
  H103     1.0000 0.09370  0.19640  0.46640  Biso   1.000  H
  H104     1.0000 0.07390  0.21680  0.44430  Biso   1.000  H
  N176     1.0000 0.02360  0.13010  0.33450  Biso   1.000  N
  H105     1.0000 0.04000  0.13230  0.34700  Biso   1.000  H
  H106     1.0000 0.02150  0.11290  0.32300  Biso   1.000  H
  N177     1.0000 0.09430  0.14616  0.43327  Biso   1.000  N
  N178     1.0000 0.08290  0.12670  0.40920  Biso   1.000  N
  N179     1.0000 0.96150  0.18260  0.31700  Biso   1.000  N
  C141     1.0000 0.00857  0.28604  0.47221  Biso   1.000  C
  H107     1.0000 0.02680  0.29770  0.46600  Biso   1.000  H
  O71      1.0000 0.09640  0.10260  0.49220  Biso   1.000  O
  N180     1.0000 0.06490  0.14300  0.39080  Biso   1.000  N
  C142     1.0000 0.05670  0.08960  0.54350  Biso   1.000  C
  H108     1.0000 0.05250  0.10760  0.53070  Biso   1.000  H
  O72      1.0000 0.12790  0.06050  0.50310  Biso   1.000  O
  C143     1.0000 0.08220  0.06990  0.53700  Biso   1.000  C
  C144     1.0000 0.10390  0.07750  0.50850  Biso   1.000  C
  Zn19     1.0000 0.53351  0.70388  0.37758  Biso   1.000  Zn
  O73      1.0000 0.50606  0.72674  0.40817  Biso   1.000  O
  N181     1.0000 0.50189  0.68106  0.34918  Biso   1.000  N
  N182     1.0000 0.56070  0.67317  0.40260  Biso   1.000  N
  N183     1.0000 0.47630  0.65382  0.31164  Biso   1.000  N
  C145     1.0000 0.49873  0.75900  0.45477  Biso   1.000  C
  O74      1.0000 0.54767  0.75635  0.42434  Biso   1.000  O
  C146     1.0000 0.51950  0.74759  0.42656  Biso   1.000  C
  C147     1.0000 0.50086  0.65396  0.33275  Biso   1.000  C
  C148     1.0000 0.58100  0.67400  0.42797  Biso   1.000  C
  N184     1.0000 0.47700  0.69910  0.33800  Biso   1.000  N
  N185     1.0000 0.58310  0.69870  0.44870  Biso   1.000  N
  H109     1.0000 0.59370  0.69640  0.46640  Biso   1.000  H
  H110     1.0000 0.57390  0.71680  0.44430  Biso   1.000  H
  N186     1.0000 0.52360  0.63010  0.33450  Biso   1.000  N
  H111     1.0000 0.54000  0.63230  0.34700  Biso   1.000  H
  H112     1.0000 0.52150  0.61290  0.32300  Biso   1.000  H
  N187     1.0000 0.59430  0.64616  0.43327  Biso   1.000  N
  N188     1.0000 0.58290  0.62670  0.40920  Biso   1.000  N
  N189     1.0000 0.46150  0.68260  0.31700  Biso   1.000  N
  C149     1.0000 0.50857  0.78604  0.47221  Biso   1.000  C
  H113     1.0000 0.52680  0.79770  0.46600  Biso   1.000  H
  O75      1.0000 0.59640  0.60260  0.49220  Biso   1.000  O
  N190     1.0000 0.56490  0.64300  0.39080  Biso   1.000  N
  C150     1.0000 0.55670  0.58960  0.54350  Biso   1.000  C
  H114     1.0000 0.55250  0.60760  0.53070  Biso   1.000  H
  O76      1.0000 0.62790  0.56050  0.50310  Biso   1.000  O
  C151     1.0000 0.58220  0.56990  0.53700  Biso   1.000  C
  C152     1.0000 0.60390  0.57750  0.50850  Biso   1.000  C
  Zn20     1.0000 0.53351  0.20388  0.87758  Biso   1.000  Zn
  O77      1.0000 0.50606  0.22674  0.90817  Biso   1.000  O
  N191     1.0000 0.50189  0.18106  0.84918  Biso   1.000  N
  N192     1.0000 0.56070  0.17317  0.90260  Biso   1.000  N
  N193     1.0000 0.47630  0.15382  0.81164  Biso   1.000  N
  C153     1.0000 0.49873  0.25900  0.95477  Biso   1.000  C
  O78      1.0000 0.54767  0.25635  0.92434  Biso   1.000  O
  C154     1.0000 0.51950  0.24759  0.92656  Biso   1.000  C
  C155     1.0000 0.50086  0.15396  0.83275  Biso   1.000  C
  C156     1.0000 0.58100  0.17400  0.92797  Biso   1.000  C
  N194     1.0000 0.47700  0.19910  0.83800  Biso   1.000  N
  N195     1.0000 0.58310  0.19870  0.94870  Biso   1.000  N
  H115     1.0000 0.59370  0.19640  0.96640  Biso   1.000  H
  H116     1.0000 0.57390  0.21680  0.94430  Biso   1.000  H
  N196     1.0000 0.52360  0.13010  0.83450  Biso   1.000  N
  H117     1.0000 0.54000  0.13230  0.84700  Biso   1.000  H
  H118     1.0000 0.52150  0.11290  0.82300  Biso   1.000  H
  N197     1.0000 0.59430  0.14616  0.93327  Biso   1.000  N
  N198     1.0000 0.58290  0.12670  0.90920  Biso   1.000  N
  N199     1.0000 0.46150  0.18260  0.81700  Biso   1.000  N
  C157     1.0000 0.50857  0.28604  0.97221  Biso   1.000  C
  H119     1.0000 0.52680  0.29770  0.96600  Biso   1.000  H
  O79      1.0000 0.59640  0.10260  0.99220  Biso   1.000  O
  N200     1.0000 0.56490  0.14300  0.89080  Biso   1.000  N
  C158     1.0000 0.55670  0.08960  0.04350  Biso   1.000  C
  H120     1.0000 0.55250  0.10760  0.03070  Biso   1.000  H
  O80      1.0000 0.62790  0.06050  0.00310  Biso   1.000  O
  C159     1.0000 0.58220  0.06990  0.03700  Biso   1.000  C
  C160     1.0000 0.60390  0.07750  0.00850  Biso   1.000  C
  Zn21     1.0000 0.03351  0.54612  0.37242  Biso   1.000  Zn
  O81      1.0000 0.00606  0.52326  0.34183  Biso   1.000  O
  N201     1.0000 0.00189  0.56894  0.40082  Biso   1.000  N
  N202     1.0000 0.06070  0.57683  0.34740  Biso   1.000  N
  N203     1.0000 0.97630  0.59618  0.43836  Biso   1.000  N
  C161     1.0000 0.99873  0.49100  0.29523  Biso   1.000  C
  O82      1.0000 0.04767  0.49365  0.32566  Biso   1.000  O
  C162     1.0000 0.01950  0.50241  0.32344  Biso   1.000  C
  C163     1.0000 0.00086  0.59604  0.41725  Biso   1.000  C
  C164     1.0000 0.08100  0.57600  0.32203  Biso   1.000  C
  N204     1.0000 0.97700  0.55090  0.41200  Biso   1.000  N
  N205     1.0000 0.08310  0.55130  0.30130  Biso   1.000  N
  H121     1.0000 0.09370  0.55360  0.28360  Biso   1.000  H
  H122     1.0000 0.07390  0.53320  0.30570  Biso   1.000  H
  N206     1.0000 0.02360  0.61990  0.41550  Biso   1.000  N
  H123     1.0000 0.04000  0.61770  0.40300  Biso   1.000  H
  H124     1.0000 0.02150  0.63710  0.42700  Biso   1.000  H
  N207     1.0000 0.09430  0.60384  0.31673  Biso   1.000  N
  N208     1.0000 0.08290  0.62330  0.34080  Biso   1.000  N
  N209     1.0000 0.96150  0.56740  0.43300  Biso   1.000  N
  C165     1.0000 0.00857  0.46396  0.27779  Biso   1.000  C
  H125     1.0000 0.02680  0.45230  0.28400  Biso   1.000  H
  O83      1.0000 0.09640  0.64740  0.25780  Biso   1.000  O
  N210     1.0000 0.06490  0.60700  0.35920  Biso   1.000  N
  C166     1.0000 0.05670  0.66040  0.20650  Biso   1.000  C
  H126     1.0000 0.05250  0.64240  0.21930  Biso   1.000  H
  O84      1.0000 0.12790  0.68950  0.24690  Biso   1.000  O
  C167     1.0000 0.08220  0.68010  0.21300  Biso   1.000  C
  C168     1.0000 0.10390  0.67250  0.24150  Biso   1.000  C
  Zn22     1.0000 0.03351  0.04612  0.87242  Biso   1.000  Zn
  O85      1.0000 0.00606  0.02326  0.84183  Biso   1.000  O
  N211     1.0000 0.00189  0.06894  0.90082  Biso   1.000  N
  N212     1.0000 0.06070  0.07683  0.84740  Biso   1.000  N
  N213     1.0000 0.97630  0.09618  0.93836  Biso   1.000  N
  C169     1.0000 0.99873  0.99100  0.79523  Biso   1.000  C
  O86      1.0000 0.04767  0.99365  0.82566  Biso   1.000  O
  C170     1.0000 0.01950  0.00241  0.82344  Biso   1.000  C
  C171     1.0000 0.00086  0.09604  0.91725  Biso   1.000  C
  C172     1.0000 0.08100  0.07600  0.82203  Biso   1.000  C
  N214     1.0000 0.97700  0.05090  0.91200  Biso   1.000  N
  N215     1.0000 0.08310  0.05130  0.80130  Biso   1.000  N
  H127     1.0000 0.09370  0.05360  0.78360  Biso   1.000  H
  H128     1.0000 0.07390  0.03320  0.80570  Biso   1.000  H
  N216     1.0000 0.02360  0.11990  0.91550  Biso   1.000  N
  H129     1.0000 0.04000  0.11770  0.90300  Biso   1.000  H
  H130     1.0000 0.02150  0.13710  0.92700  Biso   1.000  H
  N217     1.0000 0.09430  0.10384  0.81673  Biso   1.000  N
  N218     1.0000 0.08290  0.12330  0.84080  Biso   1.000  N
  N219     1.0000 0.96150  0.06740  0.93300  Biso   1.000  N
  C173     1.0000 0.00857  0.96396  0.77779  Biso   1.000  C
  H131     1.0000 0.02680  0.95230  0.78400  Biso   1.000  H
  O87      1.0000 0.09640  0.14740  0.75780  Biso   1.000  O
  N220     1.0000 0.06490  0.10700  0.85920  Biso   1.000  N
  C174     1.0000 0.05670  0.16040  0.70650  Biso   1.000  C
  H132     1.0000 0.05250  0.14240  0.71930  Biso   1.000  H
  O88      1.0000 0.12790  0.18950  0.74690  Biso   1.000  O
  C175     1.0000 0.08220  0.18010  0.71300  Biso   1.000  C
  C176     1.0000 0.10390  0.17250  0.74150  Biso   1.000  C
  Zn23     1.0000 0.53351  0.54612  0.87242  Biso   1.000  Zn
  O89      1.0000 0.50606  0.52326  0.84183  Biso   1.000  O
  N221     1.0000 0.50189  0.56894  0.90082  Biso   1.000  N
  N222     1.0000 0.56070  0.57683  0.84740  Biso   1.000  N
  N223     1.0000 0.47630  0.59618  0.93836  Biso   1.000  N
  C177     1.0000 0.49873  0.49100  0.79523  Biso   1.000  C
  O90      1.0000 0.54767  0.49365  0.82566  Biso   1.000  O
  C178     1.0000 0.51950  0.50241  0.82344  Biso   1.000  C
  C179     1.0000 0.50086  0.59604  0.91725  Biso   1.000  C
  C180     1.0000 0.58100  0.57600  0.82203  Biso   1.000  C
  N224     1.0000 0.47700  0.55090  0.91200  Biso   1.000  N
  N225     1.0000 0.58310  0.55130  0.80130  Biso   1.000  N
  H133     1.0000 0.59370  0.55360  0.78360  Biso   1.000  H
  H134     1.0000 0.57390  0.53320  0.80570  Biso   1.000  H
  N226     1.0000 0.52360  0.61990  0.91550  Biso   1.000  N
  H135     1.0000 0.54000  0.61770  0.90300  Biso   1.000  H
  H136     1.0000 0.52150  0.63710  0.92700  Biso   1.000  H
  N227     1.0000 0.59430  0.60384  0.81673  Biso   1.000  N
  N228     1.0000 0.58290  0.62330  0.84080  Biso   1.000  N
  N229     1.0000 0.46150  0.56740  0.93300  Biso   1.000  N
  C181     1.0000 0.50857  0.46396  0.77779  Biso   1.000  C
  H137     1.0000 0.52680  0.45230  0.78400  Biso   1.000  H
  O91      1.0000 0.59640  0.64740  0.75780  Biso   1.000  O
  N230     1.0000 0.56490  0.60700  0.85920  Biso   1.000  N
  C182     1.0000 0.55670  0.66040  0.70650  Biso   1.000  C
  H138     1.0000 0.55250  0.64240  0.71930  Biso   1.000  H
  O92      1.0000 0.62790  0.68950  0.74690  Biso   1.000  O
  C183     1.0000 0.58220  0.68010  0.71300  Biso   1.000  C
  C184     1.0000 0.60390  0.67250  0.74150  Biso   1.000  C
  Zn24     1.0000 0.53351  0.04612  0.37242  Biso   1.000  Zn
  O93      1.0000 0.50606  0.02326  0.34183  Biso   1.000  O
  N231     1.0000 0.50189  0.06894  0.40082  Biso   1.000  N
  N232     1.0000 0.56070  0.07683  0.34740  Biso   1.000  N
  N233     1.0000 0.47630  0.09618  0.43836  Biso   1.000  N
  C185     1.0000 0.49873  0.99100  0.29523  Biso   1.000  C
  O94      1.0000 0.54767  0.99365  0.32566  Biso   1.000  O
  C186     1.0000 0.51950  0.00241  0.32344  Biso   1.000  C
  C187     1.0000 0.50086  0.09604  0.41725  Biso   1.000  C
  C188     1.0000 0.58100  0.07600  0.32203  Biso   1.000  C
  N234     1.0000 0.47700  0.05090  0.41200  Biso   1.000  N
  N235     1.0000 0.58310  0.05130  0.30130  Biso   1.000  N
  H139     1.0000 0.59370  0.05360  0.28360  Biso   1.000  H
  H140     1.0000 0.57390  0.03320  0.30570  Biso   1.000  H
  N236     1.0000 0.52360  0.11990  0.41550  Biso   1.000  N
  H141     1.0000 0.54000  0.11770  0.40300  Biso   1.000  H
  H142     1.0000 0.52150  0.13710  0.42700  Biso   1.000  H
  N237     1.0000 0.59430  0.10384  0.31673  Biso   1.000  N
  N238     1.0000 0.58290  0.12330  0.34080  Biso   1.000  N
  N239     1.0000 0.46150  0.06740  0.43300  Biso   1.000  N
  C189     1.0000 0.50857  0.96396  0.27779  Biso   1.000  C
  H143     1.0000 0.52680  0.95230  0.28400  Biso   1.000  H
  O95      1.0000 0.59640  0.14740  0.25780  Biso   1.000  O
  N240     1.0000 0.56490  0.10700  0.35920  Biso   1.000  N
  C190     1.0000 0.55670  0.16040  0.20650  Biso   1.000  C
  H144     1.0000 0.55250  0.14240  0.21930  Biso   1.000  H
  O96      1.0000 0.62790  0.18950  0.24690  Biso   1.000  O
  C191     1.0000 0.58220  0.18010  0.21300  Biso   1.000  C
  C192     1.0000 0.60390  0.17250  0.24150  Biso   1.000  C
  Zn25     1.0000 0.21649  0.54612  0.87758  Biso   1.000  Zn
  O97      1.0000 0.24394  0.52326  0.90817  Biso   1.000  O
  N241     1.0000 0.24811  0.56894  0.84918  Biso   1.000  N
  N242     1.0000 0.18930  0.57683  0.90260  Biso   1.000  N
  N243     1.0000 0.27370  0.59618  0.81164  Biso   1.000  N
  C193     1.0000 0.25127  0.49100  0.95477  Biso   1.000  C
  O98      1.0000 0.20233  0.49365  0.92434  Biso   1.000  O
  C194     1.0000 0.23050  0.50241  0.92656  Biso   1.000  C
  C195     1.0000 0.24914  0.59604  0.83275  Biso   1.000  C
  C196     1.0000 0.16900  0.57600  0.92797  Biso   1.000  C
  N244     1.0000 0.27300  0.55090  0.83800  Biso   1.000  N
  N245     1.0000 0.16690  0.55130  0.94870  Biso   1.000  N
  H145     1.0000 0.15630  0.55360  0.96640  Biso   1.000  H
  H146     1.0000 0.17610  0.53320  0.94430  Biso   1.000  H
  N246     1.0000 0.22640  0.61990  0.83450  Biso   1.000  N
  H147     1.0000 0.21000  0.61770  0.84700  Biso   1.000  H
  H148     1.0000 0.22850  0.63710  0.82300  Biso   1.000  H
  N247     1.0000 0.15570  0.60384  0.93327  Biso   1.000  N
  N248     1.0000 0.16710  0.62330  0.90920  Biso   1.000  N
  N249     1.0000 0.28850  0.56740  0.81700  Biso   1.000  N
  C197     1.0000 0.24143  0.46396  0.97221  Biso   1.000  C
  H149     1.0000 0.22320  0.45230  0.96600  Biso   1.000  H
  O99      1.0000 0.15360  0.64740  0.99220  Biso   1.000  O
  N250     1.0000 0.18510  0.60700  0.89080  Biso   1.000  N
  C198     1.0000 0.19330  0.66040  0.04350  Biso   1.000  C
  H150     1.0000 0.19750  0.64240  0.03070  Biso   1.000  H
  O100     1.0000 0.12210  0.68950  0.00310  Biso   1.000  O
  C199     1.0000 0.16780  0.68010  0.03700  Biso   1.000  C
  C200     1.0000 0.14610  0.67250  0.00850  Biso   1.000  C
  Zn26     1.0000 0.21649  0.04612  0.37758  Biso   1.000  Zn
  O101     1.0000 0.24394  0.02326  0.40817  Biso   1.000  O
  N251     1.0000 0.24811  0.06894  0.34918  Biso   1.000  N
  N252     1.0000 0.18930  0.07683  0.40260  Biso   1.000  N
  N253     1.0000 0.27370  0.09618  0.31164  Biso   1.000  N
  C201     1.0000 0.25127  0.99100  0.45477  Biso   1.000  C
  O102     1.0000 0.20233  0.99365  0.42434  Biso   1.000  O
  C202     1.0000 0.23050  0.00241  0.42656  Biso   1.000  C
  C203     1.0000 0.24914  0.09604  0.33275  Biso   1.000  C
  C204     1.0000 0.16900  0.07600  0.42797  Biso   1.000  C
  N254     1.0000 0.27300  0.05090  0.33800  Biso   1.000  N
  N255     1.0000 0.16690  0.05130  0.44870  Biso   1.000  N
  H151     1.0000 0.15630  0.05360  0.46640  Biso   1.000  H
  H152     1.0000 0.17610  0.03320  0.44430  Biso   1.000  H
  N256     1.0000 0.22640  0.11990  0.33450  Biso   1.000  N
  H153     1.0000 0.21000  0.11770  0.34700  Biso   1.000  H
  H154     1.0000 0.22850  0.13710  0.32300  Biso   1.000  H
  N257     1.0000 0.15570  0.10384  0.43327  Biso   1.000  N
  N258     1.0000 0.16710  0.12330  0.40920  Biso   1.000  N
  N259     1.0000 0.28850  0.06740  0.31700  Biso   1.000  N
  C205     1.0000 0.24143  0.96396  0.47221  Biso   1.000  C
  H155     1.0000 0.22320  0.95230  0.46600  Biso   1.000  H
  O103     1.0000 0.15360  0.14740  0.49220  Biso   1.000  O
  N260     1.0000 0.18510  0.10700  0.39080  Biso   1.000  N
  C206     1.0000 0.19330  0.16040  0.54350  Biso   1.000  C
  H156     1.0000 0.19750  0.14240  0.53070  Biso   1.000  H
  O104     1.0000 0.12210  0.18950  0.50310  Biso   1.000  O
  C207     1.0000 0.16780  0.18010  0.53700  Biso   1.000  C
  C208     1.0000 0.14610  0.17250  0.50850  Biso   1.000  C
  Zn27     1.0000 0.71649  0.54612  0.37758  Biso   1.000  Zn
  O105     1.0000 0.74394  0.52326  0.40817  Biso   1.000  O
  N261     1.0000 0.74811  0.56894  0.34918  Biso   1.000  N
  N262     1.0000 0.68930  0.57683  0.40260  Biso   1.000  N
  N263     1.0000 0.77370  0.59618  0.31164  Biso   1.000  N
  C209     1.0000 0.75127  0.49100  0.45477  Biso   1.000  C
  O106     1.0000 0.70233  0.49365  0.42434  Biso   1.000  O
  C210     1.0000 0.73050  0.50241  0.42656  Biso   1.000  C
  C211     1.0000 0.74914  0.59604  0.33275  Biso   1.000  C
  C212     1.0000 0.66900  0.57600  0.42797  Biso   1.000  C
  N264     1.0000 0.77300  0.55090  0.33800  Biso   1.000  N
  N265     1.0000 0.66690  0.55130  0.44870  Biso   1.000  N
  H157     1.0000 0.65630  0.55360  0.46640  Biso   1.000  H
  H158     1.0000 0.67610  0.53320  0.44430  Biso   1.000  H
  N266     1.0000 0.72640  0.61990  0.33450  Biso   1.000  N
  H159     1.0000 0.71000  0.61770  0.34700  Biso   1.000  H
  H160     1.0000 0.72850  0.63710  0.32300  Biso   1.000  H
  N267     1.0000 0.65570  0.60384  0.43327  Biso   1.000  N
  N268     1.0000 0.66710  0.62330  0.40920  Biso   1.000  N
  N269     1.0000 0.78850  0.56740  0.31700  Biso   1.000  N
  C213     1.0000 0.74143  0.46396  0.47221  Biso   1.000  C
  H161     1.0000 0.72320  0.45230  0.46600  Biso   1.000  H
  O107     1.0000 0.65360  0.64740  0.49220  Biso   1.000  O
  N270     1.0000 0.68510  0.60700  0.39080  Biso   1.000  N
  C214     1.0000 0.69330  0.66040  0.54350  Biso   1.000  C
  H162     1.0000 0.69750  0.64240  0.53070  Biso   1.000  H
  O108     1.0000 0.62210  0.68950  0.50310  Biso   1.000  O
  C215     1.0000 0.66780  0.68010  0.53700  Biso   1.000  C
  C216     1.0000 0.64610  0.67250  0.50850  Biso   1.000  C
  Zn28     1.0000 0.71649  0.04612  0.87758  Biso   1.000  Zn
  O109     1.0000 0.74394  0.02326  0.90817  Biso   1.000  O
  N271     1.0000 0.74811  0.06894  0.84918  Biso   1.000  N
  N272     1.0000 0.68930  0.07683  0.90260  Biso   1.000  N
  N273     1.0000 0.77370  0.09618  0.81164  Biso   1.000  N
  C217     1.0000 0.75127  0.99100  0.95477  Biso   1.000  C
  O110     1.0000 0.70233  0.99365  0.92434  Biso   1.000  O
  C218     1.0000 0.73050  0.00241  0.92656  Biso   1.000  C
  C219     1.0000 0.74914  0.09604  0.83275  Biso   1.000  C
  C220     1.0000 0.66900  0.07600  0.92797  Biso   1.000  C
  N274     1.0000 0.77300  0.05090  0.83800  Biso   1.000  N
  N275     1.0000 0.66690  0.05130  0.94870  Biso   1.000  N
  H163     1.0000 0.65630  0.05360  0.96640  Biso   1.000  H
  H164     1.0000 0.67610  0.03320  0.94430  Biso   1.000  H
  N276     1.0000 0.72640  0.11990  0.83450  Biso   1.000  N
  H165     1.0000 0.71000  0.11770  0.84700  Biso   1.000  H
  H166     1.0000 0.72850  0.13710  0.82300  Biso   1.000  H
  N277     1.0000 0.65570  0.10384  0.93327  Biso   1.000  N
  N278     1.0000 0.66710  0.12330  0.90920  Biso   1.000  N
  N279     1.0000 0.78850  0.06740  0.81700  Biso   1.000  N
  C221     1.0000 0.74143  0.96396  0.97221  Biso   1.000  C
  H167     1.0000 0.72320  0.95230  0.96600  Biso   1.000  H
  O111     1.0000 0.65360  0.14740  0.99220  Biso   1.000  O
  N280     1.0000 0.68510  0.10700  0.89080  Biso   1.000  N
  C222     1.0000 0.69330  0.16040  0.04350  Biso   1.000  C
  H168     1.0000 0.69750  0.14240  0.03070  Biso   1.000  H
  O112     1.0000 0.62210  0.18950  0.00310  Biso   1.000  O
  C223     1.0000 0.66780  0.18010  0.03700  Biso   1.000  C
  C224     1.0000 0.64610  0.17250  0.00850  Biso   1.000  C
  Zn29     1.0000 0.21649  0.70388  0.37242  Biso   1.000  Zn
  O113     1.0000 0.24394  0.72674  0.34183  Biso   1.000  O
  N281     1.0000 0.24811  0.68106  0.40082  Biso   1.000  N
  N282     1.0000 0.18930  0.67317  0.34740  Biso   1.000  N
  N283     1.0000 0.27370  0.65382  0.43836  Biso   1.000  N
  C225     1.0000 0.25127  0.75900  0.29523  Biso   1.000  C
  O114     1.0000 0.20233  0.75635  0.32566  Biso   1.000  O
  C226     1.0000 0.23050  0.74759  0.32344  Biso   1.000  C
  C227     1.0000 0.24914  0.65396  0.41725  Biso   1.000  C
  C228     1.0000 0.16900  0.67400  0.32203  Biso   1.000  C
  N284     1.0000 0.27300  0.69910  0.41200  Biso   1.000  N
  N285     1.0000 0.16690  0.69870  0.30130  Biso   1.000  N
  H169     1.0000 0.15630  0.69640  0.28360  Biso   1.000  H
  H170     1.0000 0.17610  0.71680  0.30570  Biso   1.000  H
  N286     1.0000 0.22640  0.63010  0.41550  Biso   1.000  N
  H171     1.0000 0.21000  0.63230  0.40300  Biso   1.000  H
  H172     1.0000 0.22850  0.61290  0.42700  Biso   1.000  H
  N287     1.0000 0.15570  0.64616  0.31673  Biso   1.000  N
  N288     1.0000 0.16710  0.62670  0.34080  Biso   1.000  N
  N289     1.0000 0.28850  0.68260  0.43300  Biso   1.000  N
  C229     1.0000 0.24143  0.78604  0.27779  Biso   1.000  C
  H173     1.0000 0.22320  0.79770  0.28400  Biso   1.000  H
  O115     1.0000 0.15360  0.60260  0.25780  Biso   1.000  O
  N290     1.0000 0.18510  0.64300  0.35920  Biso   1.000  N
  C230     1.0000 0.19330  0.58960  0.20650  Biso   1.000  C
  H174     1.0000 0.19750  0.60760  0.21930  Biso   1.000  H
  O116     1.0000 0.12210  0.56050  0.24690  Biso   1.000  O
  C231     1.0000 0.16780  0.56990  0.21300  Biso   1.000  C
  C232     1.0000 0.14610  0.57750  0.24150  Biso   1.000  C
  Zn30     1.0000 0.21649  0.20388  0.87242  Biso   1.000  Zn
  O117     1.0000 0.24394  0.22674  0.84183  Biso   1.000  O
  N291     1.0000 0.24811  0.18106  0.90082  Biso   1.000  N
  N292     1.0000 0.18930  0.17317  0.84740  Biso   1.000  N
  N293     1.0000 0.27370  0.15382  0.93836  Biso   1.000  N
  C233     1.0000 0.25127  0.25900  0.79523  Biso   1.000  C
  O118     1.0000 0.20233  0.25635  0.82566  Biso   1.000  O
  C234     1.0000 0.23050  0.24759  0.82344  Biso   1.000  C
  C235     1.0000 0.24914  0.15396  0.91725  Biso   1.000  C
  C236     1.0000 0.16900  0.17400  0.82203  Biso   1.000  C
  N294     1.0000 0.27300  0.19910  0.91200  Biso   1.000  N
  N295     1.0000 0.16690  0.19870  0.80130  Biso   1.000  N
  H175     1.0000 0.15630  0.19640  0.78360  Biso   1.000  H
  H176     1.0000 0.17610  0.21680  0.80570  Biso   1.000  H
  N296     1.0000 0.22640  0.13010  0.91550  Biso   1.000  N
  H177     1.0000 0.21000  0.13230  0.90300  Biso   1.000  H
  H178     1.0000 0.22850  0.11290  0.92700  Biso   1.000  H
  N297     1.0000 0.15570  0.14616  0.81673  Biso   1.000  N
  N298     1.0000 0.16710  0.12670  0.84080  Biso   1.000  N
  N299     1.0000 0.28850  0.18260  0.93300  Biso   1.000  N
  C237     1.0000 0.24143  0.28604  0.77779  Biso   1.000  C
  H179     1.0000 0.22320  0.29770  0.78400  Biso   1.000  H
  O119     1.0000 0.15360  0.10260  0.75780  Biso   1.000  O
  N300     1.0000 0.18510  0.14300  0.85920  Biso   1.000  N
  C238     1.0000 0.19330  0.08960  0.70650  Biso   1.000  C
  H180     1.0000 0.19750  0.10760  0.71930  Biso   1.000  H
  O120     1.0000 0.12210  0.06050  0.74690  Biso   1.000  O
  C239     1.0000 0.16780  0.06990  0.71300  Biso   1.000  C
  C240     1.0000 0.14610  0.07750  0.74150  Biso   1.000  C
  Zn31     1.0000 0.71649  0.70388  0.87242  Biso   1.000  Zn
  O121     1.0000 0.74394  0.72674  0.84183  Biso   1.000  O
  N301     1.0000 0.74811  0.68106  0.90082  Biso   1.000  N
  N302     1.0000 0.68930  0.67317  0.84740  Biso   1.000  N
  N303     1.0000 0.77370  0.65382  0.93836  Biso   1.000  N
  C241     1.0000 0.75127  0.75900  0.79523  Biso   1.000  C
  O122     1.0000 0.70233  0.75635  0.82566  Biso   1.000  O
  C242     1.0000 0.73050  0.74759  0.82344  Biso   1.000  C
  C243     1.0000 0.74914  0.65396  0.91725  Biso   1.000  C
  C244     1.0000 0.66900  0.67400  0.82203  Biso   1.000  C
  N304     1.0000 0.77300  0.69910  0.91200  Biso   1.000  N
  N305     1.0000 0.66690  0.69870  0.80130  Biso   1.000  N
  H181     1.0000 0.65630  0.69640  0.78360  Biso   1.000  H
  H182     1.0000 0.67610  0.71680  0.80570  Biso   1.000  H
  N306     1.0000 0.72640  0.63010  0.91550  Biso   1.000  N
  H183     1.0000 0.71000  0.63230  0.90300  Biso   1.000  H
  H184     1.0000 0.72850  0.61290  0.92700  Biso   1.000  H
  N307     1.0000 0.65570  0.64616  0.81673  Biso   1.000  N
  N308     1.0000 0.66710  0.62670  0.84080  Biso   1.000  N
  N309     1.0000 0.78850  0.68260  0.93300  Biso   1.000  N
  C245     1.0000 0.74143  0.78604  0.77779  Biso   1.000  C
  H185     1.0000 0.72320  0.79770  0.78400  Biso   1.000  H
  O123     1.0000 0.65360  0.60260  0.75780  Biso   1.000  O
  N310     1.0000 0.68510  0.64300  0.85920  Biso   1.000  N
  C246     1.0000 0.69330  0.58960  0.70650  Biso   1.000  C
  H186     1.0000 0.69750  0.60760  0.71930  Biso   1.000  H
  O124     1.0000 0.62210  0.56050  0.74690  Biso   1.000  O
  C247     1.0000 0.66780  0.56990  0.71300  Biso   1.000  C
  C248     1.0000 0.64610  0.57750  0.74150  Biso   1.000  C
  Zn32     1.0000 0.71649  0.20388  0.37242  Biso   1.000  Zn
  O125     1.0000 0.74394  0.22674  0.34183  Biso   1.000  O
  N311     1.0000 0.74811  0.18106  0.40082  Biso   1.000  N
  N312     1.0000 0.68930  0.17317  0.34740  Biso   1.000  N
  N313     1.0000 0.77370  0.15382  0.43836  Biso   1.000  N
  C249     1.0000 0.75127  0.25900  0.29523  Biso   1.000  C
  O126     1.0000 0.70233  0.25635  0.32566  Biso   1.000  O
  C250     1.0000 0.73050  0.24759  0.32344  Biso   1.000  C
  C251     1.0000 0.74914  0.15396  0.41725  Biso   1.000  C
  C252     1.0000 0.66900  0.17400  0.32203  Biso   1.000  C
  N314     1.0000 0.77300  0.19910  0.41200  Biso   1.000  N
  N315     1.0000 0.66690  0.19870  0.30130  Biso   1.000  N
  H187     1.0000 0.65630  0.19640  0.28360  Biso   1.000  H
  H188     1.0000 0.67610  0.21680  0.30570  Biso   1.000  H
  N316     1.0000 0.72640  0.13010  0.41550  Biso   1.000  N
  H189     1.0000 0.71000  0.13230  0.40300  Biso   1.000  H
  H190     1.0000 0.72850  0.11290  0.42700  Biso   1.000  H
  N317     1.0000 0.65570  0.14616  0.31673  Biso   1.000  N
  N318     1.0000 0.66710  0.12670  0.34080  Biso   1.000  N
  N319     1.0000 0.78850  0.18260  0.43300  Biso   1.000  N
  C253     1.0000 0.74143  0.28604  0.27779  Biso   1.000  C
  H191     1.0000 0.72320  0.29770  0.28400  Biso   1.000  H
  O127     1.0000 0.65360  0.10260  0.25780  Biso   1.000  O
  N320     1.0000 0.68510  0.14300  0.35920  Biso   1.000  N
  C254     1.0000 0.69330  0.08960  0.20650  Biso   1.000  C
  H192     1.0000 0.69750  0.10760  0.21930  Biso   1.000  H
  O128     1.0000 0.62210  0.06050  0.24690  Biso   1.000  O
  C255     1.0000 0.66780  0.06990  0.21300  Biso   1.000  C
  C256     1.0000 0.64610  0.07750  0.24150  Biso   1.000  C
  Zn33     1.0000 0.87758  0.03351  0.70388  Biso   1.000  Zn
  O129     1.0000 0.90817  0.00606  0.72674  Biso   1.000  O
  N321     1.0000 0.84918  0.00189  0.68106  Biso   1.000  N
  N322     1.0000 0.90260  0.06070  0.67317  Biso   1.000  N
  N323     1.0000 0.81164  0.97630  0.65382  Biso   1.000  N
  C257     1.0000 0.95477  0.99873  0.75900  Biso   1.000  C
  O130     1.0000 0.92434  0.04767  0.75635  Biso   1.000  O
  C258     1.0000 0.92656  0.01950  0.74759  Biso   1.000  C
  C259     1.0000 0.83275  0.00086  0.65396  Biso   1.000  C
  C260     1.0000 0.92797  0.08100  0.67400  Biso   1.000  C
  N324     1.0000 0.83800  0.97700  0.69910  Biso   1.000  N
  N325     1.0000 0.94870  0.08310  0.69870  Biso   1.000  N
  H193     1.0000 0.96640  0.09370  0.69640  Biso   1.000  H
  H194     1.0000 0.94430  0.07390  0.71680  Biso   1.000  H
  N326     1.0000 0.83450  0.02360  0.63010  Biso   1.000  N
  H195     1.0000 0.84700  0.04000  0.63230  Biso   1.000  H
  H196     1.0000 0.82300  0.02150  0.61290  Biso   1.000  H
  N327     1.0000 0.93327  0.09430  0.64616  Biso   1.000  N
  N328     1.0000 0.90920  0.08290  0.62670  Biso   1.000  N
  N329     1.0000 0.81700  0.96150  0.68260  Biso   1.000  N
  C261     1.0000 0.97221  0.00857  0.78604  Biso   1.000  C
  H197     1.0000 0.96600  0.02680  0.79770  Biso   1.000  H
  O131     1.0000 0.99220  0.09640  0.60260  Biso   1.000  O
  N330     1.0000 0.89080  0.06490  0.64300  Biso   1.000  N
  C262     1.0000 0.04350  0.05670  0.58960  Biso   1.000  C
  H198     1.0000 0.03070  0.05250  0.60760  Biso   1.000  H
  O132     1.0000 0.00310  0.12790  0.56050  Biso   1.000  O
  C263     1.0000 0.03700  0.08220  0.56990  Biso   1.000  C
  C264     1.0000 0.00850  0.10390  0.57750  Biso   1.000  C
  Zn34     1.0000 0.87758  0.53351  0.20388  Biso   1.000  Zn
  O133     1.0000 0.90817  0.50606  0.22674  Biso   1.000  O
  N331     1.0000 0.84918  0.50189  0.18106  Biso   1.000  N
  N332     1.0000 0.90260  0.56070  0.17317  Biso   1.000  N
  N333     1.0000 0.81164  0.47630  0.15382  Biso   1.000  N
  C265     1.0000 0.95477  0.49873  0.25900  Biso   1.000  C
  O134     1.0000 0.92434  0.54767  0.25635  Biso   1.000  O
  C266     1.0000 0.92656  0.51950  0.24759  Biso   1.000  C
  C267     1.0000 0.83275  0.50086  0.15396  Biso   1.000  C
  C268     1.0000 0.92797  0.58100  0.17400  Biso   1.000  C
  N334     1.0000 0.83800  0.47700  0.19910  Biso   1.000  N
  N335     1.0000 0.94870  0.58310  0.19870  Biso   1.000  N
  H199     1.0000 0.96640  0.59370  0.19640  Biso   1.000  H
  H200     1.0000 0.94430  0.57390  0.21680  Biso   1.000  H
  N336     1.0000 0.83450  0.52360  0.13010  Biso   1.000  N
  H201     1.0000 0.84700  0.54000  0.13230  Biso   1.000  H
  H202     1.0000 0.82300  0.52150  0.11290  Biso   1.000  H
  N337     1.0000 0.93327  0.59430  0.14616  Biso   1.000  N
  N338     1.0000 0.90920  0.58290  0.12670  Biso   1.000  N
  N339     1.0000 0.81700  0.46150  0.18260  Biso   1.000  N
  C269     1.0000 0.97221  0.50857  0.28604  Biso   1.000  C
  H203     1.0000 0.96600  0.52680  0.29770  Biso   1.000  H
  O135     1.0000 0.99220  0.59640  0.10260  Biso   1.000  O
  N340     1.0000 0.89080  0.56490  0.14300  Biso   1.000  N
  C270     1.0000 0.04350  0.55670  0.08960  Biso   1.000  C
  H204     1.0000 0.03070  0.55250  0.10760  Biso   1.000  H
  O136     1.0000 0.00310  0.62790  0.06050  Biso   1.000  O
  C271     1.0000 0.03700  0.58220  0.06990  Biso   1.000  C
  C272     1.0000 0.00850  0.60390  0.07750  Biso   1.000  C
  Zn35     1.0000 0.37758  0.03351  0.20388  Biso   1.000  Zn
  O137     1.0000 0.40817  0.00606  0.22674  Biso   1.000  O
  N341     1.0000 0.34918  0.00189  0.18106  Biso   1.000  N
  N342     1.0000 0.40260  0.06070  0.17317  Biso   1.000  N
  N343     1.0000 0.31164  0.97630  0.15382  Biso   1.000  N
  C273     1.0000 0.45477  0.99873  0.25900  Biso   1.000  C
  O138     1.0000 0.42434  0.04767  0.25635  Biso   1.000  O
  C274     1.0000 0.42656  0.01950  0.24759  Biso   1.000  C
  C275     1.0000 0.33275  0.00086  0.15396  Biso   1.000  C
  C276     1.0000 0.42797  0.08100  0.17400  Biso   1.000  C
  N344     1.0000 0.33800  0.97700  0.19910  Biso   1.000  N
  N345     1.0000 0.44870  0.08310  0.19870  Biso   1.000  N
  H205     1.0000 0.46640  0.09370  0.19640  Biso   1.000  H
  H206     1.0000 0.44430  0.07390  0.21680  Biso   1.000  H
  N346     1.0000 0.33450  0.02360  0.13010  Biso   1.000  N
  H207     1.0000 0.34700  0.04000  0.13230  Biso   1.000  H
  H208     1.0000 0.32300  0.02150  0.11290  Biso   1.000  H
  N347     1.0000 0.43327  0.09430  0.14616  Biso   1.000  N
  N348     1.0000 0.40920  0.08290  0.12670  Biso   1.000  N
  N349     1.0000 0.31700  0.96150  0.18260  Biso   1.000  N
  C277     1.0000 0.47221  0.00857  0.28604  Biso   1.000  C
  H209     1.0000 0.46600  0.02680  0.29770  Biso   1.000  H
  O139     1.0000 0.49220  0.09640  0.10260  Biso   1.000  O
  N350     1.0000 0.39080  0.06490  0.14300  Biso   1.000  N
  C278     1.0000 0.54350  0.05670  0.08960  Biso   1.000  C
  H210     1.0000 0.53070  0.05250  0.10760  Biso   1.000  H
  O140     1.0000 0.50310  0.12790  0.06050  Biso   1.000  O
  C279     1.0000 0.53700  0.08220  0.06990  Biso   1.000  C
  C280     1.0000 0.50850  0.10390  0.07750  Biso   1.000  C
  Zn36     1.0000 0.37758  0.53351  0.70388  Biso   1.000  Zn
  O141     1.0000 0.40817  0.50606  0.72674  Biso   1.000  O
  N351     1.0000 0.34918  0.50189  0.68106  Biso   1.000  N
  N352     1.0000 0.40260  0.56070  0.67317  Biso   1.000  N
  N353     1.0000 0.31164  0.47630  0.65382  Biso   1.000  N
  C281     1.0000 0.45477  0.49873  0.75900  Biso   1.000  C
  O142     1.0000 0.42434  0.54767  0.75635  Biso   1.000  O
  C282     1.0000 0.42656  0.51950  0.74759  Biso   1.000  C
  C283     1.0000 0.33275  0.50086  0.65396  Biso   1.000  C
  C284     1.0000 0.42797  0.58100  0.67400  Biso   1.000  C
  N354     1.0000 0.33800  0.47700  0.69910  Biso   1.000  N
  N355     1.0000 0.44870  0.58310  0.69870  Biso   1.000  N
  H211     1.0000 0.46640  0.59370  0.69640  Biso   1.000  H
  H212     1.0000 0.44430  0.57390  0.71680  Biso   1.000  H
  N356     1.0000 0.33450  0.52360  0.63010  Biso   1.000  N
  H213     1.0000 0.34700  0.54000  0.63230  Biso   1.000  H
  H214     1.0000 0.32300  0.52150  0.61290  Biso   1.000  H
  N357     1.0000 0.43327  0.59430  0.64616  Biso   1.000  N
  N358     1.0000 0.40920  0.58290  0.62670  Biso   1.000  N
  N359     1.0000 0.31700  0.46150  0.68260  Biso   1.000  N
  C285     1.0000 0.47221  0.50857  0.78604  Biso   1.000  C
  H215     1.0000 0.46600  0.52680  0.79770  Biso   1.000  H
  O143     1.0000 0.49220  0.59640  0.60260  Biso   1.000  O
  N360     1.0000 0.39080  0.56490  0.64300  Biso   1.000  N
  C286     1.0000 0.54350  0.55670  0.58960  Biso   1.000  C
  H216     1.0000 0.53070  0.55250  0.60760  Biso   1.000  H
  O144     1.0000 0.50310  0.62790  0.56050  Biso   1.000  O
  C287     1.0000 0.53700  0.58220  0.56990  Biso   1.000  C
  C288     1.0000 0.50850  0.60390  0.57750  Biso   1.000  C
  Zn37     1.0000 0.37242  0.03351  0.54612  Biso   1.000  Zn
  O145     1.0000 0.34183  0.00606  0.52326  Biso   1.000  O
  N361     1.0000 0.40082  0.00189  0.56894  Biso   1.000  N
  N362     1.0000 0.34740  0.06070  0.57683  Biso   1.000  N
  N363     1.0000 0.43836  0.97630  0.59618  Biso   1.000  N
  C289     1.0000 0.29523  0.99873  0.49100  Biso   1.000  C
  O146     1.0000 0.32566  0.04767  0.49365  Biso   1.000  O
  C290     1.0000 0.32344  0.01950  0.50241  Biso   1.000  C
  C291     1.0000 0.41725  0.00086  0.59604  Biso   1.000  C
  C292     1.0000 0.32203  0.08100  0.57600  Biso   1.000  C
  N364     1.0000 0.41200  0.97700  0.55090  Biso   1.000  N
  N365     1.0000 0.30130  0.08310  0.55130  Biso   1.000  N
  H217     1.0000 0.28360  0.09370  0.55360  Biso   1.000  H
  H218     1.0000 0.30570  0.07390  0.53320  Biso   1.000  H
  N366     1.0000 0.41550  0.02360  0.61990  Biso   1.000  N
  H219     1.0000 0.40300  0.04000  0.61770  Biso   1.000  H
  H220     1.0000 0.42700  0.02150  0.63710  Biso   1.000  H
  N367     1.0000 0.31673  0.09430  0.60384  Biso   1.000  N
  N368     1.0000 0.34080  0.08290  0.62330  Biso   1.000  N
  N369     1.0000 0.43300  0.96150  0.56740  Biso   1.000  N
  C293     1.0000 0.27779  0.00857  0.46396  Biso   1.000  C
  H221     1.0000 0.28400  0.02680  0.45230  Biso   1.000  H
  O147     1.0000 0.25780  0.09640  0.64740  Biso   1.000  O
  N370     1.0000 0.35920  0.06490  0.60700  Biso   1.000  N
  C294     1.0000 0.20650  0.05670  0.66040  Biso   1.000  C
  H222     1.0000 0.21930  0.05250  0.64240  Biso   1.000  H
  O148     1.0000 0.24690  0.12790  0.68950  Biso   1.000  O
  C295     1.0000 0.21300  0.08220  0.68010  Biso   1.000  C
  C296     1.0000 0.24150  0.10390  0.67250  Biso   1.000  C
  Zn38     1.0000 0.37242  0.53351  0.04612  Biso   1.000  Zn
  O149     1.0000 0.34183  0.50606  0.02326  Biso   1.000  O
  N371     1.0000 0.40082  0.50189  0.06894  Biso   1.000  N
  N372     1.0000 0.34740  0.56070  0.07683  Biso   1.000  N
  N373     1.0000 0.43836  0.47630  0.09618  Biso   1.000  N
  C297     1.0000 0.29523  0.49873  0.99100  Biso   1.000  C
  O150     1.0000 0.32566  0.54767  0.99365  Biso   1.000  O
  C298     1.0000 0.32344  0.51950  0.00241  Biso   1.000  C
  C299     1.0000 0.41725  0.50086  0.09604  Biso   1.000  C
  C300     1.0000 0.32203  0.58100  0.07600  Biso   1.000  C
  N374     1.0000 0.41200  0.47700  0.05090  Biso   1.000  N
  N375     1.0000 0.30130  0.58310  0.05130  Biso   1.000  N
  H223     1.0000 0.28360  0.59370  0.05360  Biso   1.000  H
  H224     1.0000 0.30570  0.57390  0.03320  Biso   1.000  H
  N376     1.0000 0.41550  0.52360  0.11990  Biso   1.000  N
  H225     1.0000 0.40300  0.54000  0.11770  Biso   1.000  H
  H226     1.0000 0.42700  0.52150  0.13710  Biso   1.000  H
  N377     1.0000 0.31673  0.59430  0.10384  Biso   1.000  N
  N378     1.0000 0.34080  0.58290  0.12330  Biso   1.000  N
  N379     1.0000 0.43300  0.46150  0.06740  Biso   1.000  N
  C301     1.0000 0.27779  0.50857  0.96396  Biso   1.000  C
  H227     1.0000 0.28400  0.52680  0.95230  Biso   1.000  H
  O151     1.0000 0.25780  0.59640  0.14740  Biso   1.000  O
  N380     1.0000 0.35920  0.56490  0.10700  Biso   1.000  N
  C302     1.0000 0.20650  0.55670  0.16040  Biso   1.000  C
  H228     1.0000 0.21930  0.55250  0.14240  Biso   1.000  H
  O152     1.0000 0.24690  0.62790  0.18950  Biso   1.000  O
  C303     1.0000 0.21300  0.58220  0.18010  Biso   1.000  C
  C304     1.0000 0.24150  0.60390  0.17250  Biso   1.000  C
  Zn39     1.0000 0.87242  0.03351  0.04612  Biso   1.000  Zn
  O153     1.0000 0.84183  0.00606  0.02326  Biso   1.000  O
  N381     1.0000 0.90082  0.00189  0.06894  Biso   1.000  N
  N382     1.0000 0.84740  0.06070  0.07683  Biso   1.000  N
  N383     1.0000 0.93836  0.97630  0.09618  Biso   1.000  N
  C305     1.0000 0.79523  0.99873  0.99100  Biso   1.000  C
  O154     1.0000 0.82566  0.04767  0.99365  Biso   1.000  O
  C306     1.0000 0.82344  0.01950  0.00241  Biso   1.000  C
  C307     1.0000 0.91725  0.00086  0.09604  Biso   1.000  C
  C308     1.0000 0.82203  0.08100  0.07600  Biso   1.000  C
  N384     1.0000 0.91200  0.97700  0.05090  Biso   1.000  N
  N385     1.0000 0.80130  0.08310  0.05130  Biso   1.000  N
  H229     1.0000 0.78360  0.09370  0.05360  Biso   1.000  H
  H230     1.0000 0.80570  0.07390  0.03320  Biso   1.000  H
  N386     1.0000 0.91550  0.02360  0.11990  Biso   1.000  N
  H231     1.0000 0.90300  0.04000  0.11770  Biso   1.000  H
  H232     1.0000 0.92700  0.02150  0.13710  Biso   1.000  H
  N387     1.0000 0.81673  0.09430  0.10384  Biso   1.000  N
  N388     1.0000 0.84080  0.08290  0.12330  Biso   1.000  N
  N389     1.0000 0.93300  0.96150  0.06740  Biso   1.000  N
  C309     1.0000 0.77779  0.00857  0.96396  Biso   1.000  C
  H233     1.0000 0.78400  0.02680  0.95230  Biso   1.000  H
  O155     1.0000 0.75780  0.09640  0.14740  Biso   1.000  O
  N390     1.0000 0.85920  0.06490  0.10700  Biso   1.000  N
  C310     1.0000 0.70650  0.05670  0.16040  Biso   1.000  C
  H234     1.0000 0.71930  0.05250  0.14240  Biso   1.000  H
  O156     1.0000 0.74690  0.12790  0.18950  Biso   1.000  O
  C311     1.0000 0.71300  0.08220  0.18010  Biso   1.000  C
  C312     1.0000 0.74150  0.10390  0.17250  Biso   1.000  C
  Zn40     1.0000 0.87242  0.53351  0.54612  Biso   1.000  Zn
  O157     1.0000 0.84183  0.50606  0.52326  Biso   1.000  O
  N391     1.0000 0.90082  0.50189  0.56894  Biso   1.000  N
  N392     1.0000 0.84740  0.56070  0.57683  Biso   1.000  N
  N393     1.0000 0.93836  0.47630  0.59618  Biso   1.000  N
  C313     1.0000 0.79523  0.49873  0.49100  Biso   1.000  C
  O158     1.0000 0.82566  0.54767  0.49365  Biso   1.000  O
  C314     1.0000 0.82344  0.51950  0.50241  Biso   1.000  C
  C315     1.0000 0.91725  0.50086  0.59604  Biso   1.000  C
  C316     1.0000 0.82203  0.58100  0.57600  Biso   1.000  C
  N394     1.0000 0.91200  0.47700  0.55090  Biso   1.000  N
  N395     1.0000 0.80130  0.58310  0.55130  Biso   1.000  N
  H235     1.0000 0.78360  0.59370  0.55360  Biso   1.000  H
  H236     1.0000 0.80570  0.57390  0.53320  Biso   1.000  H
  N396     1.0000 0.91550  0.52360  0.61990  Biso   1.000  N
  H237     1.0000 0.90300  0.54000  0.61770  Biso   1.000  H
  H238     1.0000 0.92700  0.52150  0.63710  Biso   1.000  H
  N397     1.0000 0.81673  0.59430  0.60384  Biso   1.000  N
  N398     1.0000 0.84080  0.58290  0.62330  Biso   1.000  N
  N399     1.0000 0.93300  0.46150  0.56740  Biso   1.000  N
  C317     1.0000 0.77779  0.50857  0.46396  Biso   1.000  C
  H239     1.0000 0.78400  0.52680  0.45230  Biso   1.000  H
  O159     1.0000 0.75780  0.59640  0.64740  Biso   1.000  O
  N400     1.0000 0.85920  0.56490  0.60700  Biso   1.000  N
  C318     1.0000 0.70650  0.55670  0.66040  Biso   1.000  C
  H240     1.0000 0.71930  0.55250  0.64240  Biso   1.000  H
  O160     1.0000 0.74690  0.62790  0.68950  Biso   1.000  O
  C319     1.0000 0.71300  0.58220  0.68010  Biso   1.000  C
  C320     1.0000 0.74150  0.60390  0.67250  Biso   1.000  C
  Zn41     1.0000 0.87758  0.21649  0.54612  Biso   1.000  Zn
  O161     1.0000 0.90817  0.24394  0.52326  Biso   1.000  O
  N401     1.0000 0.84918  0.24811  0.56894  Biso   1.000  N
  N402     1.0000 0.90260  0.18930  0.57683  Biso   1.000  N
  N403     1.0000 0.81164  0.27370  0.59618  Biso   1.000  N
  C321     1.0000 0.95477  0.25127  0.49100  Biso   1.000  C
  O162     1.0000 0.92434  0.20233  0.49365  Biso   1.000  O
  C322     1.0000 0.92656  0.23050  0.50241  Biso   1.000  C
  C323     1.0000 0.83275  0.24914  0.59604  Biso   1.000  C
  C324     1.0000 0.92797  0.16900  0.57600  Biso   1.000  C
  N404     1.0000 0.83800  0.27300  0.55090  Biso   1.000  N
  N405     1.0000 0.94870  0.16690  0.55130  Biso   1.000  N
  H241     1.0000 0.96640  0.15630  0.55360  Biso   1.000  H
  H242     1.0000 0.94430  0.17610  0.53320  Biso   1.000  H
  N406     1.0000 0.83450  0.22640  0.61990  Biso   1.000  N
  H243     1.0000 0.84700  0.21000  0.61770  Biso   1.000  H
  H244     1.0000 0.82300  0.22850  0.63710  Biso   1.000  H
  N407     1.0000 0.93327  0.15570  0.60384  Biso   1.000  N
  N408     1.0000 0.90920  0.16710  0.62330  Biso   1.000  N
  N409     1.0000 0.81700  0.28850  0.56740  Biso   1.000  N
  C325     1.0000 0.97221  0.24143  0.46396  Biso   1.000  C
  H245     1.0000 0.96600  0.22320  0.45230  Biso   1.000  H
  O163     1.0000 0.99220  0.15360  0.64740  Biso   1.000  O
  N410     1.0000 0.89080  0.18510  0.60700  Biso   1.000  N
  C326     1.0000 0.04350  0.19330  0.66040  Biso   1.000  C
  H246     1.0000 0.03070  0.19750  0.64240  Biso   1.000  H
  O164     1.0000 0.00310  0.12210  0.68950  Biso   1.000  O
  C327     1.0000 0.03700  0.16780  0.68010  Biso   1.000  C
  C328     1.0000 0.00850  0.14610  0.67250  Biso   1.000  C
  Zn42     1.0000 0.87758  0.71649  0.04612  Biso   1.000  Zn
  O165     1.0000 0.90817  0.74394  0.02326  Biso   1.000  O
  N411     1.0000 0.84918  0.74811  0.06894  Biso   1.000  N
  N412     1.0000 0.90260  0.68930  0.07683  Biso   1.000  N
  N413     1.0000 0.81164  0.77370  0.09618  Biso   1.000  N
  C329     1.0000 0.95477  0.75127  0.99100  Biso   1.000  C
  O166     1.0000 0.92434  0.70233  0.99365  Biso   1.000  O
  C330     1.0000 0.92656  0.73050  0.00241  Biso   1.000  C
  C331     1.0000 0.83275  0.74914  0.09604  Biso   1.000  C
  C332     1.0000 0.92797  0.66900  0.07600  Biso   1.000  C
  N414     1.0000 0.83800  0.77300  0.05090  Biso   1.000  N
  N415     1.0000 0.94870  0.66690  0.05130  Biso   1.000  N
  H247     1.0000 0.96640  0.65630  0.05360  Biso   1.000  H
  H248     1.0000 0.94430  0.67610  0.03320  Biso   1.000  H
  N416     1.0000 0.83450  0.72640  0.11990  Biso   1.000  N
  H249     1.0000 0.84700  0.71000  0.11770  Biso   1.000  H
  H250     1.0000 0.82300  0.72850  0.13710  Biso   1.000  H
  N417     1.0000 0.93327  0.65570  0.10384  Biso   1.000  N
  N418     1.0000 0.90920  0.66710  0.12330  Biso   1.000  N
  N419     1.0000 0.81700  0.78850  0.06740  Biso   1.000  N
  C333     1.0000 0.97221  0.74143  0.96396  Biso   1.000  C
  H251     1.0000 0.96600  0.72320  0.95230  Biso   1.000  H
  O167     1.0000 0.99220  0.65360  0.14740  Biso   1.000  O
  N420     1.0000 0.89080  0.68510  0.10700  Biso   1.000  N
  C334     1.0000 0.04350  0.69330  0.16040  Biso   1.000  C
  H252     1.0000 0.03070  0.69750  0.14240  Biso   1.000  H
  O168     1.0000 0.00310  0.62210  0.18950  Biso   1.000  O
  C335     1.0000 0.03700  0.66780  0.18010  Biso   1.000  C
  C336     1.0000 0.00850  0.64610  0.17250  Biso   1.000  C
  Zn43     1.0000 0.37758  0.21649  0.04612  Biso   1.000  Zn
  O169     1.0000 0.40817  0.24394  0.02326  Biso   1.000  O
  N421     1.0000 0.34918  0.24811  0.06894  Biso   1.000  N
  N422     1.0000 0.40260  0.18930  0.07683  Biso   1.000  N
  N423     1.0000 0.31164  0.27370  0.09618  Biso   1.000  N
  C337     1.0000 0.45477  0.25127  0.99100  Biso   1.000  C
  O170     1.0000 0.42434  0.20233  0.99365  Biso   1.000  O
  C338     1.0000 0.42656  0.23050  0.00241  Biso   1.000  C
  C339     1.0000 0.33275  0.24914  0.09604  Biso   1.000  C
  C340     1.0000 0.42797  0.16900  0.07600  Biso   1.000  C
  N424     1.0000 0.33800  0.27300  0.05090  Biso   1.000  N
  N425     1.0000 0.44870  0.16690  0.05130  Biso   1.000  N
  H253     1.0000 0.46640  0.15630  0.05360  Biso   1.000  H
  H254     1.0000 0.44430  0.17610  0.03320  Biso   1.000  H
  N426     1.0000 0.33450  0.22640  0.11990  Biso   1.000  N
  H255     1.0000 0.34700  0.21000  0.11770  Biso   1.000  H
  H256     1.0000 0.32300  0.22850  0.13710  Biso   1.000  H
  N427     1.0000 0.43327  0.15570  0.10384  Biso   1.000  N
  N428     1.0000 0.40920  0.16710  0.12330  Biso   1.000  N
  N429     1.0000 0.31700  0.28850  0.06740  Biso   1.000  N
  C341     1.0000 0.47221  0.24143  0.96396  Biso   1.000  C
  H257     1.0000 0.46600  0.22320  0.95230  Biso   1.000  H
  O171     1.0000 0.49220  0.15360  0.14740  Biso   1.000  O
  N430     1.0000 0.39080  0.18510  0.10700  Biso   1.000  N
  C342     1.0000 0.54350  0.19330  0.16040  Biso   1.000  C
  H258     1.0000 0.53070  0.19750  0.14240  Biso   1.000  H
  O172     1.0000 0.50310  0.12210  0.18950  Biso   1.000  O
  C343     1.0000 0.53700  0.16780  0.18010  Biso   1.000  C
  C344     1.0000 0.50850  0.14610  0.17250  Biso   1.000  C
  Zn44     1.0000 0.37758  0.71649  0.54612  Biso   1.000  Zn
  O173     1.0000 0.40817  0.74394  0.52326  Biso   1.000  O
  N431     1.0000 0.34918  0.74811  0.56894  Biso   1.000  N
  N432     1.0000 0.40260  0.68930  0.57683  Biso   1.000  N
  N433     1.0000 0.31164  0.77370  0.59618  Biso   1.000  N
  C345     1.0000 0.45477  0.75127  0.49100  Biso   1.000  C
  O174     1.0000 0.42434  0.70233  0.49365  Biso   1.000  O
  C346     1.0000 0.42656  0.73050  0.50241  Biso   1.000  C
  C347     1.0000 0.33275  0.74914  0.59604  Biso   1.000  C
  C348     1.0000 0.42797  0.66900  0.57600  Biso   1.000  C
  N434     1.0000 0.33800  0.77300  0.55090  Biso   1.000  N
  N435     1.0000 0.44870  0.66690  0.55130  Biso   1.000  N
  H259     1.0000 0.46640  0.65630  0.55360  Biso   1.000  H
  H260     1.0000 0.44430  0.67610  0.53320  Biso   1.000  H
  N436     1.0000 0.33450  0.72640  0.61990  Biso   1.000  N
  H261     1.0000 0.34700  0.71000  0.61770  Biso   1.000  H
  H262     1.0000 0.32300  0.72850  0.63710  Biso   1.000  H
  N437     1.0000 0.43327  0.65570  0.60384  Biso   1.000  N
  N438     1.0000 0.40920  0.66710  0.62330  Biso   1.000  N
  N439     1.0000 0.31700  0.78850  0.56740  Biso   1.000  N
  C349     1.0000 0.47221  0.74143  0.46396  Biso   1.000  C
  H263     1.0000 0.46600  0.72320  0.45230  Biso   1.000  H
  O175     1.0000 0.49220  0.65360  0.64740  Biso   1.000  O
  N440     1.0000 0.39080  0.68510  0.60700  Biso   1.000  N
  C350     1.0000 0.54350  0.69330  0.66040  Biso   1.000  C
  H264     1.0000 0.53070  0.69750  0.64240  Biso   1.000  H
  O176     1.0000 0.50310  0.62210  0.68950  Biso   1.000  O
  C351     1.0000 0.53700  0.66780  0.68010  Biso   1.000  C
  C352     1.0000 0.50850  0.64610  0.67250  Biso   1.000  C
  Zn45     1.0000 0.37242  0.21649  0.70388  Biso   1.000  Zn
  O177     1.0000 0.34183  0.24394  0.72674  Biso   1.000  O
  N441     1.0000 0.40082  0.24811  0.68106  Biso   1.000  N
  N442     1.0000 0.34740  0.18930  0.67317  Biso   1.000  N
  N443     1.0000 0.43836  0.27370  0.65382  Biso   1.000  N
  C353     1.0000 0.29523  0.25127  0.75900  Biso   1.000  C
  O178     1.0000 0.32566  0.20233  0.75635  Biso   1.000  O
  C354     1.0000 0.32344  0.23050  0.74759  Biso   1.000  C
  C355     1.0000 0.41725  0.24914  0.65396  Biso   1.000  C
  C356     1.0000 0.32203  0.16900  0.67400  Biso   1.000  C
  N444     1.0000 0.41200  0.27300  0.69910  Biso   1.000  N
  N445     1.0000 0.30130  0.16690  0.69870  Biso   1.000  N
  H265     1.0000 0.28360  0.15630  0.69640  Biso   1.000  H
  H266     1.0000 0.30570  0.17610  0.71680  Biso   1.000  H
  N446     1.0000 0.41550  0.22640  0.63010  Biso   1.000  N
  H267     1.0000 0.40300  0.21000  0.63230  Biso   1.000  H
  H268     1.0000 0.42700  0.22850  0.61290  Biso   1.000  H
  N447     1.0000 0.31673  0.15570  0.64616  Biso   1.000  N
  N448     1.0000 0.34080  0.16710  0.62670  Biso   1.000  N
  N449     1.0000 0.43300  0.28850  0.68260  Biso   1.000  N
  C357     1.0000 0.27779  0.24143  0.78604  Biso   1.000  C
  H269     1.0000 0.28400  0.22320  0.79770  Biso   1.000  H
  O179     1.0000 0.25780  0.15360  0.60260  Biso   1.000  O
  N450     1.0000 0.35920  0.18510  0.64300  Biso   1.000  N
  C358     1.0000 0.20650  0.19330  0.58960  Biso   1.000  C
  H270     1.0000 0.21930  0.19750  0.60760  Biso   1.000  H
  O180     1.0000 0.24690  0.12210  0.56050  Biso   1.000  O
  C359     1.0000 0.21300  0.16780  0.56990  Biso   1.000  C
  C360     1.0000 0.24150  0.14610  0.57750  Biso   1.000  C
  Zn46     1.0000 0.37242  0.71649  0.20388  Biso   1.000  Zn
  O181     1.0000 0.34183  0.74394  0.22674  Biso   1.000  O
  N451     1.0000 0.40082  0.74811  0.18106  Biso   1.000  N
  N452     1.0000 0.34740  0.68930  0.17317  Biso   1.000  N
  N453     1.0000 0.43836  0.77370  0.15382  Biso   1.000  N
  C361     1.0000 0.29523  0.75127  0.25900  Biso   1.000  C
  O182     1.0000 0.32566  0.70233  0.25635  Biso   1.000  O
  C362     1.0000 0.32344  0.73050  0.24759  Biso   1.000  C
  C363     1.0000 0.41725  0.74914  0.15396  Biso   1.000  C
  C364     1.0000 0.32203  0.66900  0.17400  Biso   1.000  C
  N454     1.0000 0.41200  0.77300  0.19910  Biso   1.000  N
  N455     1.0000 0.30130  0.66690  0.19870  Biso   1.000  N
  H271     1.0000 0.28360  0.65630  0.19640  Biso   1.000  H
  H272     1.0000 0.30570  0.67610  0.21680  Biso   1.000  H
  N456     1.0000 0.41550  0.72640  0.13010  Biso   1.000  N
  H273     1.0000 0.40300  0.71000  0.13230  Biso   1.000  H
  H274     1.0000 0.42700  0.72850  0.11290  Biso   1.000  H
  N457     1.0000 0.31673  0.65570  0.14616  Biso   1.000  N
  N458     1.0000 0.34080  0.66710  0.12670  Biso   1.000  N
  N459     1.0000 0.43300  0.78850  0.18260  Biso   1.000  N
  C365     1.0000 0.27779  0.74143  0.28604  Biso   1.000  C
  H275     1.0000 0.28400  0.72320  0.29770  Biso   1.000  H
  O183     1.0000 0.25780  0.65360  0.10260  Biso   1.000  O
  N460     1.0000 0.35920  0.68510  0.14300  Biso   1.000  N
  C366     1.0000 0.20650  0.69330  0.08960  Biso   1.000  C
  H276     1.0000 0.21930  0.69750  0.10760  Biso   1.000  H
  O184     1.0000 0.24690  0.62210  0.06050  Biso   1.000  O
  C367     1.0000 0.21300  0.66780  0.06990  Biso   1.000  C
  C368     1.0000 0.24150  0.64610  0.07750  Biso   1.000  C
  Zn47     1.0000 0.87242  0.21649  0.20388  Biso   1.000  Zn
  O185     1.0000 0.84183  0.24394  0.22674  Biso   1.000  O
  N461     1.0000 0.90082  0.24811  0.18106  Biso   1.000  N
  N462     1.0000 0.84740  0.18930  0.17317  Biso   1.000  N
  N463     1.0000 0.93836  0.27370  0.15382  Biso   1.000  N
  C369     1.0000 0.79523  0.25127  0.25900  Biso   1.000  C
  O186     1.0000 0.82566  0.20233  0.25635  Biso   1.000  O
  C370     1.0000 0.82344  0.23050  0.24759  Biso   1.000  C
  C371     1.0000 0.91725  0.24914  0.15396  Biso   1.000  C
  C372     1.0000 0.82203  0.16900  0.17400  Biso   1.000  C
  N464     1.0000 0.91200  0.27300  0.19910  Biso   1.000  N
  N465     1.0000 0.80130  0.16690  0.19870  Biso   1.000  N
  H277     1.0000 0.78360  0.15630  0.19640  Biso   1.000  H
  H278     1.0000 0.80570  0.17610  0.21680  Biso   1.000  H
  N466     1.0000 0.91550  0.22640  0.13010  Biso   1.000  N
  H279     1.0000 0.90300  0.21000  0.13230  Biso   1.000  H
  H280     1.0000 0.92700  0.22850  0.11290  Biso   1.000  H
  N467     1.0000 0.81673  0.15570  0.14616  Biso   1.000  N
  N468     1.0000 0.84080  0.16710  0.12670  Biso   1.000  N
  N469     1.0000 0.93300  0.28850  0.18260  Biso   1.000  N
  C373     1.0000 0.77779  0.24143  0.28604  Biso   1.000  C
  H281     1.0000 0.78400  0.22320  0.29770  Biso   1.000  H
  O187     1.0000 0.75780  0.15360  0.10260  Biso   1.000  O
  N470     1.0000 0.85920  0.18510  0.14300  Biso   1.000  N
  C374     1.0000 0.70650  0.19330  0.08960  Biso   1.000  C
  H282     1.0000 0.71930  0.19750  0.10760  Biso   1.000  H
  O188     1.0000 0.74690  0.12210  0.06050  Biso   1.000  O
  C375     1.0000 0.71300  0.16780  0.06990  Biso   1.000  C
  C376     1.0000 0.74150  0.14610  0.07750  Biso   1.000  C
  Zn48     1.0000 0.87242  0.71649  0.70388  Biso   1.000  Zn
  O189     1.0000 0.84183  0.74394  0.72674  Biso   1.000  O
  N471     1.0000 0.90082  0.74811  0.68106  Biso   1.000  N
  N472     1.0000 0.84740  0.68930  0.67317  Biso   1.000  N
  N473     1.0000 0.93836  0.77370  0.65382  Biso   1.000  N
  C377     1.0000 0.79523  0.75127  0.75900  Biso   1.000  C
  O190     1.0000 0.82566  0.70233  0.75635  Biso   1.000  O
  C378     1.0000 0.82344  0.73050  0.74759  Biso   1.000  C
  C379     1.0000 0.91725  0.74914  0.65396  Biso   1.000  C
  C380     1.0000 0.82203  0.66900  0.67400  Biso   1.000  C
  N474     1.0000 0.91200  0.77300  0.69910  Biso   1.000  N
  N475     1.0000 0.80130  0.66690  0.69870  Biso   1.000  N
  H283     1.0000 0.78360  0.65630  0.69640  Biso   1.000  H
  H284     1.0000 0.80570  0.67610  0.71680  Biso   1.000  H
  N476     1.0000 0.91550  0.72640  0.63010  Biso   1.000  N
  H285     1.0000 0.90300  0.71000  0.63230  Biso   1.000  H
  H286     1.0000 0.92700  0.72850  0.61290  Biso   1.000  H
  N477     1.0000 0.81673  0.65570  0.64616  Biso   1.000  N
  N478     1.0000 0.84080  0.66710  0.62670  Biso   1.000  N
  N479     1.0000 0.93300  0.78850  0.68260  Biso   1.000  N
  C381     1.0000 0.77779  0.74143  0.78604  Biso   1.000  C
  H287     1.0000 0.78400  0.72320  0.79770  Biso   1.000  H
  O191     1.0000 0.75780  0.65360  0.60260  Biso   1.000  O
  N480     1.0000 0.85920  0.68510  0.64300  Biso   1.000  N
  C382     1.0000 0.70650  0.69330  0.58960  Biso   1.000  C
  H288     1.0000 0.71930  0.69750  0.60760  Biso   1.000  H
  O192     1.0000 0.74690  0.62210  0.56050  Biso   1.000  O
  C383     1.0000 0.71300  0.66780  0.56990  Biso   1.000  C
  C384     1.0000 0.74150  0.64610  0.57750  Biso   1.000  C
  Zn49     1.0000 0.29612  0.12242  0.96649  Biso   1.000  Zn
  O193     1.0000 0.27326  0.09183  0.99394  Biso   1.000  O
  N481     1.0000 0.31894  0.15082  0.99811  Biso   1.000  N
  N482     1.0000 0.32683  0.09740  0.93930  Biso   1.000  N
  N483     1.0000 0.34618  0.18836  0.02370  Biso   1.000  N
  C385     1.0000 0.24100  0.04523  0.00127  Biso   1.000  C
  O194     1.0000 0.24365  0.07566  0.95233  Biso   1.000  O
  C386     1.0000 0.25241  0.07344  0.98050  Biso   1.000  C
  C387     1.0000 0.34604  0.16725  0.99914  Biso   1.000  C
  C388     1.0000 0.32600  0.07203  0.91900  Biso   1.000  C
  N484     1.0000 0.30090  0.16200  0.02300  Biso   1.000  N
  N485     1.0000 0.30130  0.05130  0.91690  Biso   1.000  N
  H289     1.0000 0.30360  0.03360  0.90630  Biso   1.000  H
  H290     1.0000 0.28320  0.05570  0.92610  Biso   1.000  H
  N486     1.0000 0.36990  0.16550  0.97640  Biso   1.000  N
  H291     1.0000 0.36770  0.15300  0.96000  Biso   1.000  H
  H292     1.0000 0.38710  0.17700  0.97850  Biso   1.000  H
  N487     1.0000 0.35384  0.06673  0.90570  Biso   1.000  N
  N488     1.0000 0.37330  0.09080  0.91710  Biso   1.000  N
  N489     1.0000 0.31740  0.18300  0.03850  Biso   1.000  N
  C389     1.0000 0.21396  0.02779  0.99143  Biso   1.000  C
  H293     1.0000 0.20230  0.03400  0.97320  Biso   1.000  H
  O195     1.0000 0.39740  0.00780  0.90360  Biso   1.000  O
  N490     1.0000 0.35700  0.10920  0.93510  Biso   1.000  N
  C390     1.0000 0.41040  0.95650  0.94330  Biso   1.000  C
  H294     1.0000 0.39240  0.96930  0.94750  Biso   1.000  H
  O196     1.0000 0.43950  0.99690  0.87210  Biso   1.000  O
  C391     1.0000 0.43010  0.96300  0.91780  Biso   1.000  C
  C392     1.0000 0.42250  0.99150  0.89610  Biso   1.000  C
  Zn50     1.0000 0.29612  0.62242  0.46649  Biso   1.000  Zn
  O197     1.0000 0.27326  0.59183  0.49394  Biso   1.000  O
  N491     1.0000 0.31894  0.65082  0.49811  Biso   1.000  N
  N492     1.0000 0.32683  0.59740  0.43930  Biso   1.000  N
  N493     1.0000 0.34618  0.68836  0.52370  Biso   1.000  N
  C393     1.0000 0.24100  0.54523  0.50127  Biso   1.000  C
  O198     1.0000 0.24365  0.57566  0.45233  Biso   1.000  O
  C394     1.0000 0.25241  0.57344  0.48050  Biso   1.000  C
  C395     1.0000 0.34604  0.66725  0.49914  Biso   1.000  C
  C396     1.0000 0.32600  0.57203  0.41900  Biso   1.000  C
  N494     1.0000 0.30090  0.66200  0.52300  Biso   1.000  N
  N495     1.0000 0.30130  0.55130  0.41690  Biso   1.000  N
  H295     1.0000 0.30360  0.53360  0.40630  Biso   1.000  H
  H296     1.0000 0.28320  0.55570  0.42610  Biso   1.000  H
  N496     1.0000 0.36990  0.66550  0.47640  Biso   1.000  N
  H297     1.0000 0.36770  0.65300  0.46000  Biso   1.000  H
  H298     1.0000 0.38710  0.67700  0.47850  Biso   1.000  H
  N497     1.0000 0.35384  0.56673  0.40570  Biso   1.000  N
  N498     1.0000 0.37330  0.59080  0.41710  Biso   1.000  N
  N499     1.0000 0.31740  0.68300  0.53850  Biso   1.000  N
  C397     1.0000 0.21396  0.52779  0.49143  Biso   1.000  C
  H299     1.0000 0.20230  0.53400  0.47320  Biso   1.000  H
  O199     1.0000 0.39740  0.50780  0.40360  Biso   1.000  O
  N500     1.0000 0.35700  0.60920  0.43510  Biso   1.000  N
  C398     1.0000 0.41040  0.45650  0.44330  Biso   1.000  C
  H300     1.0000 0.39240  0.46930  0.44750  Biso   1.000  H
  O200     1.0000 0.43950  0.49690  0.37210  Biso   1.000  O
  C399     1.0000 0.43010  0.46300  0.41780  Biso   1.000  C
  C400     1.0000 0.42250  0.49150  0.39610  Biso   1.000  C
  Zn51     1.0000 0.79612  0.12242  0.46649  Biso   1.000  Zn
  O201     1.0000 0.77326  0.09183  0.49394  Biso   1.000  O
  N501     1.0000 0.81894  0.15082  0.49811  Biso   1.000  N
  N502     1.0000 0.82683  0.09740  0.43930  Biso   1.000  N
  N503     1.0000 0.84618  0.18836  0.52370  Biso   1.000  N
  C401     1.0000 0.74100  0.04523  0.50127  Biso   1.000  C
  O202     1.0000 0.74365  0.07566  0.45233  Biso   1.000  O
  C402     1.0000 0.75241  0.07344  0.48050  Biso   1.000  C
  C403     1.0000 0.84604  0.16725  0.49914  Biso   1.000  C
  C404     1.0000 0.82600  0.07203  0.41900  Biso   1.000  C
  N504     1.0000 0.80090  0.16200  0.52300  Biso   1.000  N
  N505     1.0000 0.80130  0.05130  0.41690  Biso   1.000  N
  H301     1.0000 0.80360  0.03360  0.40630  Biso   1.000  H
  H302     1.0000 0.78320  0.05570  0.42610  Biso   1.000  H
  N506     1.0000 0.86990  0.16550  0.47640  Biso   1.000  N
  H303     1.0000 0.86770  0.15300  0.46000  Biso   1.000  H
  H304     1.0000 0.88710  0.17700  0.47850  Biso   1.000  H
  N507     1.0000 0.85384  0.06673  0.40570  Biso   1.000  N
  N508     1.0000 0.87330  0.09080  0.41710  Biso   1.000  N
  N509     1.0000 0.81740  0.18300  0.53850  Biso   1.000  N
  C405     1.0000 0.71396  0.02779  0.49143  Biso   1.000  C
  H305     1.0000 0.70230  0.03400  0.47320  Biso   1.000  H
  O203     1.0000 0.89740  0.00780  0.40360  Biso   1.000  O
  N510     1.0000 0.85700  0.10920  0.43510  Biso   1.000  N
  C406     1.0000 0.91040  0.95650  0.44330  Biso   1.000  C
  H306     1.0000 0.89240  0.96930  0.44750  Biso   1.000  H
  O204     1.0000 0.93950  0.99690  0.37210  Biso   1.000  O
  C407     1.0000 0.93010  0.96300  0.41780  Biso   1.000  C
  C408     1.0000 0.92250  0.99150  0.39610  Biso   1.000  C
  Zn52     1.0000 0.79612  0.62242  0.96649  Biso   1.000  Zn
  O205     1.0000 0.77326  0.59183  0.99394  Biso   1.000  O
  N511     1.0000 0.81894  0.65082  0.99811  Biso   1.000  N
  N512     1.0000 0.82683  0.59740  0.93930  Biso   1.000  N
  N513     1.0000 0.84618  0.68836  0.02370  Biso   1.000  N
  C409     1.0000 0.74100  0.54523  0.00127  Biso   1.000  C
  O206     1.0000 0.74365  0.57566  0.95233  Biso   1.000  O
  C410     1.0000 0.75241  0.57344  0.98050  Biso   1.000  C
  C411     1.0000 0.84604  0.66725  0.99914  Biso   1.000  C
  C412     1.0000 0.82600  0.57203  0.91900  Biso   1.000  C
  N514     1.0000 0.80090  0.66200  0.02300  Biso   1.000  N
  N515     1.0000 0.80130  0.55130  0.91690  Biso   1.000  N
  H307     1.0000 0.80360  0.53360  0.90630  Biso   1.000  H
  H308     1.0000 0.78320  0.55570  0.92610  Biso   1.000  H
  N516     1.0000 0.86990  0.66550  0.97640  Biso   1.000  N
  H309     1.0000 0.86770  0.65300  0.96000  Biso   1.000  H
  H310     1.0000 0.88710  0.67700  0.97850  Biso   1.000  H
  N517     1.0000 0.85384  0.56673  0.90570  Biso   1.000  N
  N518     1.0000 0.87330  0.59080  0.91710  Biso   1.000  N
  N519     1.0000 0.81740  0.68300  0.03850  Biso   1.000  N
  C413     1.0000 0.71396  0.52779  0.99143  Biso   1.000  C
  H311     1.0000 0.70230  0.53400  0.97320  Biso   1.000  H
  O207     1.0000 0.89740  0.50780  0.90360  Biso   1.000  O
  N520     1.0000 0.85700  0.60920  0.93510  Biso   1.000  N
  C414     1.0000 0.91040  0.45650  0.94330  Biso   1.000  C
  H312     1.0000 0.89240  0.46930  0.94750  Biso   1.000  H
  O208     1.0000 0.93950  0.49690  0.87210  Biso   1.000  O
  C415     1.0000 0.93010  0.46300  0.91780  Biso   1.000  C
  C416     1.0000 0.92250  0.49150  0.89610  Biso   1.000  C
  Zn53     1.0000 0.45388  0.62758  0.96649  Biso   1.000  Zn
  O209     1.0000 0.47674  0.65817  0.99394  Biso   1.000  O
  N521     1.0000 0.43106  0.59918  0.99811  Biso   1.000  N
  N522     1.0000 0.42317  0.65260  0.93930  Biso   1.000  N
  N523     1.0000 0.40382  0.56164  0.02370  Biso   1.000  N
  C417     1.0000 0.50900  0.70477  0.00127  Biso   1.000  C
  O210     1.0000 0.50635  0.67434  0.95233  Biso   1.000  O
  C418     1.0000 0.49759  0.67656  0.98050  Biso   1.000  C
  C419     1.0000 0.40396  0.58275  0.99914  Biso   1.000  C
  C420     1.0000 0.42400  0.67797  0.91900  Biso   1.000  C
  N524     1.0000 0.44910  0.58800  0.02300  Biso   1.000  N
  N525     1.0000 0.44870  0.69870  0.91690  Biso   1.000  N
  H313     1.0000 0.44640  0.71640  0.90630  Biso   1.000  H
  H314     1.0000 0.46680  0.69430  0.92610  Biso   1.000  H
  N526     1.0000 0.38010  0.58450  0.97640  Biso   1.000  N
  H315     1.0000 0.38230  0.59700  0.96000  Biso   1.000  H
  H316     1.0000 0.36290  0.57300  0.97850  Biso   1.000  H
  N527     1.0000 0.39616  0.68327  0.90570  Biso   1.000  N
  N528     1.0000 0.37670  0.65920  0.91710  Biso   1.000  N
  N529     1.0000 0.43260  0.56700  0.03850  Biso   1.000  N
  C421     1.0000 0.53604  0.72221  0.99143  Biso   1.000  C
  H317     1.0000 0.54770  0.71600  0.97320  Biso   1.000  H
  O211     1.0000 0.35260  0.74220  0.90360  Biso   1.000  O
  N530     1.0000 0.39300  0.64080  0.93510  Biso   1.000  N
  C422     1.0000 0.33960  0.79350  0.94330  Biso   1.000  C
  H318     1.0000 0.35760  0.78070  0.94750  Biso   1.000  H
  O212     1.0000 0.31050  0.75310  0.87210  Biso   1.000  O
  C423     1.0000 0.31990  0.78700  0.91780  Biso   1.000  C
  C424     1.0000 0.32750  0.75850  0.89610  Biso   1.000  C
  Zn54     1.0000 0.45388  0.12758  0.46649  Biso   1.000  Zn
  O213     1.0000 0.47674  0.15817  0.49394  Biso   1.000  O
  N531     1.0000 0.43106  0.09918  0.49811  Biso   1.000  N
  N532     1.0000 0.42317  0.15260  0.43930  Biso   1.000  N
  N533     1.0000 0.40382  0.06164  0.52370  Biso   1.000  N
  C425     1.0000 0.50900  0.20477  0.50127  Biso   1.000  C
  O214     1.0000 0.50635  0.17434  0.45233  Biso   1.000  O
  C426     1.0000 0.49759  0.17656  0.48050  Biso   1.000  C
  C427     1.0000 0.40396  0.08275  0.49914  Biso   1.000  C
  C428     1.0000 0.42400  0.17797  0.41900  Biso   1.000  C
  N534     1.0000 0.44910  0.08800  0.52300  Biso   1.000  N
  N535     1.0000 0.44870  0.19870  0.41690  Biso   1.000  N
  H319     1.0000 0.44640  0.21640  0.40630  Biso   1.000  H
  H320     1.0000 0.46680  0.19430  0.42610  Biso   1.000  H
  N536     1.0000 0.38010  0.08450  0.47640  Biso   1.000  N
  H321     1.0000 0.38230  0.09700  0.46000  Biso   1.000  H
  H322     1.0000 0.36290  0.07300  0.47850  Biso   1.000  H
  N537     1.0000 0.39616  0.18327  0.40570  Biso   1.000  N
  N538     1.0000 0.37670  0.15920  0.41710  Biso   1.000  N
  N539     1.0000 0.43260  0.06700  0.53850  Biso   1.000  N
  C429     1.0000 0.53604  0.22221  0.49143  Biso   1.000  C
  H323     1.0000 0.54770  0.21600  0.47320  Biso   1.000  H
  O215     1.0000 0.35260  0.24220  0.40360  Biso   1.000  O
  N540     1.0000 0.39300  0.14080  0.43510  Biso   1.000  N
  C430     1.0000 0.33960  0.29350  0.44330  Biso   1.000  C
  H324     1.0000 0.35760  0.28070  0.44750  Biso   1.000  H
  O216     1.0000 0.31050  0.25310  0.37210  Biso   1.000  O
  C431     1.0000 0.31990  0.28700  0.41780  Biso   1.000  C
  C432     1.0000 0.32750  0.25850  0.39610  Biso   1.000  C
  Zn55     1.0000 0.95388  0.62758  0.46649  Biso   1.000  Zn
  O217     1.0000 0.97674  0.65817  0.49394  Biso   1.000  O
  N541     1.0000 0.93106  0.59918  0.49811  Biso   1.000  N
  N542     1.0000 0.92317  0.65260  0.43930  Biso   1.000  N
  N543     1.0000 0.90382  0.56164  0.52370  Biso   1.000  N
  C433     1.0000 0.00900  0.70477  0.50127  Biso   1.000  C
  O218     1.0000 0.00635  0.67434  0.45233  Biso   1.000  O
  C434     1.0000 0.99759  0.67656  0.48050  Biso   1.000  C
  C435     1.0000 0.90396  0.58275  0.49914  Biso   1.000  C
  C436     1.0000 0.92400  0.67797  0.41900  Biso   1.000  C
  N544     1.0000 0.94910  0.58800  0.52300  Biso   1.000  N
  N545     1.0000 0.94870  0.69870  0.41690  Biso   1.000  N
  H325     1.0000 0.94640  0.71640  0.40630  Biso   1.000  H
  H326     1.0000 0.96680  0.69430  0.42610  Biso   1.000  H
  N546     1.0000 0.88010  0.58450  0.47640  Biso   1.000  N
  H327     1.0000 0.88230  0.59700  0.46000  Biso   1.000  H
  H328     1.0000 0.86290  0.57300  0.47850  Biso   1.000  H
  N547     1.0000 0.89616  0.68327  0.40570  Biso   1.000  N
  N548     1.0000 0.87670  0.65920  0.41710  Biso   1.000  N
  N549     1.0000 0.93260  0.56700  0.53850  Biso   1.000  N
  C437     1.0000 0.03604  0.72221  0.49143  Biso   1.000  C
  H329     1.0000 0.04770  0.71600  0.47320  Biso   1.000  H
  O219     1.0000 0.85260  0.74220  0.40360  Biso   1.000  O
  N550     1.0000 0.89300  0.64080  0.43510  Biso   1.000  N
  C438     1.0000 0.83960  0.79350  0.44330  Biso   1.000  C
  H330     1.0000 0.85760  0.78070  0.44750  Biso   1.000  H
  O220     1.0000 0.81050  0.75310  0.37210  Biso   1.000  O
  C439     1.0000 0.81990  0.78700  0.41780  Biso   1.000  C
  C440     1.0000 0.82750  0.75850  0.39610  Biso   1.000  C
  Zn56     1.0000 0.95388  0.12758  0.96649  Biso   1.000  Zn
  O221     1.0000 0.97674  0.15817  0.99394  Biso   1.000  O
  N551     1.0000 0.93106  0.09918  0.99811  Biso   1.000  N
  N552     1.0000 0.92317  0.15260  0.93930  Biso   1.000  N
  N553     1.0000 0.90382  0.06164  0.02370  Biso   1.000  N
  C441     1.0000 0.00900  0.20477  0.00127  Biso   1.000  C
  O222     1.0000 0.00635  0.17434  0.95233  Biso   1.000  O
  C442     1.0000 0.99759  0.17656  0.98050  Biso   1.000  C
  C443     1.0000 0.90396  0.08275  0.99914  Biso   1.000  C
  C444     1.0000 0.92400  0.17797  0.91900  Biso   1.000  C
  N554     1.0000 0.94910  0.08800  0.02300  Biso   1.000  N
  N555     1.0000 0.94870  0.19870  0.91690  Biso   1.000  N
  H331     1.0000 0.94640  0.21640  0.90630  Biso   1.000  H
  H332     1.0000 0.96680  0.19430  0.92610  Biso   1.000  H
  N556     1.0000 0.88010  0.08450  0.97640  Biso   1.000  N
  H333     1.0000 0.88230  0.09700  0.96000  Biso   1.000  H
  H334     1.0000 0.86290  0.07300  0.97850  Biso   1.000  H
  N557     1.0000 0.89616  0.18327  0.90570  Biso   1.000  N
  N558     1.0000 0.87670  0.15920  0.91710  Biso   1.000  N
  N559     1.0000 0.93260  0.06700  0.03850  Biso   1.000  N
  C445     1.0000 0.03604  0.22221  0.99143  Biso   1.000  C
  H335     1.0000 0.04770  0.21600  0.97320  Biso   1.000  H
  O223     1.0000 0.85260  0.24220  0.90360  Biso   1.000  O
  N560     1.0000 0.89300  0.14080  0.93510  Biso   1.000  N
  C446     1.0000 0.83960  0.29350  0.94330  Biso   1.000  C
  H336     1.0000 0.85760  0.28070  0.94750  Biso   1.000  H
  O224     1.0000 0.81050  0.25310  0.87210  Biso   1.000  O
  C447     1.0000 0.81990  0.28700  0.91780  Biso   1.000  C
  C448     1.0000 0.82750  0.25850  0.89610  Biso   1.000  C
  Zn57     1.0000 0.45388  0.12242  0.78351  Biso   1.000  Zn
  O225     1.0000 0.47674  0.09183  0.75606  Biso   1.000  O
  N561     1.0000 0.43106  0.15082  0.75189  Biso   1.000  N
  N562     1.0000 0.42317  0.09740  0.81070  Biso   1.000  N
  N563     1.0000 0.40382  0.18836  0.72630  Biso   1.000  N
  C449     1.0000 0.50900  0.04523  0.74873  Biso   1.000  C
  O226     1.0000 0.50635  0.07566  0.79767  Biso   1.000  O
  C450     1.0000 0.49759  0.07344  0.76950  Biso   1.000  C
  C451     1.0000 0.40396  0.16725  0.75086  Biso   1.000  C
  C452     1.0000 0.42400  0.07203  0.83100  Biso   1.000  C
  N564     1.0000 0.44910  0.16200  0.72700  Biso   1.000  N
  N565     1.0000 0.44870  0.05130  0.83310  Biso   1.000  N
  H337     1.0000 0.44640  0.03360  0.84370  Biso   1.000  H
  H338     1.0000 0.46680  0.05570  0.82390  Biso   1.000  H
  N566     1.0000 0.38010  0.16550  0.77360  Biso   1.000  N
  H339     1.0000 0.38230  0.15300  0.79000  Biso   1.000  H
  H340     1.0000 0.36290  0.17700  0.77150  Biso   1.000  H
  N567     1.0000 0.39616  0.06673  0.84430  Biso   1.000  N
  N568     1.0000 0.37670  0.09080  0.83290  Biso   1.000  N
  N569     1.0000 0.43260  0.18300  0.71150  Biso   1.000  N
  C453     1.0000 0.53604  0.02779  0.75857  Biso   1.000  C
  H341     1.0000 0.54770  0.03400  0.77680  Biso   1.000  H
  O227     1.0000 0.35260  0.00780  0.84640  Biso   1.000  O
  N570     1.0000 0.39300  0.10920  0.81490  Biso   1.000  N
  C454     1.0000 0.33960  0.95650  0.80670  Biso   1.000  C
  H342     1.0000 0.35760  0.96930  0.80250  Biso   1.000  H
  O228     1.0000 0.31050  0.99690  0.87790  Biso   1.000  O
  C455     1.0000 0.31990  0.96300  0.83220  Biso   1.000  C
  C456     1.0000 0.32750  0.99150  0.85390  Biso   1.000  C
  Zn58     1.0000 0.45388  0.62242  0.28351  Biso   1.000  Zn
  O229     1.0000 0.47674  0.59183  0.25606  Biso   1.000  O
  N571     1.0000 0.43106  0.65082  0.25189  Biso   1.000  N
  N572     1.0000 0.42317  0.59740  0.31070  Biso   1.000  N
  N573     1.0000 0.40382  0.68836  0.22630  Biso   1.000  N
  C457     1.0000 0.50900  0.54523  0.24873  Biso   1.000  C
  O230     1.0000 0.50635  0.57566  0.29767  Biso   1.000  O
  C458     1.0000 0.49759  0.57344  0.26950  Biso   1.000  C
  C459     1.0000 0.40396  0.66725  0.25086  Biso   1.000  C
  C460     1.0000 0.42400  0.57203  0.33100  Biso   1.000  C
  N574     1.0000 0.44910  0.66200  0.22700  Biso   1.000  N
  N575     1.0000 0.44870  0.55130  0.33310  Biso   1.000  N
  H343     1.0000 0.44640  0.53360  0.34370  Biso   1.000  H
  H344     1.0000 0.46680  0.55570  0.32390  Biso   1.000  H
  N576     1.0000 0.38010  0.66550  0.27360  Biso   1.000  N
  H345     1.0000 0.38230  0.65300  0.29000  Biso   1.000  H
  H346     1.0000 0.36290  0.67700  0.27150  Biso   1.000  H
  N577     1.0000 0.39616  0.56673  0.34430  Biso   1.000  N
  N578     1.0000 0.37670  0.59080  0.33290  Biso   1.000  N
  N579     1.0000 0.43260  0.68300  0.21150  Biso   1.000  N
  C461     1.0000 0.53604  0.52779  0.25857  Biso   1.000  C
  H347     1.0000 0.54770  0.53400  0.27680  Biso   1.000  H
  O231     1.0000 0.35260  0.50780  0.34640  Biso   1.000  O
  N580     1.0000 0.39300  0.60920  0.31490  Biso   1.000  N
  C462     1.0000 0.33960  0.45650  0.30670  Biso   1.000  C
  H348     1.0000 0.35760  0.46930  0.30250  Biso   1.000  H
  O232     1.0000 0.31050  0.49690  0.37790  Biso   1.000  O
  C463     1.0000 0.31990  0.46300  0.33220  Biso   1.000  C
  C464     1.0000 0.32750  0.49150  0.35390  Biso   1.000  C
  Zn59     1.0000 0.95388  0.12242  0.28351  Biso   1.000  Zn
  O233     1.0000 0.97674  0.09183  0.25606  Biso   1.000  O
  N581     1.0000 0.93106  0.15082  0.25189  Biso   1.000  N
  N582     1.0000 0.92317  0.09740  0.31070  Biso   1.000  N
  N583     1.0000 0.90382  0.18836  0.22630  Biso   1.000  N
  C465     1.0000 0.00900  0.04523  0.24873  Biso   1.000  C
  O234     1.0000 0.00635  0.07566  0.29767  Biso   1.000  O
  C466     1.0000 0.99759  0.07344  0.26950  Biso   1.000  C
  C467     1.0000 0.90396  0.16725  0.25086  Biso   1.000  C
  C468     1.0000 0.92400  0.07203  0.33100  Biso   1.000  C
  N584     1.0000 0.94910  0.16200  0.22700  Biso   1.000  N
  N585     1.0000 0.94870  0.05130  0.33310  Biso   1.000  N
  H349     1.0000 0.94640  0.03360  0.34370  Biso   1.000  H
  H350     1.0000 0.96680  0.05570  0.32390  Biso   1.000  H
  N586     1.0000 0.88010  0.16550  0.27360  Biso   1.000  N
  H351     1.0000 0.88230  0.15300  0.29000  Biso   1.000  H
  H352     1.0000 0.86290  0.17700  0.27150  Biso   1.000  H
  N587     1.0000 0.89616  0.06673  0.34430  Biso   1.000  N
  N588     1.0000 0.87670  0.09080  0.33290  Biso   1.000  N
  N589     1.0000 0.93260  0.18300  0.21150  Biso   1.000  N
  C469     1.0000 0.03604  0.02779  0.25857  Biso   1.000  C
  H353     1.0000 0.04770  0.03400  0.27680  Biso   1.000  H
  O235     1.0000 0.85260  0.00780  0.34640  Biso   1.000  O
  N590     1.0000 0.89300  0.10920  0.31490  Biso   1.000  N
  C470     1.0000 0.83960  0.95650  0.30670  Biso   1.000  C
  H354     1.0000 0.85760  0.96930  0.30250  Biso   1.000  H
  O236     1.0000 0.81050  0.99690  0.37790  Biso   1.000  O
  C471     1.0000 0.81990  0.96300  0.33220  Biso   1.000  C
  C472     1.0000 0.82750  0.99150  0.35390  Biso   1.000  C
  Zn60     1.0000 0.95388  0.62242  0.78351  Biso   1.000  Zn
  O237     1.0000 0.97674  0.59183  0.75606  Biso   1.000  O
  N591     1.0000 0.93106  0.65082  0.75189  Biso   1.000  N
  N592     1.0000 0.92317  0.59740  0.81070  Biso   1.000  N
  N593     1.0000 0.90382  0.68836  0.72630  Biso   1.000  N
  C473     1.0000 0.00900  0.54523  0.74873  Biso   1.000  C
  O238     1.0000 0.00635  0.57566  0.79767  Biso   1.000  O
  C474     1.0000 0.99759  0.57344  0.76950  Biso   1.000  C
  C475     1.0000 0.90396  0.66725  0.75086  Biso   1.000  C
  C476     1.0000 0.92400  0.57203  0.83100  Biso   1.000  C
  N594     1.0000 0.94910  0.66200  0.72700  Biso   1.000  N
  N595     1.0000 0.94870  0.55130  0.83310  Biso   1.000  N
  H355     1.0000 0.94640  0.53360  0.84370  Biso   1.000  H
  H356     1.0000 0.96680  0.55570  0.82390  Biso   1.000  H
  N596     1.0000 0.88010  0.66550  0.77360  Biso   1.000  N
  H357     1.0000 0.88230  0.65300  0.79000  Biso   1.000  H
  H358     1.0000 0.86290  0.67700  0.77150  Biso   1.000  H
  N597     1.0000 0.89616  0.56673  0.84430  Biso   1.000  N
  N598     1.0000 0.87670  0.59080  0.83290  Biso   1.000  N
  N599     1.0000 0.93260  0.68300  0.71150  Biso   1.000  N
  C477     1.0000 0.03604  0.52779  0.75857  Biso   1.000  C
  H359     1.0000 0.04770  0.53400  0.77680  Biso   1.000  H
  O239     1.0000 0.85260  0.50780  0.84640  Biso   1.000  O
  N600     1.0000 0.89300  0.60920  0.81490  Biso   1.000  N
  C478     1.0000 0.83960  0.45650  0.80670  Biso   1.000  C
  H360     1.0000 0.85760  0.46930  0.80250  Biso   1.000  H
  O240     1.0000 0.81050  0.49690  0.87790  Biso   1.000  O
  C479     1.0000 0.81990  0.46300  0.83220  Biso   1.000  C
  C480     1.0000 0.82750  0.49150  0.85390  Biso   1.000  C
  Zn61     1.0000 0.29612  0.62758  0.78351  Biso   1.000  Zn
  O241     1.0000 0.27326  0.65817  0.75606  Biso   1.000  O
  N601     1.0000 0.31894  0.59918  0.75189  Biso   1.000  N
  N602     1.0000 0.32683  0.65260  0.81070  Biso   1.000  N
  N603     1.0000 0.34618  0.56164  0.72630  Biso   1.000  N
  C481     1.0000 0.24100  0.70477  0.74873  Biso   1.000  C
  O242     1.0000 0.24365  0.67434  0.79767  Biso   1.000  O
  C482     1.0000 0.25241  0.67656  0.76950  Biso   1.000  C
  C483     1.0000 0.34604  0.58275  0.75086  Biso   1.000  C
  C484     1.0000 0.32600  0.67797  0.83100  Biso   1.000  C
  N604     1.0000 0.30090  0.58800  0.72700  Biso   1.000  N
  N605     1.0000 0.30130  0.69870  0.83310  Biso   1.000  N
  H361     1.0000 0.30360  0.71640  0.84370  Biso   1.000  H
  H362     1.0000 0.28320  0.69430  0.82390  Biso   1.000  H
  N606     1.0000 0.36990  0.58450  0.77360  Biso   1.000  N
  H363     1.0000 0.36770  0.59700  0.79000  Biso   1.000  H
  H364     1.0000 0.38710  0.57300  0.77150  Biso   1.000  H
  N607     1.0000 0.35384  0.68327  0.84430  Biso   1.000  N
  N608     1.0000 0.37330  0.65920  0.83290  Biso   1.000  N
  N609     1.0000 0.31740  0.56700  0.71150  Biso   1.000  N
  C485     1.0000 0.21396  0.72221  0.75857  Biso   1.000  C
  H365     1.0000 0.20230  0.71600  0.77680  Biso   1.000  H
  O243     1.0000 0.39740  0.74220  0.84640  Biso   1.000  O
  N610     1.0000 0.35700  0.64080  0.81490  Biso   1.000  N
  C486     1.0000 0.41040  0.79350  0.80670  Biso   1.000  C
  H366     1.0000 0.39240  0.78070  0.80250  Biso   1.000  H
  O244     1.0000 0.43950  0.75310  0.87790  Biso   1.000  O
  C487     1.0000 0.43010  0.78700  0.83220  Biso   1.000  C
  C488     1.0000 0.42250  0.75850  0.85390  Biso   1.000  C
  Zn62     1.0000 0.29612  0.12758  0.28351  Biso   1.000  Zn
  O245     1.0000 0.27326  0.15817  0.25606  Biso   1.000  O
  N611     1.0000 0.31894  0.09918  0.25189  Biso   1.000  N
  N612     1.0000 0.32683  0.15260  0.31070  Biso   1.000  N
  N613     1.0000 0.34618  0.06164  0.22630  Biso   1.000  N
  C489     1.0000 0.24100  0.20477  0.24873  Biso   1.000  C
  O246     1.0000 0.24365  0.17434  0.29767  Biso   1.000  O
  C490     1.0000 0.25241  0.17656  0.26950  Biso   1.000  C
  C491     1.0000 0.34604  0.08275  0.25086  Biso   1.000  C
  C492     1.0000 0.32600  0.17797  0.33100  Biso   1.000  C
  N614     1.0000 0.30090  0.08800  0.22700  Biso   1.000  N
  N615     1.0000 0.30130  0.19870  0.33310  Biso   1.000  N
  H367     1.0000 0.30360  0.21640  0.34370  Biso   1.000  H
  H368     1.0000 0.28320  0.19430  0.32390  Biso   1.000  H
  N616     1.0000 0.36990  0.08450  0.27360  Biso   1.000  N
  H369     1.0000 0.36770  0.09700  0.29000  Biso   1.000  H
  H370     1.0000 0.38710  0.07300  0.27150  Biso   1.000  H
  N617     1.0000 0.35384  0.18327  0.34430  Biso   1.000  N
  N618     1.0000 0.37330  0.15920  0.33290  Biso   1.000  N
  N619     1.0000 0.31740  0.06700  0.21150  Biso   1.000  N
  C493     1.0000 0.21396  0.22221  0.25857  Biso   1.000  C
  H371     1.0000 0.20230  0.21600  0.27680  Biso   1.000  H
  O247     1.0000 0.39740  0.24220  0.34640  Biso   1.000  O
  N620     1.0000 0.35700  0.14080  0.31490  Biso   1.000  N
  C494     1.0000 0.41040  0.29350  0.30670  Biso   1.000  C
  H372     1.0000 0.39240  0.28070  0.30250  Biso   1.000  H
  O248     1.0000 0.43950  0.25310  0.37790  Biso   1.000  O
  C495     1.0000 0.43010  0.28700  0.33220  Biso   1.000  C
  C496     1.0000 0.42250  0.25850  0.35390  Biso   1.000  C
  Zn63     1.0000 0.79612  0.62758  0.28351  Biso   1.000  Zn
  O249     1.0000 0.77326  0.65817  0.25606  Biso   1.000  O
  N621     1.0000 0.81894  0.59918  0.25189  Biso   1.000  N
  N622     1.0000 0.82683  0.65260  0.31070  Biso   1.000  N
  N623     1.0000 0.84618  0.56164  0.22630  Biso   1.000  N
  C497     1.0000 0.74100  0.70477  0.24873  Biso   1.000  C
  O250     1.0000 0.74365  0.67434  0.29767  Biso   1.000  O
  C498     1.0000 0.75241  0.67656  0.26950  Biso   1.000  C
  C499     1.0000 0.84604  0.58275  0.25086  Biso   1.000  C
  C500     1.0000 0.82600  0.67797  0.33100  Biso   1.000  C
  N624     1.0000 0.80090  0.58800  0.22700  Biso   1.000  N
  N625     1.0000 0.80130  0.69870  0.33310  Biso   1.000  N
  H373     1.0000 0.80360  0.71640  0.34370  Biso   1.000  H
  H374     1.0000 0.78320  0.69430  0.32390  Biso   1.000  H
  N626     1.0000 0.86990  0.58450  0.27360  Biso   1.000  N
  H375     1.0000 0.86770  0.59700  0.29000  Biso   1.000  H
  H376     1.0000 0.88710  0.57300  0.27150  Biso   1.000  H
  N627     1.0000 0.85384  0.68327  0.34430  Biso   1.000  N
  N628     1.0000 0.87330  0.65920  0.33290  Biso   1.000  N
  N629     1.0000 0.81740  0.56700  0.21150  Biso   1.000  N
  C501     1.0000 0.71396  0.72221  0.25857  Biso   1.000  C
  H377     1.0000 0.70230  0.71600  0.27680  Biso   1.000  H
  O251     1.0000 0.89740  0.74220  0.34640  Biso   1.000  O
  N630     1.0000 0.85700  0.64080  0.31490  Biso   1.000  N
  C502     1.0000 0.91040  0.79350  0.30670  Biso   1.000  C
  H378     1.0000 0.89240  0.78070  0.30250  Biso   1.000  H
  O252     1.0000 0.93950  0.75310  0.37790  Biso   1.000  O
  C503     1.0000 0.93010  0.78700  0.33220  Biso   1.000  C
  C504     1.0000 0.92250  0.75850  0.35390  Biso   1.000  C
  Zn64     1.0000 0.79612  0.12758  0.78351  Biso   1.000  Zn
  O253     1.0000 0.77326  0.15817  0.75606  Biso   1.000  O
  N631     1.0000 0.81894  0.09918  0.75189  Biso   1.000  N
  N632     1.0000 0.82683  0.15260  0.81070  Biso   1.000  N
  N633     1.0000 0.84618  0.06164  0.72630  Biso   1.000  N
  C505     1.0000 0.74100  0.20477  0.74873  Biso   1.000  C
  O254     1.0000 0.74365  0.17434  0.79767  Biso   1.000  O
  C506     1.0000 0.75241  0.17656  0.76950  Biso   1.000  C
  C507     1.0000 0.84604  0.08275  0.75086  Biso   1.000  C
  C508     1.0000 0.82600  0.17797  0.83100  Biso   1.000  C
  N634     1.0000 0.80090  0.08800  0.72700  Biso   1.000  N
  N635     1.0000 0.80130  0.19870  0.83310  Biso   1.000  N
  H379     1.0000 0.80360  0.21640  0.84370  Biso   1.000  H
  H380     1.0000 0.78320  0.19430  0.82390  Biso   1.000  H
  N636     1.0000 0.86990  0.08450  0.77360  Biso   1.000  N
  H381     1.0000 0.86770  0.09700  0.79000  Biso   1.000  H
  H382     1.0000 0.88710  0.07300  0.77150  Biso   1.000  H
  N637     1.0000 0.85384  0.18327  0.84430  Biso   1.000  N
  N638     1.0000 0.87330  0.15920  0.83290  Biso   1.000  N
  N639     1.0000 0.81740  0.06700  0.71150  Biso   1.000  N
  C509     1.0000 0.71396  0.22221  0.75857  Biso   1.000  C
  H383     1.0000 0.70230  0.21600  0.77680  Biso   1.000  H
  O255     1.0000 0.89740  0.24220  0.84640  Biso   1.000  O
  N640     1.0000 0.85700  0.14080  0.81490  Biso   1.000  N
  C510     1.0000 0.91040  0.29350  0.80670  Biso   1.000  C
  H384     1.0000 0.89240  0.28070  0.80250  Biso   1.000  H
  O256     1.0000 0.93950  0.25310  0.87790  Biso   1.000  O
  C511     1.0000 0.93010  0.28700  0.83220  Biso   1.000  C
  C512     1.0000 0.92250  0.25850  0.85390  Biso   1.000  C
  Zn65     1.0000 0.96649  0.29612  0.12242  Biso   1.000  Zn
  O257     1.0000 0.99394  0.27326  0.09183  Biso   1.000  O
  N641     1.0000 0.99811  0.31894  0.15082  Biso   1.000  N
  N642     1.0000 0.93930  0.32683  0.09740  Biso   1.000  N
  N643     1.0000 0.02370  0.34618  0.18836  Biso   1.000  N
  C513     1.0000 0.00127  0.24100  0.04523  Biso   1.000  C
  O258     1.0000 0.95233  0.24365  0.07566  Biso   1.000  O
  C514     1.0000 0.98050  0.25241  0.07344  Biso   1.000  C
  C515     1.0000 0.99914  0.34604  0.16725  Biso   1.000  C
  C516     1.0000 0.91900  0.32600  0.07203  Biso   1.000  C
  N644     1.0000 0.02300  0.30090  0.16200  Biso   1.000  N
  N645     1.0000 0.91690  0.30130  0.05130  Biso   1.000  N
  H385     1.0000 0.90630  0.30360  0.03360  Biso   1.000  H
  H386     1.0000 0.92610  0.28320  0.05570  Biso   1.000  H
  N646     1.0000 0.97640  0.36990  0.16550  Biso   1.000  N
  H387     1.0000 0.96000  0.36770  0.15300  Biso   1.000  H
  H388     1.0000 0.97850  0.38710  0.17700  Biso   1.000  H
  N647     1.0000 0.90570  0.35384  0.06673  Biso   1.000  N
  N648     1.0000 0.91710  0.37330  0.09080  Biso   1.000  N
  N649     1.0000 0.03850  0.31740  0.18300  Biso   1.000  N
  C517     1.0000 0.99143  0.21396  0.02779  Biso   1.000  C
  H389     1.0000 0.97320  0.20230  0.03400  Biso   1.000  H
  O259     1.0000 0.90360  0.39740  0.00780  Biso   1.000  O
  N650     1.0000 0.93510  0.35700  0.10920  Biso   1.000  N
  C518     1.0000 0.94330  0.41040  0.95650  Biso   1.000  C
  H390     1.0000 0.94750  0.39240  0.96930  Biso   1.000  H
  O260     1.0000 0.87210  0.43950  0.99690  Biso   1.000  O
  C519     1.0000 0.91780  0.43010  0.96300  Biso   1.000  C
  C520     1.0000 0.89610  0.42250  0.99150  Biso   1.000  C
  Zn66     1.0000 0.96649  0.79612  0.62242  Biso   1.000  Zn
  O261     1.0000 0.99394  0.77326  0.59183  Biso   1.000  O
  N651     1.0000 0.99811  0.81894  0.65082  Biso   1.000  N
  N652     1.0000 0.93930  0.82683  0.59740  Biso   1.000  N
  N653     1.0000 0.02370  0.84618  0.68836  Biso   1.000  N
  C521     1.0000 0.00127  0.74100  0.54523  Biso   1.000  C
  O262     1.0000 0.95233  0.74365  0.57566  Biso   1.000  O
  C522     1.0000 0.98050  0.75241  0.57344  Biso   1.000  C
  C523     1.0000 0.99914  0.84604  0.66725  Biso   1.000  C
  C524     1.0000 0.91900  0.82600  0.57203  Biso   1.000  C
  N654     1.0000 0.02300  0.80090  0.66200  Biso   1.000  N
  N655     1.0000 0.91690  0.80130  0.55130  Biso   1.000  N
  H391     1.0000 0.90630  0.80360  0.53360  Biso   1.000  H
  H392     1.0000 0.92610  0.78320  0.55570  Biso   1.000  H
  N656     1.0000 0.97640  0.86990  0.66550  Biso   1.000  N
  H393     1.0000 0.96000  0.86770  0.65300  Biso   1.000  H
  H394     1.0000 0.97850  0.88710  0.67700  Biso   1.000  H
  N657     1.0000 0.90570  0.85384  0.56673  Biso   1.000  N
  N658     1.0000 0.91710  0.87330  0.59080  Biso   1.000  N
  N659     1.0000 0.03850  0.81740  0.68300  Biso   1.000  N
  C525     1.0000 0.99143  0.71396  0.52779  Biso   1.000  C
  H395     1.0000 0.97320  0.70230  0.53400  Biso   1.000  H
  O263     1.0000 0.90360  0.89740  0.50780  Biso   1.000  O
  N660     1.0000 0.93510  0.85700  0.60920  Biso   1.000  N
  C526     1.0000 0.94330  0.91040  0.45650  Biso   1.000  C
  H396     1.0000 0.94750  0.89240  0.46930  Biso   1.000  H
  O264     1.0000 0.87210  0.93950  0.49690  Biso   1.000  O
  C527     1.0000 0.91780  0.93010  0.46300  Biso   1.000  C
  C528     1.0000 0.89610  0.92250  0.49150  Biso   1.000  C
  Zn67     1.0000 0.46649  0.29612  0.62242  Biso   1.000  Zn
  O265     1.0000 0.49394  0.27326  0.59183  Biso   1.000  O
  N661     1.0000 0.49811  0.31894  0.65082  Biso   1.000  N
  N662     1.0000 0.43930  0.32683  0.59740  Biso   1.000  N
  N663     1.0000 0.52370  0.34618  0.68836  Biso   1.000  N
  C529     1.0000 0.50127  0.24100  0.54523  Biso   1.000  C
  O266     1.0000 0.45233  0.24365  0.57566  Biso   1.000  O
  C530     1.0000 0.48050  0.25241  0.57344  Biso   1.000  C
  C531     1.0000 0.49914  0.34604  0.66725  Biso   1.000  C
  C532     1.0000 0.41900  0.32600  0.57203  Biso   1.000  C
  N664     1.0000 0.52300  0.30090  0.66200  Biso   1.000  N
  N665     1.0000 0.41690  0.30130  0.55130  Biso   1.000  N
  H397     1.0000 0.40630  0.30360  0.53360  Biso   1.000  H
  H398     1.0000 0.42610  0.28320  0.55570  Biso   1.000  H
  N666     1.0000 0.47640  0.36990  0.66550  Biso   1.000  N
  H399     1.0000 0.46000  0.36770  0.65300  Biso   1.000  H
  H400     1.0000 0.47850  0.38710  0.67700  Biso   1.000  H
  N667     1.0000 0.40570  0.35384  0.56673  Biso   1.000  N
  N668     1.0000 0.41710  0.37330  0.59080  Biso   1.000  N
  N669     1.0000 0.53850  0.31740  0.68300  Biso   1.000  N
  C533     1.0000 0.49143  0.21396  0.52779  Biso   1.000  C
  H401     1.0000 0.47320  0.20230  0.53400  Biso   1.000  H
  O267     1.0000 0.40360  0.39740  0.50780  Biso   1.000  O
  N670     1.0000 0.43510  0.35700  0.60920  Biso   1.000  N
  C534     1.0000 0.44330  0.41040  0.45650  Biso   1.000  C
  H402     1.0000 0.44750  0.39240  0.46930  Biso   1.000  H
  O268     1.0000 0.37210  0.43950  0.49690  Biso   1.000  O
  C535     1.0000 0.41780  0.43010  0.46300  Biso   1.000  C
  C536     1.0000 0.39610  0.42250  0.49150  Biso   1.000  C
  Zn68     1.0000 0.46649  0.79612  0.12242  Biso   1.000  Zn
  O269     1.0000 0.49394  0.77326  0.09183  Biso   1.000  O
  N671     1.0000 0.49811  0.81894  0.15082  Biso   1.000  N
  N672     1.0000 0.43930  0.82683  0.09740  Biso   1.000  N
  N673     1.0000 0.52370  0.84618  0.18836  Biso   1.000  N
  C537     1.0000 0.50127  0.74100  0.04523  Biso   1.000  C
  O270     1.0000 0.45233  0.74365  0.07566  Biso   1.000  O
  C538     1.0000 0.48050  0.75241  0.07344  Biso   1.000  C
  C539     1.0000 0.49914  0.84604  0.16725  Biso   1.000  C
  C540     1.0000 0.41900  0.82600  0.07203  Biso   1.000  C
  N674     1.0000 0.52300  0.80090  0.16200  Biso   1.000  N
  N675     1.0000 0.41690  0.80130  0.05130  Biso   1.000  N
  H403     1.0000 0.40630  0.80360  0.03360  Biso   1.000  H
  H404     1.0000 0.42610  0.78320  0.05570  Biso   1.000  H
  N676     1.0000 0.47640  0.86990  0.16550  Biso   1.000  N
  H405     1.0000 0.46000  0.86770  0.15300  Biso   1.000  H
  H406     1.0000 0.47850  0.88710  0.17700  Biso   1.000  H
  N677     1.0000 0.40570  0.85384  0.06673  Biso   1.000  N
  N678     1.0000 0.41710  0.87330  0.09080  Biso   1.000  N
  N679     1.0000 0.53850  0.81740  0.18300  Biso   1.000  N
  C541     1.0000 0.49143  0.71396  0.02779  Biso   1.000  C
  H407     1.0000 0.47320  0.70230  0.03400  Biso   1.000  H
  O271     1.0000 0.40360  0.89740  0.00780  Biso   1.000  O
  N680     1.0000 0.43510  0.85700  0.10920  Biso   1.000  N
  C542     1.0000 0.44330  0.91040  0.95650  Biso   1.000  C
  H408     1.0000 0.44750  0.89240  0.96930  Biso   1.000  H
  O272     1.0000 0.37210  0.93950  0.99690  Biso   1.000  O
  C543     1.0000 0.41780  0.93010  0.96300  Biso   1.000  C
  C544     1.0000 0.39610  0.92250  0.99150  Biso   1.000  C
  Zn69     1.0000 0.96649  0.45388  0.62758  Biso   1.000  Zn
  O273     1.0000 0.99394  0.47674  0.65817  Biso   1.000  O
  N681     1.0000 0.99811  0.43106  0.59918  Biso   1.000  N
  N682     1.0000 0.93930  0.42317  0.65260  Biso   1.000  N
  N683     1.0000 0.02370  0.40382  0.56164  Biso   1.000  N
  C545     1.0000 0.00127  0.50900  0.70477  Biso   1.000  C
  O274     1.0000 0.95233  0.50635  0.67434  Biso   1.000  O
  C546     1.0000 0.98050  0.49759  0.67656  Biso   1.000  C
  C547     1.0000 0.99914  0.40396  0.58275  Biso   1.000  C
  C548     1.0000 0.91900  0.42400  0.67797  Biso   1.000  C
  N684     1.0000 0.02300  0.44910  0.58800  Biso   1.000  N
  N685     1.0000 0.91690  0.44870  0.69870  Biso   1.000  N
  H409     1.0000 0.90630  0.44640  0.71640  Biso   1.000  H
  H410     1.0000 0.92610  0.46680  0.69430  Biso   1.000  H
  N686     1.0000 0.97640  0.38010  0.58450  Biso   1.000  N
  H411     1.0000 0.96000  0.38230  0.59700  Biso   1.000  H
  H412     1.0000 0.97850  0.36290  0.57300  Biso   1.000  H
  N687     1.0000 0.90570  0.39616  0.68327  Biso   1.000  N
  N688     1.0000 0.91710  0.37670  0.65920  Biso   1.000  N
  N689     1.0000 0.03850  0.43260  0.56700  Biso   1.000  N
  C549     1.0000 0.99143  0.53604  0.72221  Biso   1.000  C
  H413     1.0000 0.97320  0.54770  0.71600  Biso   1.000  H
  O275     1.0000 0.90360  0.35260  0.74220  Biso   1.000  O
  N690     1.0000 0.93510  0.39300  0.64080  Biso   1.000  N
  C550     1.0000 0.94330  0.33960  0.79350  Biso   1.000  C
  H414     1.0000 0.94750  0.35760  0.78070  Biso   1.000  H
  O276     1.0000 0.87210  0.31050  0.75310  Biso   1.000  O
  C551     1.0000 0.91780  0.31990  0.78700  Biso   1.000  C
  C552     1.0000 0.89610  0.32750  0.75850  Biso   1.000  C
  Zn70     1.0000 0.96649  0.95388  0.12758  Biso   1.000  Zn
  O277     1.0000 0.99394  0.97674  0.15817  Biso   1.000  O
  N691     1.0000 0.99811  0.93106  0.09918  Biso   1.000  N
  N692     1.0000 0.93930  0.92317  0.15260  Biso   1.000  N
  N693     1.0000 0.02370  0.90382  0.06164  Biso   1.000  N
  C553     1.0000 0.00127  0.00900  0.20477  Biso   1.000  C
  O278     1.0000 0.95233  0.00635  0.17434  Biso   1.000  O
  C554     1.0000 0.98050  0.99759  0.17656  Biso   1.000  C
  C555     1.0000 0.99914  0.90396  0.08275  Biso   1.000  C
  C556     1.0000 0.91900  0.92400  0.17797  Biso   1.000  C
  N694     1.0000 0.02300  0.94910  0.08800  Biso   1.000  N
  N695     1.0000 0.91690  0.94870  0.19870  Biso   1.000  N
  H415     1.0000 0.90630  0.94640  0.21640  Biso   1.000  H
  H416     1.0000 0.92610  0.96680  0.19430  Biso   1.000  H
  N696     1.0000 0.97640  0.88010  0.08450  Biso   1.000  N
  H417     1.0000 0.96000  0.88230  0.09700  Biso   1.000  H
  H418     1.0000 0.97850  0.86290  0.07300  Biso   1.000  H
  N697     1.0000 0.90570  0.89616  0.18327  Biso   1.000  N
  N698     1.0000 0.91710  0.87670  0.15920  Biso   1.000  N
  N699     1.0000 0.03850  0.93260  0.06700  Biso   1.000  N
  C557     1.0000 0.99143  0.03604  0.22221  Biso   1.000  C
  H419     1.0000 0.97320  0.04770  0.21600  Biso   1.000  H
  O279     1.0000 0.90360  0.85260  0.24220  Biso   1.000  O
  N700     1.0000 0.93510  0.89300  0.14080  Biso   1.000  N
  C558     1.0000 0.94330  0.83960  0.29350  Biso   1.000  C
  H420     1.0000 0.94750  0.85760  0.28070  Biso   1.000  H
  O280     1.0000 0.87210  0.81050  0.25310  Biso   1.000  O
  C559     1.0000 0.91780  0.81990  0.28700  Biso   1.000  C
  C560     1.0000 0.89610  0.82750  0.25850  Biso   1.000  C
  Zn71     1.0000 0.46649  0.45388  0.12758  Biso   1.000  Zn
  O281     1.0000 0.49394  0.47674  0.15817  Biso   1.000  O
  N701     1.0000 0.49811  0.43106  0.09918  Biso   1.000  N
  N702     1.0000 0.43930  0.42317  0.15260  Biso   1.000  N
  N703     1.0000 0.52370  0.40382  0.06164  Biso   1.000  N
  C561     1.0000 0.50127  0.50900  0.20477  Biso   1.000  C
  O282     1.0000 0.45233  0.50635  0.17434  Biso   1.000  O
  C562     1.0000 0.48050  0.49759  0.17656  Biso   1.000  C
  C563     1.0000 0.49914  0.40396  0.08275  Biso   1.000  C
  C564     1.0000 0.41900  0.42400  0.17797  Biso   1.000  C
  N704     1.0000 0.52300  0.44910  0.08800  Biso   1.000  N
  N705     1.0000 0.41690  0.44870  0.19870  Biso   1.000  N
  H421     1.0000 0.40630  0.44640  0.21640  Biso   1.000  H
  H422     1.0000 0.42610  0.46680  0.19430  Biso   1.000  H
  N706     1.0000 0.47640  0.38010  0.08450  Biso   1.000  N
  H423     1.0000 0.46000  0.38230  0.09700  Biso   1.000  H
  H424     1.0000 0.47850  0.36290  0.07300  Biso   1.000  H
  N707     1.0000 0.40570  0.39616  0.18327  Biso   1.000  N
  N708     1.0000 0.41710  0.37670  0.15920  Biso   1.000  N
  N709     1.0000 0.53850  0.43260  0.06700  Biso   1.000  N
  C565     1.0000 0.49143  0.53604  0.22221  Biso   1.000  C
  H425     1.0000 0.47320  0.54770  0.21600  Biso   1.000  H
  O283     1.0000 0.40360  0.35260  0.24220  Biso   1.000  O
  N710     1.0000 0.43510  0.39300  0.14080  Biso   1.000  N
  C566     1.0000 0.44330  0.33960  0.29350  Biso   1.000  C
  H426     1.0000 0.44750  0.35760  0.28070  Biso   1.000  H
  O284     1.0000 0.37210  0.31050  0.25310  Biso   1.000  O
  C567     1.0000 0.41780  0.31990  0.28700  Biso   1.000  C
  C568     1.0000 0.39610  0.32750  0.25850  Biso   1.000  C
  Zn72     1.0000 0.46649  0.95388  0.62758  Biso   1.000  Zn
  O285     1.0000 0.49394  0.97674  0.65817  Biso   1.000  O
  N711     1.0000 0.49811  0.93106  0.59918  Biso   1.000  N
  N712     1.0000 0.43930  0.92317  0.65260  Biso   1.000  N
  N713     1.0000 0.52370  0.90382  0.56164  Biso   1.000  N
  C569     1.0000 0.50127  0.00900  0.70477  Biso   1.000  C
  O286     1.0000 0.45233  0.00635  0.67434  Biso   1.000  O
  C570     1.0000 0.48050  0.99759  0.67656  Biso   1.000  C
  C571     1.0000 0.49914  0.90396  0.58275  Biso   1.000  C
  C572     1.0000 0.41900  0.92400  0.67797  Biso   1.000  C
  N714     1.0000 0.52300  0.94910  0.58800  Biso   1.000  N
  N715     1.0000 0.41690  0.94870  0.69870  Biso   1.000  N
  H427     1.0000 0.40630  0.94640  0.71640  Biso   1.000  H
  H428     1.0000 0.42610  0.96680  0.69430  Biso   1.000  H
  N716     1.0000 0.47640  0.88010  0.58450  Biso   1.000  N
  H429     1.0000 0.46000  0.88230  0.59700  Biso   1.000  H
  H430     1.0000 0.47850  0.86290  0.57300  Biso   1.000  H
  N717     1.0000 0.40570  0.89616  0.68327  Biso   1.000  N
  N718     1.0000 0.41710  0.87670  0.65920  Biso   1.000  N
  N719     1.0000 0.53850  0.93260  0.56700  Biso   1.000  N
  C573     1.0000 0.49143  0.03604  0.72221  Biso   1.000  C
  H431     1.0000 0.47320  0.04770  0.71600  Biso   1.000  H
  O287     1.0000 0.40360  0.85260  0.74220  Biso   1.000  O
  N720     1.0000 0.43510  0.89300  0.64080  Biso   1.000  N
  C574     1.0000 0.44330  0.83960  0.79350  Biso   1.000  C
  H432     1.0000 0.44750  0.85760  0.78070  Biso   1.000  H
  O288     1.0000 0.37210  0.81050  0.75310  Biso   1.000  O
  C575     1.0000 0.41780  0.81990  0.78700  Biso   1.000  C
  C576     1.0000 0.39610  0.82750  0.75850  Biso   1.000  C
  Zn73     1.0000 0.78351  0.45388  0.12242  Biso   1.000  Zn
  O289     1.0000 0.75606  0.47674  0.09183  Biso   1.000  O
  N721     1.0000 0.75189  0.43106  0.15082  Biso   1.000  N
  N722     1.0000 0.81070  0.42317  0.09740  Biso   1.000  N
  N723     1.0000 0.72630  0.40382  0.18836  Biso   1.000  N
  C577     1.0000 0.74873  0.50900  0.04523  Biso   1.000  C
  O290     1.0000 0.79767  0.50635  0.07566  Biso   1.000  O
  C578     1.0000 0.76950  0.49759  0.07344  Biso   1.000  C
  C579     1.0000 0.75086  0.40396  0.16725  Biso   1.000  C
  C580     1.0000 0.83100  0.42400  0.07203  Biso   1.000  C
  N724     1.0000 0.72700  0.44910  0.16200  Biso   1.000  N
  N725     1.0000 0.83310  0.44870  0.05130  Biso   1.000  N
  H433     1.0000 0.84370  0.44640  0.03360  Biso   1.000  H
  H434     1.0000 0.82390  0.46680  0.05570  Biso   1.000  H
  N726     1.0000 0.77360  0.38010  0.16550  Biso   1.000  N
  H435     1.0000 0.79000  0.38230  0.15300  Biso   1.000  H
  H436     1.0000 0.77150  0.36290  0.17700  Biso   1.000  H
  N727     1.0000 0.84430  0.39616  0.06673  Biso   1.000  N
  N728     1.0000 0.83290  0.37670  0.09080  Biso   1.000  N
  N729     1.0000 0.71150  0.43260  0.18300  Biso   1.000  N
  C581     1.0000 0.75857  0.53604  0.02779  Biso   1.000  C
  H437     1.0000 0.77680  0.54770  0.03400  Biso   1.000  H
  O291     1.0000 0.84640  0.35260  0.00780  Biso   1.000  O
  N730     1.0000 0.81490  0.39300  0.10920  Biso   1.000  N
  C582     1.0000 0.80670  0.33960  0.95650  Biso   1.000  C
  H438     1.0000 0.80250  0.35760  0.96930  Biso   1.000  H
  O292     1.0000 0.87790  0.31050  0.99690  Biso   1.000  O
  C583     1.0000 0.83220  0.31990  0.96300  Biso   1.000  C
  C584     1.0000 0.85390  0.32750  0.99150  Biso   1.000  C
  Zn74     1.0000 0.78351  0.95388  0.62242  Biso   1.000  Zn
  O293     1.0000 0.75606  0.97674  0.59183  Biso   1.000  O
  N731     1.0000 0.75189  0.93106  0.65082  Biso   1.000  N
  N732     1.0000 0.81070  0.92317  0.59740  Biso   1.000  N
  N733     1.0000 0.72630  0.90382  0.68836  Biso   1.000  N
  C585     1.0000 0.74873  0.00900  0.54523  Biso   1.000  C
  O294     1.0000 0.79767  0.00635  0.57566  Biso   1.000  O
  C586     1.0000 0.76950  0.99759  0.57344  Biso   1.000  C
  C587     1.0000 0.75086  0.90396  0.66725  Biso   1.000  C
  C588     1.0000 0.83100  0.92400  0.57203  Biso   1.000  C
  N734     1.0000 0.72700  0.94910  0.66200  Biso   1.000  N
  N735     1.0000 0.83310  0.94870  0.55130  Biso   1.000  N
  H439     1.0000 0.84370  0.94640  0.53360  Biso   1.000  H
  H440     1.0000 0.82390  0.96680  0.55570  Biso   1.000  H
  N736     1.0000 0.77360  0.88010  0.66550  Biso   1.000  N
  H441     1.0000 0.79000  0.88230  0.65300  Biso   1.000  H
  H442     1.0000 0.77150  0.86290  0.67700  Biso   1.000  H
  N737     1.0000 0.84430  0.89616  0.56673  Biso   1.000  N
  N738     1.0000 0.83290  0.87670  0.59080  Biso   1.000  N
  N739     1.0000 0.71150  0.93260  0.68300  Biso   1.000  N
  C589     1.0000 0.75857  0.03604  0.52779  Biso   1.000  C
  H443     1.0000 0.77680  0.04770  0.53400  Biso   1.000  H
  O295     1.0000 0.84640  0.85260  0.50780  Biso   1.000  O
  N740     1.0000 0.81490  0.89300  0.60920  Biso   1.000  N
  C590     1.0000 0.80670  0.83960  0.45650  Biso   1.000  C
  H444     1.0000 0.80250  0.85760  0.46930  Biso   1.000  H
  O296     1.0000 0.87790  0.81050  0.49690  Biso   1.000  O
  C591     1.0000 0.83220  0.81990  0.46300  Biso   1.000  C
  C592     1.0000 0.85390  0.82750  0.49150  Biso   1.000  C
  Zn75     1.0000 0.28351  0.45388  0.62242  Biso   1.000  Zn
  O297     1.0000 0.25606  0.47674  0.59183  Biso   1.000  O
  N741     1.0000 0.25189  0.43106  0.65082  Biso   1.000  N
  N742     1.0000 0.31070  0.42317  0.59740  Biso   1.000  N
  N743     1.0000 0.22630  0.40382  0.68836  Biso   1.000  N
  C593     1.0000 0.24873  0.50900  0.54523  Biso   1.000  C
  O298     1.0000 0.29767  0.50635  0.57566  Biso   1.000  O
  C594     1.0000 0.26950  0.49759  0.57344  Biso   1.000  C
  C595     1.0000 0.25086  0.40396  0.66725  Biso   1.000  C
  C596     1.0000 0.33100  0.42400  0.57203  Biso   1.000  C
  N744     1.0000 0.22700  0.44910  0.66200  Biso   1.000  N
  N745     1.0000 0.33310  0.44870  0.55130  Biso   1.000  N
  H445     1.0000 0.34370  0.44640  0.53360  Biso   1.000  H
  H446     1.0000 0.32390  0.46680  0.55570  Biso   1.000  H
  N746     1.0000 0.27360  0.38010  0.66550  Biso   1.000  N
  H447     1.0000 0.29000  0.38230  0.65300  Biso   1.000  H
  H448     1.0000 0.27150  0.36290  0.67700  Biso   1.000  H
  N747     1.0000 0.34430  0.39616  0.56673  Biso   1.000  N
  N748     1.0000 0.33290  0.37670  0.59080  Biso   1.000  N
  N749     1.0000 0.21150  0.43260  0.68300  Biso   1.000  N
  C597     1.0000 0.25857  0.53604  0.52779  Biso   1.000  C
  H449     1.0000 0.27680  0.54770  0.53400  Biso   1.000  H
  O299     1.0000 0.34640  0.35260  0.50780  Biso   1.000  O
  N750     1.0000 0.31490  0.39300  0.60920  Biso   1.000  N
  C598     1.0000 0.30670  0.33960  0.45650  Biso   1.000  C
  H450     1.0000 0.30250  0.35760  0.46930  Biso   1.000  H
  O300     1.0000 0.37790  0.31050  0.49690  Biso   1.000  O
  C599     1.0000 0.33220  0.31990  0.46300  Biso   1.000  C
  C600     1.0000 0.35390  0.32750  0.49150  Biso   1.000  C
  Zn76     1.0000 0.28351  0.95388  0.12242  Biso   1.000  Zn
  O301     1.0000 0.25606  0.97674  0.09183  Biso   1.000  O
  N751     1.0000 0.25189  0.93106  0.15082  Biso   1.000  N
  N752     1.0000 0.31070  0.92317  0.09740  Biso   1.000  N
  N753     1.0000 0.22630  0.90382  0.18836  Biso   1.000  N
  C601     1.0000 0.24873  0.00900  0.04523  Biso   1.000  C
  O302     1.0000 0.29767  0.00635  0.07566  Biso   1.000  O
  C602     1.0000 0.26950  0.99759  0.07344  Biso   1.000  C
  C603     1.0000 0.25086  0.90396  0.16725  Biso   1.000  C
  C604     1.0000 0.33100  0.92400  0.07203  Biso   1.000  C
  N754     1.0000 0.22700  0.94910  0.16200  Biso   1.000  N
  N755     1.0000 0.33310  0.94870  0.05130  Biso   1.000  N
  H451     1.0000 0.34370  0.94640  0.03360  Biso   1.000  H
  H452     1.0000 0.32390  0.96680  0.05570  Biso   1.000  H
  N756     1.0000 0.27360  0.88010  0.16550  Biso   1.000  N
  H453     1.0000 0.29000  0.88230  0.15300  Biso   1.000  H
  H454     1.0000 0.27150  0.86290  0.17700  Biso   1.000  H
  N757     1.0000 0.34430  0.89616  0.06673  Biso   1.000  N
  N758     1.0000 0.33290  0.87670  0.09080  Biso   1.000  N
  N759     1.0000 0.21150  0.93260  0.18300  Biso   1.000  N
  C605     1.0000 0.25857  0.03604  0.02779  Biso   1.000  C
  H455     1.0000 0.27680  0.04770  0.03400  Biso   1.000  H
  O303     1.0000 0.34640  0.85260  0.00780  Biso   1.000  O
  N760     1.0000 0.31490  0.89300  0.10920  Biso   1.000  N
  C606     1.0000 0.30670  0.83960  0.95650  Biso   1.000  C
  H456     1.0000 0.30250  0.85760  0.96930  Biso   1.000  H
  O304     1.0000 0.37790  0.81050  0.99690  Biso   1.000  O
  C607     1.0000 0.33220  0.81990  0.96300  Biso   1.000  C
  C608     1.0000 0.35390  0.82750  0.99150  Biso   1.000  C
  Zn77     1.0000 0.78351  0.29612  0.62758  Biso   1.000  Zn
  O305     1.0000 0.75606  0.27326  0.65817  Biso   1.000  O
  N761     1.0000 0.75189  0.31894  0.59918  Biso   1.000  N
  N762     1.0000 0.81070  0.32683  0.65260  Biso   1.000  N
  N763     1.0000 0.72630  0.34618  0.56164  Biso   1.000  N
  C609     1.0000 0.74873  0.24100  0.70477  Biso   1.000  C
  O306     1.0000 0.79767  0.24365  0.67434  Biso   1.000  O
  C610     1.0000 0.76950  0.25241  0.67656  Biso   1.000  C
  C611     1.0000 0.75086  0.34604  0.58275  Biso   1.000  C
  C612     1.0000 0.83100  0.32600  0.67797  Biso   1.000  C
  N764     1.0000 0.72700  0.30090  0.58800  Biso   1.000  N
  N765     1.0000 0.83310  0.30130  0.69870  Biso   1.000  N
  H457     1.0000 0.84370  0.30360  0.71640  Biso   1.000  H
  H458     1.0000 0.82390  0.28320  0.69430  Biso   1.000  H
  N766     1.0000 0.77360  0.36990  0.58450  Biso   1.000  N
  H459     1.0000 0.79000  0.36770  0.59700  Biso   1.000  H
  H460     1.0000 0.77150  0.38710  0.57300  Biso   1.000  H
  N767     1.0000 0.84430  0.35384  0.68327  Biso   1.000  N
  N768     1.0000 0.83290  0.37330  0.65920  Biso   1.000  N
  N769     1.0000 0.71150  0.31740  0.56700  Biso   1.000  N
  C613     1.0000 0.75857  0.21396  0.72221  Biso   1.000  C
  H461     1.0000 0.77680  0.20230  0.71600  Biso   1.000  H
  O307     1.0000 0.84640  0.39740  0.74220  Biso   1.000  O
  N770     1.0000 0.81490  0.35700  0.64080  Biso   1.000  N
  C614     1.0000 0.80670  0.41040  0.79350  Biso   1.000  C
  H462     1.0000 0.80250  0.39240  0.78070  Biso   1.000  H
  O308     1.0000 0.87790  0.43950  0.75310  Biso   1.000  O
  C615     1.0000 0.83220  0.43010  0.78700  Biso   1.000  C
  C616     1.0000 0.85390  0.42250  0.75850  Biso   1.000  C
  Zn78     1.0000 0.78351  0.79612  0.12758  Biso   1.000  Zn
  O309     1.0000 0.75606  0.77326  0.15817  Biso   1.000  O
  N771     1.0000 0.75189  0.81894  0.09918  Biso   1.000  N
  N772     1.0000 0.81070  0.82683  0.15260  Biso   1.000  N
  N773     1.0000 0.72630  0.84618  0.06164  Biso   1.000  N
  C617     1.0000 0.74873  0.74100  0.20477  Biso   1.000  C
  O310     1.0000 0.79767  0.74365  0.17434  Biso   1.000  O
  C618     1.0000 0.76950  0.75241  0.17656  Biso   1.000  C
  C619     1.0000 0.75086  0.84604  0.08275  Biso   1.000  C
  C620     1.0000 0.83100  0.82600  0.17797  Biso   1.000  C
  N774     1.0000 0.72700  0.80090  0.08800  Biso   1.000  N
  N775     1.0000 0.83310  0.80130  0.19870  Biso   1.000  N
  H463     1.0000 0.84370  0.80360  0.21640  Biso   1.000  H
  H464     1.0000 0.82390  0.78320  0.19430  Biso   1.000  H
  N776     1.0000 0.77360  0.86990  0.08450  Biso   1.000  N
  H465     1.0000 0.79000  0.86770  0.09700  Biso   1.000  H
  H466     1.0000 0.77150  0.88710  0.07300  Biso   1.000  H
  N777     1.0000 0.84430  0.85384  0.18327  Biso   1.000  N
  N778     1.0000 0.83290  0.87330  0.15920  Biso   1.000  N
  N779     1.0000 0.71150  0.81740  0.06700  Biso   1.000  N
  C621     1.0000 0.75857  0.71396  0.22221  Biso   1.000  C
  H467     1.0000 0.77680  0.70230  0.21600  Biso   1.000  H
  O311     1.0000 0.84640  0.89740  0.24220  Biso   1.000  O
  N780     1.0000 0.81490  0.85700  0.14080  Biso   1.000  N
  C622     1.0000 0.80670  0.91040  0.29350  Biso   1.000  C
  H468     1.0000 0.80250  0.89240  0.28070  Biso   1.000  H
  O312     1.0000 0.87790  0.93950  0.25310  Biso   1.000  O
  C623     1.0000 0.83220  0.93010  0.28700  Biso   1.000  C
  C624     1.0000 0.85390  0.92250  0.25850  Biso   1.000  C
  Zn79     1.0000 0.28351  0.29612  0.12758  Biso   1.000  Zn
  O313     1.0000 0.25606  0.27326  0.15817  Biso   1.000  O
  N781     1.0000 0.25189  0.31894  0.09918  Biso   1.000  N
  N782     1.0000 0.31070  0.32683  0.15260  Biso   1.000  N
  N783     1.0000 0.22630  0.34618  0.06164  Biso   1.000  N
  C625     1.0000 0.24873  0.24100  0.20477  Biso   1.000  C
  O314     1.0000 0.29767  0.24365  0.17434  Biso   1.000  O
  C626     1.0000 0.26950  0.25241  0.17656  Biso   1.000  C
  C627     1.0000 0.25086  0.34604  0.08275  Biso   1.000  C
  C628     1.0000 0.33100  0.32600  0.17797  Biso   1.000  C
  N784     1.0000 0.22700  0.30090  0.08800  Biso   1.000  N
  N785     1.0000 0.33310  0.30130  0.19870  Biso   1.000  N
  H469     1.0000 0.34370  0.30360  0.21640  Biso   1.000  H
  H470     1.0000 0.32390  0.28320  0.19430  Biso   1.000  H
  N786     1.0000 0.27360  0.36990  0.08450  Biso   1.000  N
  H471     1.0000 0.29000  0.36770  0.09700  Biso   1.000  H
  H472     1.0000 0.27150  0.38710  0.07300  Biso   1.000  H
  N787     1.0000 0.34430  0.35384  0.18327  Biso   1.000  N
  N788     1.0000 0.33290  0.37330  0.15920  Biso   1.000  N
  N789     1.0000 0.21150  0.31740  0.06700  Biso   1.000  N
  C629     1.0000 0.25857  0.21396  0.22221  Biso   1.000  C
  H473     1.0000 0.27680  0.20230  0.21600  Biso   1.000  H
  O315     1.0000 0.34640  0.39740  0.24220  Biso   1.000  O
  N790     1.0000 0.31490  0.35700  0.14080  Biso   1.000  N
  C630     1.0000 0.30670  0.41040  0.29350  Biso   1.000  C
  H474     1.0000 0.30250  0.39240  0.28070  Biso   1.000  H
  O316     1.0000 0.37790  0.43950  0.25310  Biso   1.000  O
  C631     1.0000 0.33220  0.43010  0.28700  Biso   1.000  C
  C632     1.0000 0.35390  0.42250  0.25850  Biso   1.000  C
  Zn80     1.0000 0.28351  0.79612  0.62758  Biso   1.000  Zn
  O317     1.0000 0.25606  0.77326  0.65817  Biso   1.000  O
  N791     1.0000 0.25189  0.81894  0.59918  Biso   1.000  N
  N792     1.0000 0.31070  0.82683  0.65260  Biso   1.000  N
  N793     1.0000 0.22630  0.84618  0.56164  Biso   1.000  N
  C633     1.0000 0.24873  0.74100  0.70477  Biso   1.000  C
  O318     1.0000 0.29767  0.74365  0.67434  Biso   1.000  O
  C634     1.0000 0.26950  0.75241  0.67656  Biso   1.000  C
  C635     1.0000 0.25086  0.84604  0.58275  Biso   1.000  C
  C636     1.0000 0.33100  0.82600  0.67797  Biso   1.000  C
  N794     1.0000 0.22700  0.80090  0.58800  Biso   1.000  N
  N795     1.0000 0.33310  0.80130  0.69870  Biso   1.000  N
  H475     1.0000 0.34370  0.80360  0.71640  Biso   1.000  H
  H476     1.0000 0.32390  0.78320  0.69430  Biso   1.000  H
  N796     1.0000 0.27360  0.86990  0.58450  Biso   1.000  N
  H477     1.0000 0.29000  0.86770  0.59700  Biso   1.000  H
  H478     1.0000 0.27150  0.88710  0.57300  Biso   1.000  H
  N797     1.0000 0.34430  0.85384  0.68327  Biso   1.000  N
  N798     1.0000 0.33290  0.87330  0.65920  Biso   1.000  N
  N799     1.0000 0.21150  0.81740  0.56700  Biso   1.000  N
  C637     1.0000 0.25857  0.71396  0.72221  Biso   1.000  C
  H479     1.0000 0.27680  0.70230  0.71600  Biso   1.000  H
  O319     1.0000 0.34640  0.89740  0.74220  Biso   1.000  O
  N800     1.0000 0.31490  0.85700  0.64080  Biso   1.000  N
  C638     1.0000 0.30670  0.91040  0.79350  Biso   1.000  C
  H480     1.0000 0.30250  0.89240  0.78070  Biso   1.000  H
  O320     1.0000 0.37790  0.93950  0.75310  Biso   1.000  O
  C639     1.0000 0.33220  0.93010  0.78700  Biso   1.000  C
  C640     1.0000 0.35390  0.92250  0.75850  Biso   1.000  C
  Zn81     1.0000 0.12242  0.96649  0.29612  Biso   1.000  Zn
  O321     1.0000 0.09183  0.99394  0.27326  Biso   1.000  O
  N801     1.0000 0.15082  0.99811  0.31894  Biso   1.000  N
  N802     1.0000 0.09740  0.93930  0.32683  Biso   1.000  N
  N803     1.0000 0.18836  0.02370  0.34618  Biso   1.000  N
  C641     1.0000 0.04523  0.00127  0.24100  Biso   1.000  C
  O322     1.0000 0.07566  0.95233  0.24365  Biso   1.000  O
  C642     1.0000 0.07344  0.98050  0.25241  Biso   1.000  C
  C643     1.0000 0.16725  0.99914  0.34604  Biso   1.000  C
  C644     1.0000 0.07203  0.91900  0.32600  Biso   1.000  C
  N804     1.0000 0.16200  0.02300  0.30090  Biso   1.000  N
  N805     1.0000 0.05130  0.91690  0.30130  Biso   1.000  N
  H481     1.0000 0.03360  0.90630  0.30360  Biso   1.000  H
  H482     1.0000 0.05570  0.92610  0.28320  Biso   1.000  H
  N806     1.0000 0.16550  0.97640  0.36990  Biso   1.000  N
  H483     1.0000 0.15300  0.96000  0.36770  Biso   1.000  H
  H484     1.0000 0.17700  0.97850  0.38710  Biso   1.000  H
  N807     1.0000 0.06673  0.90570  0.35384  Biso   1.000  N
  N808     1.0000 0.09080  0.91710  0.37330  Biso   1.000  N
  N809     1.0000 0.18300  0.03850  0.31740  Biso   1.000  N
  C645     1.0000 0.02779  0.99143  0.21396  Biso   1.000  C
  H485     1.0000 0.03400  0.97320  0.20230  Biso   1.000  H
  O323     1.0000 0.00780  0.90360  0.39740  Biso   1.000  O
  N810     1.0000 0.10920  0.93510  0.35700  Biso   1.000  N
  C646     1.0000 0.95650  0.94330  0.41040  Biso   1.000  C
  H486     1.0000 0.96930  0.94750  0.39240  Biso   1.000  H
  O324     1.0000 0.99690  0.87210  0.43950  Biso   1.000  O
  C647     1.0000 0.96300  0.91780  0.43010  Biso   1.000  C
  C648     1.0000 0.99150  0.89610  0.42250  Biso   1.000  C
  Zn82     1.0000 0.12242  0.46649  0.79612  Biso   1.000  Zn
  O325     1.0000 0.09183  0.49394  0.77326  Biso   1.000  O
  N811     1.0000 0.15082  0.49811  0.81894  Biso   1.000  N
  N812     1.0000 0.09740  0.43930  0.82683  Biso   1.000  N
  N813     1.0000 0.18836  0.52370  0.84618  Biso   1.000  N
  C649     1.0000 0.04523  0.50127  0.74100  Biso   1.000  C
  O326     1.0000 0.07566  0.45233  0.74365  Biso   1.000  O
  C650     1.0000 0.07344  0.48050  0.75241  Biso   1.000  C
  C651     1.0000 0.16725  0.49914  0.84604  Biso   1.000  C
  C652     1.0000 0.07203  0.41900  0.82600  Biso   1.000  C
  N814     1.0000 0.16200  0.52300  0.80090  Biso   1.000  N
  N815     1.0000 0.05130  0.41690  0.80130  Biso   1.000  N
  H487     1.0000 0.03360  0.40630  0.80360  Biso   1.000  H
  H488     1.0000 0.05570  0.42610  0.78320  Biso   1.000  H
  N816     1.0000 0.16550  0.47640  0.86990  Biso   1.000  N
  H489     1.0000 0.15300  0.46000  0.86770  Biso   1.000  H
  H490     1.0000 0.17700  0.47850  0.88710  Biso   1.000  H
  N817     1.0000 0.06673  0.40570  0.85384  Biso   1.000  N
  N818     1.0000 0.09080  0.41710  0.87330  Biso   1.000  N
  N819     1.0000 0.18300  0.53850  0.81740  Biso   1.000  N
  C653     1.0000 0.02779  0.49143  0.71396  Biso   1.000  C
  H491     1.0000 0.03400  0.47320  0.70230  Biso   1.000  H
  O327     1.0000 0.00780  0.40360  0.89740  Biso   1.000  O
  N820     1.0000 0.10920  0.43510  0.85700  Biso   1.000  N
  C654     1.0000 0.95650  0.44330  0.91040  Biso   1.000  C
  H492     1.0000 0.96930  0.44750  0.89240  Biso   1.000  H
  O328     1.0000 0.99690  0.37210  0.93950  Biso   1.000  O
  C655     1.0000 0.96300  0.41780  0.93010  Biso   1.000  C
  C656     1.0000 0.99150  0.39610  0.92250  Biso   1.000  C
  Zn83     1.0000 0.62242  0.96649  0.79612  Biso   1.000  Zn
  O329     1.0000 0.59183  0.99394  0.77326  Biso   1.000  O
  N821     1.0000 0.65082  0.99811  0.81894  Biso   1.000  N
  N822     1.0000 0.59740  0.93930  0.82683  Biso   1.000  N
  N823     1.0000 0.68836  0.02370  0.84618  Biso   1.000  N
  C657     1.0000 0.54523  0.00127  0.74100  Biso   1.000  C
  O330     1.0000 0.57566  0.95233  0.74365  Biso   1.000  O
  C658     1.0000 0.57344  0.98050  0.75241  Biso   1.000  C
  C659     1.0000 0.66725  0.99914  0.84604  Biso   1.000  C
  C660     1.0000 0.57203  0.91900  0.82600  Biso   1.000  C
  N824     1.0000 0.66200  0.02300  0.80090  Biso   1.000  N
  N825     1.0000 0.55130  0.91690  0.80130  Biso   1.000  N
  H493     1.0000 0.53360  0.90630  0.80360  Biso   1.000  H
  H494     1.0000 0.55570  0.92610  0.78320  Biso   1.000  H
  N826     1.0000 0.66550  0.97640  0.86990  Biso   1.000  N
  H495     1.0000 0.65300  0.96000  0.86770  Biso   1.000  H
  H496     1.0000 0.67700  0.97850  0.88710  Biso   1.000  H
  N827     1.0000 0.56673  0.90570  0.85384  Biso   1.000  N
  N828     1.0000 0.59080  0.91710  0.87330  Biso   1.000  N
  N829     1.0000 0.68300  0.03850  0.81740  Biso   1.000  N
  C661     1.0000 0.52779  0.99143  0.71396  Biso   1.000  C
  H497     1.0000 0.53400  0.97320  0.70230  Biso   1.000  H
  O331     1.0000 0.50780  0.90360  0.89740  Biso   1.000  O
  N830     1.0000 0.60920  0.93510  0.85700  Biso   1.000  N
  C662     1.0000 0.45650  0.94330  0.91040  Biso   1.000  C
  H498     1.0000 0.46930  0.94750  0.89240  Biso   1.000  H
  O332     1.0000 0.49690  0.87210  0.93950  Biso   1.000  O
  C663     1.0000 0.46300  0.91780  0.93010  Biso   1.000  C
  C664     1.0000 0.49150  0.89610  0.92250  Biso   1.000  C
  Zn84     1.0000 0.62242  0.46649  0.29612  Biso   1.000  Zn
  O333     1.0000 0.59183  0.49394  0.27326  Biso   1.000  O
  N831     1.0000 0.65082  0.49811  0.31894  Biso   1.000  N
  N832     1.0000 0.59740  0.43930  0.32683  Biso   1.000  N
  N833     1.0000 0.68836  0.52370  0.34618  Biso   1.000  N
  C665     1.0000 0.54523  0.50127  0.24100  Biso   1.000  C
  O334     1.0000 0.57566  0.45233  0.24365  Biso   1.000  O
  C666     1.0000 0.57344  0.48050  0.25241  Biso   1.000  C
  C667     1.0000 0.66725  0.49914  0.34604  Biso   1.000  C
  C668     1.0000 0.57203  0.41900  0.32600  Biso   1.000  C
  N834     1.0000 0.66200  0.52300  0.30090  Biso   1.000  N
  N835     1.0000 0.55130  0.41690  0.30130  Biso   1.000  N
  H499     1.0000 0.53360  0.40630  0.30360  Biso   1.000  H
  H500     1.0000 0.55570  0.42610  0.28320  Biso   1.000  H
  N836     1.0000 0.66550  0.47640  0.36990  Biso   1.000  N
  H501     1.0000 0.65300  0.46000  0.36770  Biso   1.000  H
  H502     1.0000 0.67700  0.47850  0.38710  Biso   1.000  H
  N837     1.0000 0.56673  0.40570  0.35384  Biso   1.000  N
  N838     1.0000 0.59080  0.41710  0.37330  Biso   1.000  N
  N839     1.0000 0.68300  0.53850  0.31740  Biso   1.000  N
  C669     1.0000 0.52779  0.49143  0.21396  Biso   1.000  C
  H503     1.0000 0.53400  0.47320  0.20230  Biso   1.000  H
  O335     1.0000 0.50780  0.40360  0.39740  Biso   1.000  O
  N840     1.0000 0.60920  0.43510  0.35700  Biso   1.000  N
  C670     1.0000 0.45650  0.44330  0.41040  Biso   1.000  C
  H504     1.0000 0.46930  0.44750  0.39240  Biso   1.000  H
  O336     1.0000 0.49690  0.37210  0.43950  Biso   1.000  O
  C671     1.0000 0.46300  0.41780  0.43010  Biso   1.000  C
  C672     1.0000 0.49150  0.39610  0.42250  Biso   1.000  C
  Zn85     1.0000 0.62758  0.96649  0.45388  Biso   1.000  Zn
  O337     1.0000 0.65817  0.99394  0.47674  Biso   1.000  O
  N841     1.0000 0.59918  0.99811  0.43106  Biso   1.000  N
  N842     1.0000 0.65260  0.93930  0.42317  Biso   1.000  N
  N843     1.0000 0.56164  0.02370  0.40382  Biso   1.000  N
  C673     1.0000 0.70477  0.00127  0.50900  Biso   1.000  C
  O338     1.0000 0.67434  0.95233  0.50635  Biso   1.000  O
  C674     1.0000 0.67656  0.98050  0.49759  Biso   1.000  C
  C675     1.0000 0.58275  0.99914  0.40396  Biso   1.000  C
  C676     1.0000 0.67797  0.91900  0.42400  Biso   1.000  C
  N844     1.0000 0.58800  0.02300  0.44910  Biso   1.000  N
  N845     1.0000 0.69870  0.91690  0.44870  Biso   1.000  N
  H505     1.0000 0.71640  0.90630  0.44640  Biso   1.000  H
  H506     1.0000 0.69430  0.92610  0.46680  Biso   1.000  H
  N846     1.0000 0.58450  0.97640  0.38010  Biso   1.000  N
  H507     1.0000 0.59700  0.96000  0.38230  Biso   1.000  H
  H508     1.0000 0.57300  0.97850  0.36290  Biso   1.000  H
  N847     1.0000 0.68327  0.90570  0.39616  Biso   1.000  N
  N848     1.0000 0.65920  0.91710  0.37670  Biso   1.000  N
  N849     1.0000 0.56700  0.03850  0.43260  Biso   1.000  N
  C677     1.0000 0.72221  0.99143  0.53604  Biso   1.000  C
  H509     1.0000 0.71600  0.97320  0.54770  Biso   1.000  H
  O339     1.0000 0.74220  0.90360  0.35260  Biso   1.000  O
  N850     1.0000 0.64080  0.93510  0.39300  Biso   1.000  N
  C678     1.0000 0.79350  0.94330  0.33960  Biso   1.000  C
  H510     1.0000 0.78070  0.94750  0.35760  Biso   1.000  H
  O340     1.0000 0.75310  0.87210  0.31050  Biso   1.000  O
  C679     1.0000 0.78700  0.91780  0.31990  Biso   1.000  C
  C680     1.0000 0.75850  0.89610  0.32750  Biso   1.000  C
  Zn86     1.0000 0.62758  0.46649  0.95388  Biso   1.000  Zn
  O341     1.0000 0.65817  0.49394  0.97674  Biso   1.000  O
  N851     1.0000 0.59918  0.49811  0.93106  Biso   1.000  N
  N852     1.0000 0.65260  0.43930  0.92317  Biso   1.000  N
  N853     1.0000 0.56164  0.52370  0.90382  Biso   1.000  N
  C681     1.0000 0.70477  0.50127  0.00900  Biso   1.000  C
  O342     1.0000 0.67434  0.45233  0.00635  Biso   1.000  O
  C682     1.0000 0.67656  0.48050  0.99759  Biso   1.000  C
  C683     1.0000 0.58275  0.49914  0.90396  Biso   1.000  C
  C684     1.0000 0.67797  0.41900  0.92400  Biso   1.000  C
  N854     1.0000 0.58800  0.52300  0.94910  Biso   1.000  N
  N855     1.0000 0.69870  0.41690  0.94870  Biso   1.000  N
  H511     1.0000 0.71640  0.40630  0.94640  Biso   1.000  H
  H512     1.0000 0.69430  0.42610  0.96680  Biso   1.000  H
  N856     1.0000 0.58450  0.47640  0.88010  Biso   1.000  N
  H513     1.0000 0.59700  0.46000  0.88230  Biso   1.000  H
  H514     1.0000 0.57300  0.47850  0.86290  Biso   1.000  H
  N857     1.0000 0.68327  0.40570  0.89616  Biso   1.000  N
  N858     1.0000 0.65920  0.41710  0.87670  Biso   1.000  N
  N859     1.0000 0.56700  0.53850  0.93260  Biso   1.000  N
  C685     1.0000 0.72221  0.49143  0.03604  Biso   1.000  C
  H515     1.0000 0.71600  0.47320  0.04770  Biso   1.000  H
  O343     1.0000 0.74220  0.40360  0.85260  Biso   1.000  O
  N860     1.0000 0.64080  0.43510  0.89300  Biso   1.000  N
  C686     1.0000 0.79350  0.44330  0.83960  Biso   1.000  C
  H516     1.0000 0.78070  0.44750  0.85760  Biso   1.000  H
  O344     1.0000 0.75310  0.37210  0.81050  Biso   1.000  O
  C687     1.0000 0.78700  0.41780  0.81990  Biso   1.000  C
  C688     1.0000 0.75850  0.39610  0.82750  Biso   1.000  C
  Zn87     1.0000 0.12758  0.96649  0.95388  Biso   1.000  Zn
  O345     1.0000 0.15817  0.99394  0.97674  Biso   1.000  O
  N861     1.0000 0.09918  0.99811  0.93106  Biso   1.000  N
  N862     1.0000 0.15260  0.93930  0.92317  Biso   1.000  N
  N863     1.0000 0.06164  0.02370  0.90382  Biso   1.000  N
  C689     1.0000 0.20477  0.00127  0.00900  Biso   1.000  C
  O346     1.0000 0.17434  0.95233  0.00635  Biso   1.000  O
  C690     1.0000 0.17656  0.98050  0.99759  Biso   1.000  C
  C691     1.0000 0.08275  0.99914  0.90396  Biso   1.000  C
  C692     1.0000 0.17797  0.91900  0.92400  Biso   1.000  C
  N864     1.0000 0.08800  0.02300  0.94910  Biso   1.000  N
  N865     1.0000 0.19870  0.91690  0.94870  Biso   1.000  N
  H517     1.0000 0.21640  0.90630  0.94640  Biso   1.000  H
  H518     1.0000 0.19430  0.92610  0.96680  Biso   1.000  H
  N866     1.0000 0.08450  0.97640  0.88010  Biso   1.000  N
  H519     1.0000 0.09700  0.96000  0.88230  Biso   1.000  H
  H520     1.0000 0.07300  0.97850  0.86290  Biso   1.000  H
  N867     1.0000 0.18327  0.90570  0.89616  Biso   1.000  N
  N868     1.0000 0.15920  0.91710  0.87670  Biso   1.000  N
  N869     1.0000 0.06700  0.03850  0.93260  Biso   1.000  N
  C693     1.0000 0.22221  0.99143  0.03604  Biso   1.000  C
  H521     1.0000 0.21600  0.97320  0.04770  Biso   1.000  H
  O347     1.0000 0.24220  0.90360  0.85260  Biso   1.000  O
  N870     1.0000 0.14080  0.93510  0.89300  Biso   1.000  N
  C694     1.0000 0.29350  0.94330  0.83960  Biso   1.000  C
  H522     1.0000 0.28070  0.94750  0.85760  Biso   1.000  H
  O348     1.0000 0.25310  0.87210  0.81050  Biso   1.000  O
  C695     1.0000 0.28700  0.91780  0.81990  Biso   1.000  C
  C696     1.0000 0.25850  0.89610  0.82750  Biso   1.000  C
  Zn88     1.0000 0.12758  0.46649  0.45388  Biso   1.000  Zn
  O349     1.0000 0.15817  0.49394  0.47674  Biso   1.000  O
  N871     1.0000 0.09918  0.49811  0.43106  Biso   1.000  N
  N872     1.0000 0.15260  0.43930  0.42317  Biso   1.000  N
  N873     1.0000 0.06164  0.52370  0.40382  Biso   1.000  N
  C697     1.0000 0.20477  0.50127  0.50900  Biso   1.000  C
  O350     1.0000 0.17434  0.45233  0.50635  Biso   1.000  O
  C698     1.0000 0.17656  0.48050  0.49759  Biso   1.000  C
  C699     1.0000 0.08275  0.49914  0.40396  Biso   1.000  C
  C700     1.0000 0.17797  0.41900  0.42400  Biso   1.000  C
  N874     1.0000 0.08800  0.52300  0.44910  Biso   1.000  N
  N875     1.0000 0.19870  0.41690  0.44870  Biso   1.000  N
  H523     1.0000 0.21640  0.40630  0.44640  Biso   1.000  H
  H524     1.0000 0.19430  0.42610  0.46680  Biso   1.000  H
  N876     1.0000 0.08450  0.47640  0.38010  Biso   1.000  N
  H525     1.0000 0.09700  0.46000  0.38230  Biso   1.000  H
  H526     1.0000 0.07300  0.47850  0.36290  Biso   1.000  H
  N877     1.0000 0.18327  0.40570  0.39616  Biso   1.000  N
  N878     1.0000 0.15920  0.41710  0.37670  Biso   1.000  N
  N879     1.0000 0.06700  0.53850  0.43260  Biso   1.000  N
  C701     1.0000 0.22221  0.49143  0.53604  Biso   1.000  C
  H527     1.0000 0.21600  0.47320  0.54770  Biso   1.000  H
  O351     1.0000 0.24220  0.40360  0.35260  Biso   1.000  O
  N880     1.0000 0.14080  0.43510  0.39300  Biso   1.000  N
  C702     1.0000 0.29350  0.44330  0.33960  Biso   1.000  C
  H528     1.0000 0.28070  0.44750  0.35760  Biso   1.000  H
  O352     1.0000 0.25310  0.37210  0.31050  Biso   1.000  O
  C703     1.0000 0.28700  0.41780  0.31990  Biso   1.000  C
  C704     1.0000 0.25850  0.39610  0.32750  Biso   1.000  C
  Zn89     1.0000 0.12242  0.78351  0.45388  Biso   1.000  Zn
  O353     1.0000 0.09183  0.75606  0.47674  Biso   1.000  O
  N881     1.0000 0.15082  0.75189  0.43106  Biso   1.000  N
  N882     1.0000 0.09740  0.81070  0.42317  Biso   1.000  N
  N883     1.0000 0.18836  0.72630  0.40382  Biso   1.000  N
  C705     1.0000 0.04523  0.74873  0.50900  Biso   1.000  C
  O354     1.0000 0.07566  0.79767  0.50635  Biso   1.000  O
  C706     1.0000 0.07344  0.76950  0.49759  Biso   1.000  C
  C707     1.0000 0.16725  0.75086  0.40396  Biso   1.000  C
  C708     1.0000 0.07203  0.83100  0.42400  Biso   1.000  C
  N884     1.0000 0.16200  0.72700  0.44910  Biso   1.000  N
  N885     1.0000 0.05130  0.83310  0.44870  Biso   1.000  N
  H529     1.0000 0.03360  0.84370  0.44640  Biso   1.000  H
  H530     1.0000 0.05570  0.82390  0.46680  Biso   1.000  H
  N886     1.0000 0.16550  0.77360  0.38010  Biso   1.000  N
  H531     1.0000 0.15300  0.79000  0.38230  Biso   1.000  H
  H532     1.0000 0.17700  0.77150  0.36290  Biso   1.000  H
  N887     1.0000 0.06673  0.84430  0.39616  Biso   1.000  N
  N888     1.0000 0.09080  0.83290  0.37670  Biso   1.000  N
  N889     1.0000 0.18300  0.71150  0.43260  Biso   1.000  N
  C709     1.0000 0.02779  0.75857  0.53604  Biso   1.000  C
  H533     1.0000 0.03400  0.77680  0.54770  Biso   1.000  H
  O355     1.0000 0.00780  0.84640  0.35260  Biso   1.000  O
  N890     1.0000 0.10920  0.81490  0.39300  Biso   1.000  N
  C710     1.0000 0.95650  0.80670  0.33960  Biso   1.000  C
  H534     1.0000 0.96930  0.80250  0.35760  Biso   1.000  H
  O356     1.0000 0.99690  0.87790  0.31050  Biso   1.000  O
  C711     1.0000 0.96300  0.83220  0.31990  Biso   1.000  C
  C712     1.0000 0.99150  0.85390  0.32750  Biso   1.000  C
  Zn90     1.0000 0.12242  0.28351  0.95388  Biso   1.000  Zn
  O357     1.0000 0.09183  0.25606  0.97674  Biso   1.000  O
  N891     1.0000 0.15082  0.25189  0.93106  Biso   1.000  N
  N892     1.0000 0.09740  0.31070  0.92317  Biso   1.000  N
  N893     1.0000 0.18836  0.22630  0.90382  Biso   1.000  N
  C713     1.0000 0.04523  0.24873  0.00900  Biso   1.000  C
  O358     1.0000 0.07566  0.29767  0.00635  Biso   1.000  O
  C714     1.0000 0.07344  0.26950  0.99759  Biso   1.000  C
  C715     1.0000 0.16725  0.25086  0.90396  Biso   1.000  C
  C716     1.0000 0.07203  0.33100  0.92400  Biso   1.000  C
  N894     1.0000 0.16200  0.22700  0.94910  Biso   1.000  N
  N895     1.0000 0.05130  0.33310  0.94870  Biso   1.000  N
  H535     1.0000 0.03360  0.34370  0.94640  Biso   1.000  H
  H536     1.0000 0.05570  0.32390  0.96680  Biso   1.000  H
  N896     1.0000 0.16550  0.27360  0.88010  Biso   1.000  N
  H537     1.0000 0.15300  0.29000  0.88230  Biso   1.000  H
  H538     1.0000 0.17700  0.27150  0.86290  Biso   1.000  H
  N897     1.0000 0.06673  0.34430  0.89616  Biso   1.000  N
  N898     1.0000 0.09080  0.33290  0.87670  Biso   1.000  N
  N899     1.0000 0.18300  0.21150  0.93260  Biso   1.000  N
  C717     1.0000 0.02779  0.25857  0.03604  Biso   1.000  C
  H539     1.0000 0.03400  0.27680  0.04770  Biso   1.000  H
  O359     1.0000 0.00780  0.34640  0.85260  Biso   1.000  O
  N900     1.0000 0.10920  0.31490  0.89300  Biso   1.000  N
  C718     1.0000 0.95650  0.30670  0.83960  Biso   1.000  C
  H540     1.0000 0.96930  0.30250  0.85760  Biso   1.000  H
  O360     1.0000 0.99690  0.37790  0.81050  Biso   1.000  O
  C719     1.0000 0.96300  0.33220  0.81990  Biso   1.000  C
  C720     1.0000 0.99150  0.35390  0.82750  Biso   1.000  C
  Zn91     1.0000 0.62242  0.78351  0.95388  Biso   1.000  Zn
  O361     1.0000 0.59183  0.75606  0.97674  Biso   1.000  O
  N901     1.0000 0.65082  0.75189  0.93106  Biso   1.000  N
  N902     1.0000 0.59740  0.81070  0.92317  Biso   1.000  N
  N903     1.0000 0.68836  0.72630  0.90382  Biso   1.000  N
  C721     1.0000 0.54523  0.74873  0.00900  Biso   1.000  C
  O362     1.0000 0.57566  0.79767  0.00635  Biso   1.000  O
  C722     1.0000 0.57344  0.76950  0.99759  Biso   1.000  C
  C723     1.0000 0.66725  0.75086  0.90396  Biso   1.000  C
  C724     1.0000 0.57203  0.83100  0.92400  Biso   1.000  C
  N904     1.0000 0.66200  0.72700  0.94910  Biso   1.000  N
  N905     1.0000 0.55130  0.83310  0.94870  Biso   1.000  N
  H541     1.0000 0.53360  0.84370  0.94640  Biso   1.000  H
  H542     1.0000 0.55570  0.82390  0.96680  Biso   1.000  H
  N906     1.0000 0.66550  0.77360  0.88010  Biso   1.000  N
  H543     1.0000 0.65300  0.79000  0.88230  Biso   1.000  H
  H544     1.0000 0.67700  0.77150  0.86290  Biso   1.000  H
  N907     1.0000 0.56673  0.84430  0.89616  Biso   1.000  N
  N908     1.0000 0.59080  0.83290  0.87670  Biso   1.000  N
  N909     1.0000 0.68300  0.71150  0.93260  Biso   1.000  N
  C725     1.0000 0.52779  0.75857  0.03604  Biso   1.000  C
  H545     1.0000 0.53400  0.77680  0.04770  Biso   1.000  H
  O363     1.0000 0.50780  0.84640  0.85260  Biso   1.000  O
  N910     1.0000 0.60920  0.81490  0.89300  Biso   1.000  N
  C726     1.0000 0.45650  0.80670  0.83960  Biso   1.000  C
  H546     1.0000 0.46930  0.80250  0.85760  Biso   1.000  H
  O364     1.0000 0.49690  0.87790  0.81050  Biso   1.000  O
  C727     1.0000 0.46300  0.83220  0.81990  Biso   1.000  C
  C728     1.0000 0.49150  0.85390  0.82750  Biso   1.000  C
  Zn92     1.0000 0.62242  0.28351  0.45388  Biso   1.000  Zn
  O365     1.0000 0.59183  0.25606  0.47674  Biso   1.000  O
  N911     1.0000 0.65082  0.25189  0.43106  Biso   1.000  N
  N912     1.0000 0.59740  0.31070  0.42317  Biso   1.000  N
  N913     1.0000 0.68836  0.22630  0.40382  Biso   1.000  N
  C729     1.0000 0.54523  0.24873  0.50900  Biso   1.000  C
  O366     1.0000 0.57566  0.29767  0.50635  Biso   1.000  O
  C730     1.0000 0.57344  0.26950  0.49759  Biso   1.000  C
  C731     1.0000 0.66725  0.25086  0.40396  Biso   1.000  C
  C732     1.0000 0.57203  0.33100  0.42400  Biso   1.000  C
  N914     1.0000 0.66200  0.22700  0.44910  Biso   1.000  N
  N915     1.0000 0.55130  0.33310  0.44870  Biso   1.000  N
  H547     1.0000 0.53360  0.34370  0.44640  Biso   1.000  H
  H548     1.0000 0.55570  0.32390  0.46680  Biso   1.000  H
  N916     1.0000 0.66550  0.27360  0.38010  Biso   1.000  N
  H549     1.0000 0.65300  0.29000  0.38230  Biso   1.000  H
  H550     1.0000 0.67700  0.27150  0.36290  Biso   1.000  H
  N917     1.0000 0.56673  0.34430  0.39616  Biso   1.000  N
  N918     1.0000 0.59080  0.33290  0.37670  Biso   1.000  N
  N919     1.0000 0.68300  0.21150  0.43260  Biso   1.000  N
  C733     1.0000 0.52779  0.25857  0.53604  Biso   1.000  C
  H551     1.0000 0.53400  0.27680  0.54770  Biso   1.000  H
  O367     1.0000 0.50780  0.34640  0.35260  Biso   1.000  O
  N920     1.0000 0.60920  0.31490  0.39300  Biso   1.000  N
  C734     1.0000 0.45650  0.30670  0.33960  Biso   1.000  C
  H552     1.0000 0.46930  0.30250  0.35760  Biso   1.000  H
  O368     1.0000 0.49690  0.37790  0.31050  Biso   1.000  O
  C735     1.0000 0.46300  0.33220  0.31990  Biso   1.000  C
  C736     1.0000 0.49150  0.35390  0.32750  Biso   1.000  C
  Zn93     1.0000 0.62758  0.78351  0.29612  Biso   1.000  Zn
  O369     1.0000 0.65817  0.75606  0.27326  Biso   1.000  O
  N921     1.0000 0.59918  0.75189  0.31894  Biso   1.000  N
  N922     1.0000 0.65260  0.81070  0.32683  Biso   1.000  N
  N923     1.0000 0.56164  0.72630  0.34618  Biso   1.000  N
  C737     1.0000 0.70477  0.74873  0.24100  Biso   1.000  C
  O370     1.0000 0.67434  0.79767  0.24365  Biso   1.000  O
  C738     1.0000 0.67656  0.76950  0.25241  Biso   1.000  C
  C739     1.0000 0.58275  0.75086  0.34604  Biso   1.000  C
  C740     1.0000 0.67797  0.83100  0.32600  Biso   1.000  C
  N924     1.0000 0.58800  0.72700  0.30090  Biso   1.000  N
  N925     1.0000 0.69870  0.83310  0.30130  Biso   1.000  N
  H553     1.0000 0.71640  0.84370  0.30360  Biso   1.000  H
  H554     1.0000 0.69430  0.82390  0.28320  Biso   1.000  H
  N926     1.0000 0.58450  0.77360  0.36990  Biso   1.000  N
  H555     1.0000 0.59700  0.79000  0.36770  Biso   1.000  H
  H556     1.0000 0.57300  0.77150  0.38710  Biso   1.000  H
  N927     1.0000 0.68327  0.84430  0.35384  Biso   1.000  N
  N928     1.0000 0.65920  0.83290  0.37330  Biso   1.000  N
  N929     1.0000 0.56700  0.71150  0.31740  Biso   1.000  N
  C741     1.0000 0.72221  0.75857  0.21396  Biso   1.000  C
  H557     1.0000 0.71600  0.77680  0.20230  Biso   1.000  H
  O371     1.0000 0.74220  0.84640  0.39740  Biso   1.000  O
  N930     1.0000 0.64080  0.81490  0.35700  Biso   1.000  N
  C742     1.0000 0.79350  0.80670  0.41040  Biso   1.000  C
  H558     1.0000 0.78070  0.80250  0.39240  Biso   1.000  H
  O372     1.0000 0.75310  0.87790  0.43950  Biso   1.000  O
  C743     1.0000 0.78700  0.83220  0.43010  Biso   1.000  C
  C744     1.0000 0.75850  0.85390  0.42250  Biso   1.000  C
  Zn94     1.0000 0.62758  0.28351  0.79612  Biso   1.000  Zn
  O373     1.0000 0.65817  0.25606  0.77326  Biso   1.000  O
  N931     1.0000 0.59918  0.25189  0.81894  Biso   1.000  N
  N932     1.0000 0.65260  0.31070  0.82683  Biso   1.000  N
  N933     1.0000 0.56164  0.22630  0.84618  Biso   1.000  N
  C745     1.0000 0.70477  0.24873  0.74100  Biso   1.000  C
  O374     1.0000 0.67434  0.29767  0.74365  Biso   1.000  O
  C746     1.0000 0.67656  0.26950  0.75241  Biso   1.000  C
  C747     1.0000 0.58275  0.25086  0.84604  Biso   1.000  C
  C748     1.0000 0.67797  0.33100  0.82600  Biso   1.000  C
  N934     1.0000 0.58800  0.22700  0.80090  Biso   1.000  N
  N935     1.0000 0.69870  0.33310  0.80130  Biso   1.000  N
  H559     1.0000 0.71640  0.34370  0.80360  Biso   1.000  H
  H560     1.0000 0.69430  0.32390  0.78320  Biso   1.000  H
  N936     1.0000 0.58450  0.27360  0.86990  Biso   1.000  N
  H561     1.0000 0.59700  0.29000  0.86770  Biso   1.000  H
  H562     1.0000 0.57300  0.27150  0.88710  Biso   1.000  H
  N937     1.0000 0.68327  0.34430  0.85384  Biso   1.000  N
  N938     1.0000 0.65920  0.33290  0.87330  Biso   1.000  N
  N939     1.0000 0.56700  0.21150  0.81740  Biso   1.000  N
  C749     1.0000 0.72221  0.25857  0.71396  Biso   1.000  C
  H563     1.0000 0.71600  0.27680  0.70230  Biso   1.000  H
  O375     1.0000 0.74220  0.34640  0.89740  Biso   1.000  O
  N940     1.0000 0.64080  0.31490  0.85700  Biso   1.000  N
  C750     1.0000 0.79350  0.30670  0.91040  Biso   1.000  C
  H564     1.0000 0.78070  0.30250  0.89240  Biso   1.000  H
  O376     1.0000 0.75310  0.37790  0.93950  Biso   1.000  O
  C751     1.0000 0.78700  0.33220  0.93010  Biso   1.000  C
  C752     1.0000 0.75850  0.35390  0.92250  Biso   1.000  C
  Zn95     1.0000 0.12758  0.78351  0.79612  Biso   1.000  Zn
  O377     1.0000 0.15817  0.75606  0.77326  Biso   1.000  O
  N941     1.0000 0.09918  0.75189  0.81894  Biso   1.000  N
  N942     1.0000 0.15260  0.81070  0.82683  Biso   1.000  N
  N943     1.0000 0.06164  0.72630  0.84618  Biso   1.000  N
  C753     1.0000 0.20477  0.74873  0.74100  Biso   1.000  C
  O378     1.0000 0.17434  0.79767  0.74365  Biso   1.000  O
  C754     1.0000 0.17656  0.76950  0.75241  Biso   1.000  C
  C755     1.0000 0.08275  0.75086  0.84604  Biso   1.000  C
  C756     1.0000 0.17797  0.83100  0.82600  Biso   1.000  C
  N944     1.0000 0.08800  0.72700  0.80090  Biso   1.000  N
  N945     1.0000 0.19870  0.83310  0.80130  Biso   1.000  N
  H565     1.0000 0.21640  0.84370  0.80360  Biso   1.000  H
  H566     1.0000 0.19430  0.82390  0.78320  Biso   1.000  H
  N946     1.0000 0.08450  0.77360  0.86990  Biso   1.000  N
  H567     1.0000 0.09700  0.79000  0.86770  Biso   1.000  H
  H568     1.0000 0.07300  0.77150  0.88710  Biso   1.000  H
  N947     1.0000 0.18327  0.84430  0.85384  Biso   1.000  N
  N948     1.0000 0.15920  0.83290  0.87330  Biso   1.000  N
  N949     1.0000 0.06700  0.71150  0.81740  Biso   1.000  N
  C757     1.0000 0.22221  0.75857  0.71396  Biso   1.000  C
  H569     1.0000 0.21600  0.77680  0.70230  Biso   1.000  H
  O379     1.0000 0.24220  0.84640  0.89740  Biso   1.000  O
  N950     1.0000 0.14080  0.81490  0.85700  Biso   1.000  N
  C758     1.0000 0.29350  0.80670  0.91040  Biso   1.000  C
  H570     1.0000 0.28070  0.80250  0.89240  Biso   1.000  H
  O380     1.0000 0.25310  0.87790  0.93950  Biso   1.000  O
  C759     1.0000 0.28700  0.83220  0.93010  Biso   1.000  C
  C760     1.0000 0.25850  0.85390  0.92250  Biso   1.000  C
  Zn96     1.0000 0.12758  0.28351  0.29612  Biso   1.000  Zn
  O381     1.0000 0.15817  0.25606  0.27326  Biso   1.000  O
  N951     1.0000 0.09918  0.25189  0.31894  Biso   1.000  N
  N952     1.0000 0.15260  0.31070  0.32683  Biso   1.000  N
  N953     1.0000 0.06164  0.22630  0.34618  Biso   1.000  N
  C761     1.0000 0.20477  0.24873  0.24100  Biso   1.000  C
  O382     1.0000 0.17434  0.29767  0.24365  Biso   1.000  O
  C762     1.0000 0.17656  0.26950  0.25241  Biso   1.000  C
  C763     1.0000 0.08275  0.25086  0.34604  Biso   1.000  C
  C764     1.0000 0.17797  0.33100  0.32600  Biso   1.000  C
  N954     1.0000 0.08800  0.22700  0.30090  Biso   1.000  N
  N955     1.0000 0.19870  0.33310  0.30130  Biso   1.000  N
  H571     1.0000 0.21640  0.34370  0.30360  Biso   1.000  H
  H572     1.0000 0.19430  0.32390  0.28320  Biso   1.000  H
  N956     1.0000 0.08450  0.27360  0.36990  Biso   1.000  N
  H573     1.0000 0.09700  0.29000  0.36770  Biso   1.000  H
  H574     1.0000 0.07300  0.27150  0.38710  Biso   1.000  H
  N957     1.0000 0.18327  0.34430  0.35384  Biso   1.000  N
  N958     1.0000 0.15920  0.33290  0.37330  Biso   1.000  N
  N959     1.0000 0.06700  0.21150  0.31740  Biso   1.000  N
  C765     1.0000 0.22221  0.25857  0.21396  Biso   1.000  C
  H575     1.0000 0.21600  0.27680  0.20230  Biso   1.000  H
  O383     1.0000 0.24220  0.34640  0.39740  Biso   1.000  O
  N960     1.0000 0.14080  0.31490  0.35700  Biso   1.000  N
  C766     1.0000 0.29350  0.30670  0.41040  Biso   1.000  C
  H576     1.0000 0.28070  0.30250  0.39240  Biso   1.000  H
  O384     1.0000 0.25310  0.37790  0.43950  Biso   1.000  O
  C767     1.0000 0.28700  0.33220  0.43010  Biso   1.000  C
  C768     1.0000 0.25850  0.35390  0.42250  Biso   1.000  C
  Zn97     1.0000 0.62500  0.96384  0.12500  Biso   1.000  Zn
  Zn98     1.0000 0.62500  0.46384  0.62500  Biso   1.000  Zn
  Zn99     1.0000 0.12500  0.96384  0.62500  Biso   1.000  Zn
  Zn100    1.0000 0.12500  0.46384  0.12500  Biso   1.000  Zn
  Zn101    1.0000 0.62500  0.28616  0.12500  Biso   1.000  Zn
  Zn102    1.0000 0.62500  0.78616  0.62500  Biso   1.000  Zn
  Zn103    1.0000 0.12500  0.28616  0.62500  Biso   1.000  Zn
  Zn104    1.0000 0.12500  0.78616  0.12500  Biso   1.000  Zn
  Zn105    1.0000 0.12500  0.62500  0.96384  Biso   1.000  Zn
  Zn106    1.0000 0.12500  0.12500  0.46384  Biso   1.000  Zn
  Zn107    1.0000 0.62500  0.62500  0.46384  Biso   1.000  Zn
  Zn108    1.0000 0.62500  0.12500  0.96384  Biso   1.000  Zn
  Zn109    1.0000 0.12500  0.62500  0.28616  Biso   1.000  Zn
  Zn110    1.0000 0.12500  0.12500  0.78616  Biso   1.000  Zn
  Zn111    1.0000 0.62500  0.62500  0.78616  Biso   1.000  Zn
  Zn112    1.0000 0.62500  0.12500  0.28616  Biso   1.000  Zn
  Zn113    1.0000 0.96384  0.12500  0.62500  Biso   1.000  Zn
  Zn114    1.0000 0.96384  0.62500  0.12500  Biso   1.000  Zn
  Zn115    1.0000 0.46384  0.12500  0.12500  Biso   1.000  Zn
  Zn116    1.0000 0.46384  0.62500  0.62500  Biso   1.000  Zn
  Zn117    1.0000 0.28616  0.12500  0.62500  Biso   1.000  Zn
  Zn118    1.0000 0.28616  0.62500  0.12500  Biso   1.000  Zn
  Zn119    1.0000 0.78616  0.12500  0.12500  Biso   1.000  Zn
  Zn120    1.0000 0.78616  0.62500  0.62500  Biso   1.000  Zn
  Zn121    1.0000 0.37500  0.03616  0.87500  Biso   1.000  Zn
  Zn122    1.0000 0.37500  0.53616  0.37500  Biso   1.000  Zn
  Zn123    1.0000 0.87500  0.03616  0.37500  Biso   1.000  Zn
  Zn124    1.0000 0.87500  0.53616  0.87500  Biso   1.000  Zn
  Zn125    1.0000 0.37500  0.71384  0.87500  Biso   1.000  Zn
  Zn126    1.0000 0.37500  0.21384  0.37500  Biso   1.000  Zn
  Zn127    1.0000 0.87500  0.71384  0.37500  Biso   1.000  Zn
  Zn128    1.0000 0.87500  0.21384  0.87500  Biso   1.000  Zn
  Zn129    1.0000 0.87500  0.37500  0.03616  Biso   1.000  Zn
  Zn130    1.0000 0.87500  0.87500  0.53616  Biso   1.000  Zn
  Zn131    1.0000 0.37500  0.37500  0.53616  Biso   1.000  Zn
  Zn132    1.0000 0.37500  0.87500  0.03616  Biso   1.000  Zn
  Zn133    1.0000 0.87500  0.37500  0.71384  Biso   1.000  Zn
  Zn134    1.0000 0.87500  0.87500  0.21384  Biso   1.000  Zn
  Zn135    1.0000 0.37500  0.37500  0.21384  Biso   1.000  Zn
  Zn136    1.0000 0.37500  0.87500  0.71384  Biso   1.000  Zn
  Zn137    1.0000 0.03616  0.87500  0.37500  Biso   1.000  Zn
  Zn138    1.0000 0.03616  0.37500  0.87500  Biso   1.000  Zn
  Zn139    1.0000 0.53616  0.87500  0.87500  Biso   1.000  Zn
  Zn140    1.0000 0.53616  0.37500  0.37500  Biso   1.000  Zn
  Zn141    1.0000 0.71384  0.87500  0.37500  Biso   1.000  Zn
  Zn142    1.0000 0.71384  0.37500  0.87500  Biso   1.000  Zn
  Zn143    1.0000 0.21384  0.87500  0.87500  Biso   1.000  Zn
  Zn144    1.0000 0.21384  0.37500  0.37500  Biso   1.000  Zn
