data_image0
_cell_length_a       36.793
_cell_length_b       36.793
_cell_length_c       36.793
_cell_angle_alpha    90
_cell_angle_beta     90
_cell_angle_gamma    90

_symmetry_space_group_name_H-M    "P 1"
_symmetry_int_tables_number       1

loop_
  _symmetry_equiv_pos_as_xyz
  'x, y, z'

loop_
  _atom_site_label
  _atom_site_occupancy
  _atom_site_fract_x
  _atom_site_fract_y
  _atom_site_fract_z
  _atom_site_thermal_displace_type
  _atom_site_B_iso_or_equiv
  _atom_site_type_symbol
  C1       1.0000 0.23270  0.05230  0.19150  Biso   1.000  C
  H1       1.0000 0.25460  0.04290  0.18170  Biso   1.000  H
  C2       1.0000 0.21320  0.07980  0.17280  Biso   1.000  C
  H2       1.0000 0.22300  0.08850  0.15050  Biso   1.000  H
  C3       1.0000 0.23270  0.55230  0.69150  Biso   1.000  C
  H3       1.0000 0.25460  0.54290  0.68170  Biso   1.000  H
  C4       1.0000 0.21320  0.57980  0.67280  Biso   1.000  C
  H4       1.0000 0.22300  0.58850  0.65050  Biso   1.000  H
  C5       1.0000 0.73270  0.05230  0.69150  Biso   1.000  C
  H5       1.0000 0.75460  0.04290  0.68170  Biso   1.000  H
  C6       1.0000 0.71320  0.07980  0.67280  Biso   1.000  C
  H6       1.0000 0.72300  0.08850  0.65050  Biso   1.000  H
  C7       1.0000 0.73270  0.55230  0.19150  Biso   1.000  C
  H7       1.0000 0.75460  0.54290  0.18170  Biso   1.000  H
  C8       1.0000 0.71320  0.57980  0.17280  Biso   1.000  C
  H8       1.0000 0.72300  0.58850  0.15050  Biso   1.000  H
  C9       1.0000 0.76730  0.94770  0.19150  Biso   1.000  C
  H9       1.0000 0.74540  0.95710  0.18170  Biso   1.000  H
  C10      1.0000 0.78680  0.92020  0.17280  Biso   1.000  C
  H10      1.0000 0.77700  0.91150  0.15050  Biso   1.000  H
  C11      1.0000 0.76730  0.44770  0.69150  Biso   1.000  C
  H11      1.0000 0.74540  0.45710  0.68170  Biso   1.000  H
  C12      1.0000 0.78680  0.42020  0.67280  Biso   1.000  C
  H12      1.0000 0.77700  0.41150  0.65050  Biso   1.000  H
  C13      1.0000 0.26730  0.94770  0.69150  Biso   1.000  C
  H13      1.0000 0.24540  0.95710  0.68170  Biso   1.000  H
  C14      1.0000 0.28680  0.92020  0.67280  Biso   1.000  C
  H14      1.0000 0.27700  0.91150  0.65050  Biso   1.000  H
  C15      1.0000 0.26730  0.44770  0.19150  Biso   1.000  C
  H15      1.0000 0.24540  0.45710  0.18170  Biso   1.000  H
  C16      1.0000 0.28680  0.42020  0.17280  Biso   1.000  C
  H16      1.0000 0.27700  0.41150  0.15050  Biso   1.000  H
  C17      1.0000 0.76730  0.05230  0.80850  Biso   1.000  C
  H17      1.0000 0.74540  0.04290  0.81830  Biso   1.000  H
  C18      1.0000 0.78680  0.07980  0.82720  Biso   1.000  C
  H18      1.0000 0.77700  0.08850  0.84950  Biso   1.000  H
  C19      1.0000 0.76730  0.55230  0.30850  Biso   1.000  C
  H19      1.0000 0.74540  0.54290  0.31830  Biso   1.000  H
  C20      1.0000 0.78680  0.57980  0.32720  Biso   1.000  C
  H20      1.0000 0.77700  0.58850  0.34950  Biso   1.000  H
  C21      1.0000 0.26730  0.05230  0.30850  Biso   1.000  C
  H21      1.0000 0.24540  0.04290  0.31830  Biso   1.000  H
  C22      1.0000 0.28680  0.07980  0.32720  Biso   1.000  C
  H22      1.0000 0.27700  0.08850  0.34950  Biso   1.000  H
  C23      1.0000 0.26730  0.55230  0.80850  Biso   1.000  C
  H23      1.0000 0.24540  0.54290  0.81830  Biso   1.000  H
  C24      1.0000 0.28680  0.57980  0.82720  Biso   1.000  C
  H24      1.0000 0.27700  0.58850  0.84950  Biso   1.000  H
  C25      1.0000 0.23270  0.94770  0.80850  Biso   1.000  C
  H25      1.0000 0.25460  0.95710  0.81830  Biso   1.000  H
  C26      1.0000 0.21320  0.92020  0.82720  Biso   1.000  C
  H26      1.0000 0.22300  0.91150  0.84950  Biso   1.000  H
  C27      1.0000 0.23270  0.44770  0.30850  Biso   1.000  C
  H27      1.0000 0.25460  0.45710  0.31830  Biso   1.000  H
  C28      1.0000 0.21320  0.42020  0.32720  Biso   1.000  C
  H28      1.0000 0.22300  0.41150  0.34950  Biso   1.000  H
  C29      1.0000 0.73270  0.94770  0.30850  Biso   1.000  C
  H29      1.0000 0.75460  0.95710  0.31830  Biso   1.000  H
  C30      1.0000 0.71320  0.92020  0.32720  Biso   1.000  C
  H30      1.0000 0.72300  0.91150  0.34950  Biso   1.000  H
  C31      1.0000 0.73270  0.44770  0.80850  Biso   1.000  C
  H31      1.0000 0.75460  0.45710  0.81830  Biso   1.000  H
  C32      1.0000 0.71320  0.42020  0.82720  Biso   1.000  C
  H32      1.0000 0.72300  0.41150  0.84950  Biso   1.000  H
  C33      1.0000 0.19150  0.23270  0.05230  Biso   1.000  C
  H33      1.0000 0.18170  0.25460  0.04290  Biso   1.000  H
  C34      1.0000 0.17280  0.21320  0.07980  Biso   1.000  C
  H34      1.0000 0.15050  0.22300  0.08850  Biso   1.000  H
  C35      1.0000 0.19150  0.73270  0.55230  Biso   1.000  C
  H35      1.0000 0.18170  0.75460  0.54290  Biso   1.000  H
  C36      1.0000 0.17280  0.71320  0.57980  Biso   1.000  C
  H36      1.0000 0.15050  0.72300  0.58850  Biso   1.000  H
  C37      1.0000 0.69150  0.23270  0.55230  Biso   1.000  C
  H37      1.0000 0.68170  0.25460  0.54290  Biso   1.000  H
  C38      1.0000 0.67280  0.21320  0.57980  Biso   1.000  C
  H38      1.0000 0.65050  0.22300  0.58850  Biso   1.000  H
  C39      1.0000 0.69150  0.73270  0.05230  Biso   1.000  C
  H39      1.0000 0.68170  0.75460  0.04290  Biso   1.000  H
  C40      1.0000 0.67280  0.71320  0.07980  Biso   1.000  C
  H40      1.0000 0.65050  0.72300  0.08850  Biso   1.000  H
  C41      1.0000 0.19150  0.76730  0.94770  Biso   1.000  C
  H41      1.0000 0.18170  0.74540  0.95710  Biso   1.000  H
  C42      1.0000 0.17280  0.78680  0.92020  Biso   1.000  C
  H42      1.0000 0.15050  0.77700  0.91150  Biso   1.000  H
  C43      1.0000 0.19150  0.26730  0.44770  Biso   1.000  C
  H43      1.0000 0.18170  0.24540  0.45710  Biso   1.000  H
  C44      1.0000 0.17280  0.28680  0.42020  Biso   1.000  C
  H44      1.0000 0.15050  0.27700  0.41150  Biso   1.000  H
  C45      1.0000 0.69150  0.76730  0.44770  Biso   1.000  C
  H45      1.0000 0.68170  0.74540  0.45710  Biso   1.000  H
  C46      1.0000 0.67280  0.78680  0.42020  Biso   1.000  C
  H46      1.0000 0.65050  0.77700  0.41150  Biso   1.000  H
  C47      1.0000 0.69150  0.26730  0.94770  Biso   1.000  C
  H47      1.0000 0.68170  0.24540  0.95710  Biso   1.000  H
  C48      1.0000 0.67280  0.28680  0.92020  Biso   1.000  C
  H48      1.0000 0.65050  0.27700  0.91150  Biso   1.000  H
  C49      1.0000 0.80850  0.76730  0.05230  Biso   1.000  C
  H49      1.0000 0.81830  0.74540  0.04290  Biso   1.000  H
  C50      1.0000 0.82720  0.78680  0.07980  Biso   1.000  C
  H50      1.0000 0.84950  0.77700  0.08850  Biso   1.000  H
  C51      1.0000 0.80850  0.26730  0.55230  Biso   1.000  C
  H51      1.0000 0.81830  0.24540  0.54290  Biso   1.000  H
  C52      1.0000 0.82720  0.28680  0.57980  Biso   1.000  C
  H52      1.0000 0.84950  0.27700  0.58850  Biso   1.000  H
  C53      1.0000 0.30850  0.76730  0.55230  Biso   1.000  C
  H53      1.0000 0.31830  0.74540  0.54290  Biso   1.000  H
  C54      1.0000 0.32720  0.78680  0.57980  Biso   1.000  C
  H54      1.0000 0.34950  0.77700  0.58850  Biso   1.000  H
  C55      1.0000 0.30850  0.26730  0.05230  Biso   1.000  C
  H55      1.0000 0.31830  0.24540  0.04290  Biso   1.000  H
  C56      1.0000 0.32720  0.28680  0.07980  Biso   1.000  C
  H56      1.0000 0.34950  0.27700  0.08850  Biso   1.000  H
  C57      1.0000 0.80850  0.23270  0.94770  Biso   1.000  C
  H57      1.0000 0.81830  0.25460  0.95710  Biso   1.000  H
  C58      1.0000 0.82720  0.21320  0.92020  Biso   1.000  C
  H58      1.0000 0.84950  0.22300  0.91150  Biso   1.000  H
  C59      1.0000 0.80850  0.73270  0.44770  Biso   1.000  C
  H59      1.0000 0.81830  0.75460  0.45710  Biso   1.000  H
  C60      1.0000 0.82720  0.71320  0.42020  Biso   1.000  C
  H60      1.0000 0.84950  0.72300  0.41150  Biso   1.000  H
  C61      1.0000 0.30850  0.23270  0.44770  Biso   1.000  C
  H61      1.0000 0.31830  0.25460  0.45710  Biso   1.000  H
  C62      1.0000 0.32720  0.21320  0.42020  Biso   1.000  C
  H62      1.0000 0.34950  0.22300  0.41150  Biso   1.000  H
  C63      1.0000 0.30850  0.73270  0.94770  Biso   1.000  C
  H63      1.0000 0.31830  0.75460  0.95710  Biso   1.000  H
  C64      1.0000 0.32720  0.71320  0.92020  Biso   1.000  C
  H64      1.0000 0.34950  0.72300  0.91150  Biso   1.000  H
  C65      1.0000 0.05230  0.19150  0.23270  Biso   1.000  C
  H65      1.0000 0.04290  0.18170  0.25460  Biso   1.000  H
  C66      1.0000 0.07980  0.17280  0.21320  Biso   1.000  C
  H66      1.0000 0.08850  0.15050  0.22300  Biso   1.000  H
  C67      1.0000 0.05230  0.69150  0.73270  Biso   1.000  C
  H67      1.0000 0.04290  0.68170  0.75460  Biso   1.000  H
  C68      1.0000 0.07980  0.67280  0.71320  Biso   1.000  C
  H68      1.0000 0.08850  0.65050  0.72300  Biso   1.000  H
  C69      1.0000 0.55230  0.19150  0.73270  Biso   1.000  C
  H69      1.0000 0.54290  0.18170  0.75460  Biso   1.000  H
  C70      1.0000 0.57980  0.17280  0.71320  Biso   1.000  C
  H70      1.0000 0.58850  0.15050  0.72300  Biso   1.000  H
  C71      1.0000 0.55230  0.69150  0.23270  Biso   1.000  C
  H71      1.0000 0.54290  0.68170  0.25460  Biso   1.000  H
  C72      1.0000 0.57980  0.67280  0.21320  Biso   1.000  C
  H72      1.0000 0.58850  0.65050  0.22300  Biso   1.000  H
  C73      1.0000 0.94770  0.19150  0.76730  Biso   1.000  C
  H73      1.0000 0.95710  0.18170  0.74540  Biso   1.000  H
  C74      1.0000 0.92020  0.17280  0.78680  Biso   1.000  C
  H74      1.0000 0.91150  0.15050  0.77700  Biso   1.000  H
  C75      1.0000 0.94770  0.69150  0.26730  Biso   1.000  C
  H75      1.0000 0.95710  0.68170  0.24540  Biso   1.000  H
  C76      1.0000 0.92020  0.67280  0.28680  Biso   1.000  C
  H76      1.0000 0.91150  0.65050  0.27700  Biso   1.000  H
  C77      1.0000 0.44770  0.19150  0.26730  Biso   1.000  C
  H77      1.0000 0.45710  0.18170  0.24540  Biso   1.000  H
  C78      1.0000 0.42020  0.17280  0.28680  Biso   1.000  C
  H78      1.0000 0.41150  0.15050  0.27700  Biso   1.000  H
  C79      1.0000 0.44770  0.69150  0.76730  Biso   1.000  C
  H79      1.0000 0.45710  0.68170  0.74540  Biso   1.000  H
  C80      1.0000 0.42020  0.67280  0.78680  Biso   1.000  C
  H80      1.0000 0.41150  0.65050  0.77700  Biso   1.000  H
  C81      1.0000 0.05230  0.80850  0.76730  Biso   1.000  C
  H81      1.0000 0.04290  0.81830  0.74540  Biso   1.000  H
  C82      1.0000 0.07980  0.82720  0.78680  Biso   1.000  C
  H82      1.0000 0.08850  0.84950  0.77700  Biso   1.000  H
  C83      1.0000 0.05230  0.30850  0.26730  Biso   1.000  C
  H83      1.0000 0.04290  0.31830  0.24540  Biso   1.000  H
  C84      1.0000 0.07980  0.32720  0.28680  Biso   1.000  C
  H84      1.0000 0.08850  0.34950  0.27700  Biso   1.000  H
  C85      1.0000 0.55230  0.80850  0.26730  Biso   1.000  C
  H85      1.0000 0.54290  0.81830  0.24540  Biso   1.000  H
  C86      1.0000 0.57980  0.82720  0.28680  Biso   1.000  C
  H86      1.0000 0.58850  0.84950  0.27700  Biso   1.000  H
  C87      1.0000 0.55230  0.30850  0.76730  Biso   1.000  C
  H87      1.0000 0.54290  0.31830  0.74540  Biso   1.000  H
  C88      1.0000 0.57980  0.32720  0.78680  Biso   1.000  C
  H88      1.0000 0.58850  0.34950  0.77700  Biso   1.000  H
  C89      1.0000 0.94770  0.80850  0.23270  Biso   1.000  C
  H89      1.0000 0.95710  0.81830  0.25460  Biso   1.000  H
  C90      1.0000 0.92020  0.82720  0.21320  Biso   1.000  C
  H90      1.0000 0.91150  0.84950  0.22300  Biso   1.000  H
  C91      1.0000 0.94770  0.30850  0.73270  Biso   1.000  C
  H91      1.0000 0.95710  0.31830  0.75460  Biso   1.000  H
  C92      1.0000 0.92020  0.32720  0.71320  Biso   1.000  C
  H92      1.0000 0.91150  0.34950  0.72300  Biso   1.000  H
  C93      1.0000 0.44770  0.80850  0.73270  Biso   1.000  C
  H93      1.0000 0.45710  0.81830  0.75460  Biso   1.000  H
  C94      1.0000 0.42020  0.82720  0.71320  Biso   1.000  C
  H94      1.0000 0.41150  0.84950  0.72300  Biso   1.000  H
  C95      1.0000 0.44770  0.30850  0.23270  Biso   1.000  C
  H95      1.0000 0.45710  0.31830  0.25460  Biso   1.000  H
  C96      1.0000 0.42020  0.32720  0.21320  Biso   1.000  C
  H96      1.0000 0.41150  0.34950  0.22300  Biso   1.000  H
  C97      1.0000 0.05230  0.23270  0.80850  Biso   1.000  C
  H97      1.0000 0.04290  0.25460  0.81830  Biso   1.000  H
  C98      1.0000 0.07980  0.21320  0.82720  Biso   1.000  C
  H98      1.0000 0.08850  0.22300  0.84950  Biso   1.000  H
  C99      1.0000 0.05230  0.73270  0.30850  Biso   1.000  C
  H99      1.0000 0.04290  0.75460  0.31830  Biso   1.000  H
  C100     1.0000 0.07980  0.71320  0.32720  Biso   1.000  C
  H100     1.0000 0.08850  0.72300  0.34950  Biso   1.000  H
  C101     1.0000 0.55230  0.23270  0.30850  Biso   1.000  C
  H101     1.0000 0.54290  0.25460  0.31830  Biso   1.000  H
  C102     1.0000 0.57980  0.21320  0.32720  Biso   1.000  C
  H102     1.0000 0.58850  0.22300  0.34950  Biso   1.000  H
  C103     1.0000 0.55230  0.73270  0.80850  Biso   1.000  C
  H103     1.0000 0.54290  0.75460  0.81830  Biso   1.000  H
  C104     1.0000 0.57980  0.71320  0.82720  Biso   1.000  C
  H104     1.0000 0.58850  0.72300  0.84950  Biso   1.000  H
  C105     1.0000 0.94770  0.76730  0.80850  Biso   1.000  C
  H105     1.0000 0.95710  0.74540  0.81830  Biso   1.000  H
  C106     1.0000 0.92020  0.78680  0.82720  Biso   1.000  C
  H106     1.0000 0.91150  0.77700  0.84950  Biso   1.000  H
  C107     1.0000 0.94770  0.26730  0.30850  Biso   1.000  C
  H107     1.0000 0.95710  0.24540  0.31830  Biso   1.000  H
  C108     1.0000 0.92020  0.28680  0.32720  Biso   1.000  C
  H108     1.0000 0.91150  0.27700  0.34950  Biso   1.000  H
  C109     1.0000 0.44770  0.76730  0.30850  Biso   1.000  C
  H109     1.0000 0.45710  0.74540  0.31830  Biso   1.000  H
  C110     1.0000 0.42020  0.78680  0.32720  Biso   1.000  C
  H110     1.0000 0.41150  0.77700  0.34950  Biso   1.000  H
  C111     1.0000 0.44770  0.26730  0.80850  Biso   1.000  C
  H111     1.0000 0.45710  0.24540  0.81830  Biso   1.000  H
  C112     1.0000 0.42020  0.28680  0.82720  Biso   1.000  C
  H112     1.0000 0.41150  0.27700  0.84950  Biso   1.000  H
  C113     1.0000 0.05230  0.76730  0.19150  Biso   1.000  C
  H113     1.0000 0.04290  0.74540  0.18170  Biso   1.000  H
  C114     1.0000 0.07980  0.78680  0.17280  Biso   1.000  C
  H114     1.0000 0.08850  0.77700  0.15050  Biso   1.000  H
  C115     1.0000 0.05230  0.26730  0.69150  Biso   1.000  C
  H115     1.0000 0.04290  0.24540  0.68170  Biso   1.000  H
  C116     1.0000 0.07980  0.28680  0.67280  Biso   1.000  C
  H116     1.0000 0.08850  0.27700  0.65050  Biso   1.000  H
  C117     1.0000 0.55230  0.76730  0.69150  Biso   1.000  C
  H117     1.0000 0.54290  0.74540  0.68170  Biso   1.000  H
  C118     1.0000 0.57980  0.78680  0.67280  Biso   1.000  C
  H118     1.0000 0.58850  0.77700  0.65050  Biso   1.000  H
  C119     1.0000 0.55230  0.26730  0.19150  Biso   1.000  C
  H119     1.0000 0.54290  0.24540  0.18170  Biso   1.000  H
  C120     1.0000 0.57980  0.28680  0.17280  Biso   1.000  C
  H120     1.0000 0.58850  0.27700  0.15050  Biso   1.000  H
  C121     1.0000 0.94770  0.23270  0.19150  Biso   1.000  C
  H121     1.0000 0.95710  0.25460  0.18170  Biso   1.000  H
  C122     1.0000 0.92020  0.21320  0.17280  Biso   1.000  C
  H122     1.0000 0.91150  0.22300  0.15050  Biso   1.000  H
  C123     1.0000 0.94770  0.73270  0.69150  Biso   1.000  C
  H123     1.0000 0.95710  0.75460  0.68170  Biso   1.000  H
  C124     1.0000 0.92020  0.71320  0.67280  Biso   1.000  C
  H124     1.0000 0.91150  0.72300  0.65050  Biso   1.000  H
  C125     1.0000 0.44770  0.23270  0.69150  Biso   1.000  C
  H125     1.0000 0.45710  0.25460  0.68170  Biso   1.000  H
  C126     1.0000 0.42020  0.21320  0.67280  Biso   1.000  C
  H126     1.0000 0.41150  0.22300  0.65050  Biso   1.000  H
  C127     1.0000 0.44770  0.73270  0.19150  Biso   1.000  C
  H127     1.0000 0.45710  0.75460  0.18170  Biso   1.000  H
  C128     1.0000 0.42020  0.71320  0.17280  Biso   1.000  C
  H128     1.0000 0.41150  0.72300  0.15050  Biso   1.000  H
  C129     1.0000 0.23270  0.19150  0.94770  Biso   1.000  C
  H129     1.0000 0.25460  0.18170  0.95710  Biso   1.000  H
  C130     1.0000 0.21320  0.17280  0.92020  Biso   1.000  C
  H130     1.0000 0.22300  0.15050  0.91150  Biso   1.000  H
  C131     1.0000 0.23270  0.69150  0.44770  Biso   1.000  C
  H131     1.0000 0.25460  0.68170  0.45710  Biso   1.000  H
  C132     1.0000 0.21320  0.67280  0.42020  Biso   1.000  C
  H132     1.0000 0.22300  0.65050  0.41150  Biso   1.000  H
  C133     1.0000 0.73270  0.19150  0.44770  Biso   1.000  C
  H133     1.0000 0.75460  0.18170  0.45710  Biso   1.000  H
  C134     1.0000 0.71320  0.17280  0.42020  Biso   1.000  C
  H134     1.0000 0.72300  0.15050  0.41150  Biso   1.000  H
  C135     1.0000 0.73270  0.69150  0.94770  Biso   1.000  C
  H135     1.0000 0.75460  0.68170  0.95710  Biso   1.000  H
  C136     1.0000 0.71320  0.67280  0.92020  Biso   1.000  C
  H136     1.0000 0.72300  0.65050  0.91150  Biso   1.000  H
  C137     1.0000 0.76730  0.19150  0.05230  Biso   1.000  C
  H137     1.0000 0.74540  0.18170  0.04290  Biso   1.000  H
  C138     1.0000 0.78680  0.17280  0.07980  Biso   1.000  C
  H138     1.0000 0.77700  0.15050  0.08850  Biso   1.000  H
  C139     1.0000 0.76730  0.69150  0.55230  Biso   1.000  C
  H139     1.0000 0.74540  0.68170  0.54290  Biso   1.000  H
  C140     1.0000 0.78680  0.67280  0.57980  Biso   1.000  C
  H140     1.0000 0.77700  0.65050  0.58850  Biso   1.000  H
  C141     1.0000 0.26730  0.19150  0.55230  Biso   1.000  C
  H141     1.0000 0.24540  0.18170  0.54290  Biso   1.000  H
  C142     1.0000 0.28680  0.17280  0.57980  Biso   1.000  C
  H142     1.0000 0.27700  0.15050  0.58850  Biso   1.000  H
  C143     1.0000 0.26730  0.69150  0.05230  Biso   1.000  C
  H143     1.0000 0.24540  0.68170  0.04290  Biso   1.000  H
  C144     1.0000 0.28680  0.67280  0.07980  Biso   1.000  C
  H144     1.0000 0.27700  0.65050  0.08850  Biso   1.000  H
  C145     1.0000 0.76730  0.80850  0.94770  Biso   1.000  C
  H145     1.0000 0.74540  0.81830  0.95710  Biso   1.000  H
  C146     1.0000 0.78680  0.82720  0.92020  Biso   1.000  C
  H146     1.0000 0.77700  0.84950  0.91150  Biso   1.000  H
  C147     1.0000 0.76730  0.30850  0.44770  Biso   1.000  C
  H147     1.0000 0.74540  0.31830  0.45710  Biso   1.000  H
  C148     1.0000 0.78680  0.32720  0.42020  Biso   1.000  C
  H148     1.0000 0.77700  0.34950  0.41150  Biso   1.000  H
  C149     1.0000 0.26730  0.80850  0.44770  Biso   1.000  C
  H149     1.0000 0.24540  0.81830  0.45710  Biso   1.000  H
  C150     1.0000 0.28680  0.82720  0.42020  Biso   1.000  C
  H150     1.0000 0.27700  0.84950  0.41150  Biso   1.000  H
  C151     1.0000 0.26730  0.30850  0.94770  Biso   1.000  C
  H151     1.0000 0.24540  0.31830  0.95710  Biso   1.000  H
  C152     1.0000 0.28680  0.32720  0.92020  Biso   1.000  C
  H152     1.0000 0.27700  0.34950  0.91150  Biso   1.000  H
  C153     1.0000 0.23270  0.80850  0.05230  Biso   1.000  C
  H153     1.0000 0.25460  0.81830  0.04290  Biso   1.000  H
  C154     1.0000 0.21320  0.82720  0.07980  Biso   1.000  C
  H154     1.0000 0.22300  0.84950  0.08850  Biso   1.000  H
  C155     1.0000 0.23270  0.30850  0.55230  Biso   1.000  C
  H155     1.0000 0.25460  0.31830  0.54290  Biso   1.000  H
  C156     1.0000 0.21320  0.32720  0.57980  Biso   1.000  C
  H156     1.0000 0.22300  0.34950  0.58850  Biso   1.000  H
  C157     1.0000 0.73270  0.80850  0.55230  Biso   1.000  C
  H157     1.0000 0.75460  0.81830  0.54290  Biso   1.000  H
  C158     1.0000 0.71320  0.82720  0.57980  Biso   1.000  C
  H158     1.0000 0.72300  0.84950  0.58850  Biso   1.000  H
  C159     1.0000 0.73270  0.30850  0.05230  Biso   1.000  C
  H159     1.0000 0.75460  0.31830  0.04290  Biso   1.000  H
  C160     1.0000 0.71320  0.32720  0.07980  Biso   1.000  C
  H160     1.0000 0.72300  0.34950  0.08850  Biso   1.000  H
  C161     1.0000 0.19150  0.05230  0.76730  Biso   1.000  C
  H161     1.0000 0.18170  0.04290  0.74540  Biso   1.000  H
  C162     1.0000 0.17280  0.07980  0.78680  Biso   1.000  C
  H162     1.0000 0.15050  0.08850  0.77700  Biso   1.000  H
  C163     1.0000 0.19150  0.55230  0.26730  Biso   1.000  C
  H163     1.0000 0.18170  0.54290  0.24540  Biso   1.000  H
  C164     1.0000 0.17280  0.57980  0.28680  Biso   1.000  C
  H164     1.0000 0.15050  0.58850  0.27700  Biso   1.000  H
  C165     1.0000 0.69150  0.05230  0.26730  Biso   1.000  C
  H165     1.0000 0.68170  0.04290  0.24540  Biso   1.000  H
  C166     1.0000 0.67280  0.07980  0.28680  Biso   1.000  C
  H166     1.0000 0.65050  0.08850  0.27700  Biso   1.000  H
  C167     1.0000 0.69150  0.55230  0.76730  Biso   1.000  C
  H167     1.0000 0.68170  0.54290  0.74540  Biso   1.000  H
  C168     1.0000 0.67280  0.57980  0.78680  Biso   1.000  C
  H168     1.0000 0.65050  0.58850  0.77700  Biso   1.000  H
  C169     1.0000 0.19150  0.94770  0.23270  Biso   1.000  C
  H169     1.0000 0.18170  0.95710  0.25460  Biso   1.000  H
  C170     1.0000 0.17280  0.92020  0.21320  Biso   1.000  C
  H170     1.0000 0.15050  0.91150  0.22300  Biso   1.000  H
  C171     1.0000 0.19150  0.44770  0.73270  Biso   1.000  C
  H171     1.0000 0.18170  0.45710  0.75460  Biso   1.000  H
  C172     1.0000 0.17280  0.42020  0.71320  Biso   1.000  C
  H172     1.0000 0.15050  0.41150  0.72300  Biso   1.000  H
  C173     1.0000 0.69150  0.94770  0.73270  Biso   1.000  C
  H173     1.0000 0.68170  0.95710  0.75460  Biso   1.000  H
  C174     1.0000 0.67280  0.92020  0.71320  Biso   1.000  C
  H174     1.0000 0.65050  0.91150  0.72300  Biso   1.000  H
  C175     1.0000 0.69150  0.44770  0.23270  Biso   1.000  C
  H175     1.0000 0.68170  0.45710  0.25460  Biso   1.000  H
  C176     1.0000 0.67280  0.42020  0.21320  Biso   1.000  C
  H176     1.0000 0.65050  0.41150  0.22300  Biso   1.000  H
  C177     1.0000 0.80850  0.05230  0.23270  Biso   1.000  C
  H177     1.0000 0.81830  0.04290  0.25460  Biso   1.000  H
  C178     1.0000 0.82720  0.07980  0.21320  Biso   1.000  C
  H178     1.0000 0.84950  0.08850  0.22300  Biso   1.000  H
  C179     1.0000 0.80850  0.55230  0.73270  Biso   1.000  C
  H179     1.0000 0.81830  0.54290  0.75460  Biso   1.000  H
  C180     1.0000 0.82720  0.57980  0.71320  Biso   1.000  C
  H180     1.0000 0.84950  0.58850  0.72300  Biso   1.000  H
  C181     1.0000 0.30850  0.05230  0.73270  Biso   1.000  C
  H181     1.0000 0.31830  0.04290  0.75460  Biso   1.000  H
  C182     1.0000 0.32720  0.07980  0.71320  Biso   1.000  C
  H182     1.0000 0.34950  0.08850  0.72300  Biso   1.000  H
  C183     1.0000 0.30850  0.55230  0.23270  Biso   1.000  C
  H183     1.0000 0.31830  0.54290  0.25460  Biso   1.000  H
  C184     1.0000 0.32720  0.57980  0.21320  Biso   1.000  C
  H184     1.0000 0.34950  0.58850  0.22300  Biso   1.000  H
  C185     1.0000 0.80850  0.94770  0.76730  Biso   1.000  C
  H185     1.0000 0.81830  0.95710  0.74540  Biso   1.000  H
  C186     1.0000 0.82720  0.92020  0.78680  Biso   1.000  C
  H186     1.0000 0.84950  0.91150  0.77700  Biso   1.000  H
  C187     1.0000 0.80850  0.44770  0.26730  Biso   1.000  C
  H187     1.0000 0.81830  0.45710  0.24540  Biso   1.000  H
  C188     1.0000 0.82720  0.42020  0.28680  Biso   1.000  C
  H188     1.0000 0.84950  0.41150  0.27700  Biso   1.000  H
  C189     1.0000 0.30850  0.94770  0.26730  Biso   1.000  C
  H189     1.0000 0.31830  0.95710  0.24540  Biso   1.000  H
  C190     1.0000 0.32720  0.92020  0.28680  Biso   1.000  C
  H190     1.0000 0.34950  0.91150  0.27700  Biso   1.000  H
  C191     1.0000 0.30850  0.44770  0.76730  Biso   1.000  C
  H191     1.0000 0.31830  0.45710  0.74540  Biso   1.000  H
  C192     1.0000 0.32720  0.42020  0.78680  Biso   1.000  C
  H192     1.0000 0.34950  0.41150  0.77700  Biso   1.000  H
  C193     1.0000 0.76730  0.94770  0.80850  Biso   1.000  C
  H193     1.0000 0.74540  0.95710  0.81830  Biso   1.000  H
  C194     1.0000 0.78680  0.92020  0.82720  Biso   1.000  C
  H194     1.0000 0.77700  0.91150  0.84950  Biso   1.000  H
  C195     1.0000 0.76730  0.44770  0.30850  Biso   1.000  C
  H195     1.0000 0.74540  0.45710  0.31830  Biso   1.000  H
  C196     1.0000 0.78680  0.42020  0.32720  Biso   1.000  C
  H196     1.0000 0.77700  0.41150  0.34950  Biso   1.000  H
  C197     1.0000 0.26730  0.94770  0.30850  Biso   1.000  C
  H197     1.0000 0.24540  0.95710  0.31830  Biso   1.000  H
  C198     1.0000 0.28680  0.92020  0.32720  Biso   1.000  C
  H198     1.0000 0.27700  0.91150  0.34950  Biso   1.000  H
  C199     1.0000 0.26730  0.44770  0.80850  Biso   1.000  C
  H199     1.0000 0.24540  0.45710  0.81830  Biso   1.000  H
  C200     1.0000 0.28680  0.42020  0.82720  Biso   1.000  C
  H200     1.0000 0.27700  0.41150  0.84950  Biso   1.000  H
  C201     1.0000 0.23270  0.05230  0.80850  Biso   1.000  C
  H201     1.0000 0.25460  0.04290  0.81830  Biso   1.000  H
  C202     1.0000 0.21320  0.07980  0.82720  Biso   1.000  C
  H202     1.0000 0.22300  0.08850  0.84950  Biso   1.000  H
  C203     1.0000 0.23270  0.55230  0.30850  Biso   1.000  C
  H203     1.0000 0.25460  0.54290  0.31830  Biso   1.000  H
  C204     1.0000 0.21320  0.57980  0.32720  Biso   1.000  C
  H204     1.0000 0.22300  0.58850  0.34950  Biso   1.000  H
  C205     1.0000 0.73270  0.05230  0.30850  Biso   1.000  C
  H205     1.0000 0.75460  0.04290  0.31830  Biso   1.000  H
  C206     1.0000 0.71320  0.07980  0.32720  Biso   1.000  C
  H206     1.0000 0.72300  0.08850  0.34950  Biso   1.000  H
  C207     1.0000 0.73270  0.55230  0.80850  Biso   1.000  C
  H207     1.0000 0.75460  0.54290  0.81830  Biso   1.000  H
  C208     1.0000 0.71320  0.57980  0.82720  Biso   1.000  C
  H208     1.0000 0.72300  0.58850  0.84950  Biso   1.000  H
  C209     1.0000 0.23270  0.94770  0.19150  Biso   1.000  C
  H209     1.0000 0.25460  0.95710  0.18170  Biso   1.000  H
  C210     1.0000 0.21320  0.92020  0.17280  Biso   1.000  C
  H210     1.0000 0.22300  0.91150  0.15050  Biso   1.000  H
  C211     1.0000 0.23270  0.44770  0.69150  Biso   1.000  C
  H211     1.0000 0.25460  0.45710  0.68170  Biso   1.000  H
  C212     1.0000 0.21320  0.42020  0.67280  Biso   1.000  C
  H212     1.0000 0.22300  0.41150  0.65050  Biso   1.000  H
  C213     1.0000 0.73270  0.94770  0.69150  Biso   1.000  C
  H213     1.0000 0.75460  0.95710  0.68170  Biso   1.000  H
  C214     1.0000 0.71320  0.92020  0.67280  Biso   1.000  C
  H214     1.0000 0.72300  0.91150  0.65050  Biso   1.000  H
  C215     1.0000 0.73270  0.44770  0.19150  Biso   1.000  C
  H215     1.0000 0.75460  0.45710  0.18170  Biso   1.000  H
  C216     1.0000 0.71320  0.42020  0.17280  Biso   1.000  C
  H216     1.0000 0.72300  0.41150  0.15050  Biso   1.000  H
  C217     1.0000 0.76730  0.05230  0.19150  Biso   1.000  C
  H217     1.0000 0.74540  0.04290  0.18170  Biso   1.000  H
  C218     1.0000 0.78680  0.07980  0.17280  Biso   1.000  C
  H218     1.0000 0.77700  0.08850  0.15050  Biso   1.000  H
  C219     1.0000 0.76730  0.55230  0.69150  Biso   1.000  C
  H219     1.0000 0.74540  0.54290  0.68170  Biso   1.000  H
  C220     1.0000 0.78680  0.57980  0.67280  Biso   1.000  C
  H220     1.0000 0.77700  0.58850  0.65050  Biso   1.000  H
  C221     1.0000 0.26730  0.05230  0.69150  Biso   1.000  C
  H221     1.0000 0.24540  0.04290  0.68170  Biso   1.000  H
  C222     1.0000 0.28680  0.07980  0.67280  Biso   1.000  C
  H222     1.0000 0.27700  0.08850  0.65050  Biso   1.000  H
  C223     1.0000 0.26730  0.55230  0.19150  Biso   1.000  C
  H223     1.0000 0.24540  0.54290  0.18170  Biso   1.000  H
  C224     1.0000 0.28680  0.57980  0.17280  Biso   1.000  C
  H224     1.0000 0.27700  0.58850  0.15050  Biso   1.000  H
  C225     1.0000 0.80850  0.76730  0.94770  Biso   1.000  C
  H225     1.0000 0.81830  0.74540  0.95710  Biso   1.000  H
  C226     1.0000 0.82720  0.78680  0.92020  Biso   1.000  C
  H226     1.0000 0.84950  0.77700  0.91150  Biso   1.000  H
  C227     1.0000 0.80850  0.26730  0.44770  Biso   1.000  C
  H227     1.0000 0.81830  0.24540  0.45710  Biso   1.000  H
  C228     1.0000 0.82720  0.28680  0.42020  Biso   1.000  C
  H228     1.0000 0.84950  0.27700  0.41150  Biso   1.000  H
  C229     1.0000 0.30850  0.76730  0.44770  Biso   1.000  C
  H229     1.0000 0.31830  0.74540  0.45710  Biso   1.000  H
  C230     1.0000 0.32720  0.78680  0.42020  Biso   1.000  C
  H230     1.0000 0.34950  0.77700  0.41150  Biso   1.000  H
  C231     1.0000 0.30850  0.26730  0.94770  Biso   1.000  C
  H231     1.0000 0.31830  0.24540  0.95710  Biso   1.000  H
  C232     1.0000 0.32720  0.28680  0.92020  Biso   1.000  C
  H232     1.0000 0.34950  0.27700  0.91150  Biso   1.000  H
  C233     1.0000 0.80850  0.23270  0.05230  Biso   1.000  C
  H233     1.0000 0.81830  0.25460  0.04290  Biso   1.000  H
  C234     1.0000 0.82720  0.21320  0.07980  Biso   1.000  C
  H234     1.0000 0.84950  0.22300  0.08850  Biso   1.000  H
  C235     1.0000 0.80850  0.73270  0.55230  Biso   1.000  C
  H235     1.0000 0.81830  0.75460  0.54290  Biso   1.000  H
  C236     1.0000 0.82720  0.71320  0.57980  Biso   1.000  C
  H236     1.0000 0.84950  0.72300  0.58850  Biso   1.000  H
  C237     1.0000 0.30850  0.23270  0.55230  Biso   1.000  C
  H237     1.0000 0.31830  0.25460  0.54290  Biso   1.000  H
  C238     1.0000 0.32720  0.21320  0.57980  Biso   1.000  C
  H238     1.0000 0.34950  0.22300  0.58850  Biso   1.000  H
  C239     1.0000 0.30850  0.73270  0.05230  Biso   1.000  C
  H239     1.0000 0.31830  0.75460  0.04290  Biso   1.000  H
  C240     1.0000 0.32720  0.71320  0.07980  Biso   1.000  C
  H240     1.0000 0.34950  0.72300  0.08850  Biso   1.000  H
  C241     1.0000 0.19150  0.23270  0.94770  Biso   1.000  C
  H241     1.0000 0.18170  0.25460  0.95710  Biso   1.000  H
  C242     1.0000 0.17280  0.21320  0.92020  Biso   1.000  C
  H242     1.0000 0.15050  0.22300  0.91150  Biso   1.000  H
  C243     1.0000 0.19150  0.73270  0.44770  Biso   1.000  C
  H243     1.0000 0.18170  0.75460  0.45710  Biso   1.000  H
  C244     1.0000 0.17280  0.71320  0.42020  Biso   1.000  C
  H244     1.0000 0.15050  0.72300  0.41150  Biso   1.000  H
  C245     1.0000 0.69150  0.23270  0.44770  Biso   1.000  C
  H245     1.0000 0.68170  0.25460  0.45710  Biso   1.000  H
  C246     1.0000 0.67280  0.21320  0.42020  Biso   1.000  C
  H246     1.0000 0.65050  0.22300  0.41150  Biso   1.000  H
  C247     1.0000 0.69150  0.73270  0.94770  Biso   1.000  C
  H247     1.0000 0.68170  0.75460  0.95710  Biso   1.000  H
  C248     1.0000 0.67280  0.71320  0.92020  Biso   1.000  C
  H248     1.0000 0.65050  0.72300  0.91150  Biso   1.000  H
  C249     1.0000 0.19150  0.76730  0.05230  Biso   1.000  C
  H249     1.0000 0.18170  0.74540  0.04290  Biso   1.000  H
  C250     1.0000 0.17280  0.78680  0.07980  Biso   1.000  C
  H250     1.0000 0.15050  0.77700  0.08850  Biso   1.000  H
  C251     1.0000 0.19150  0.26730  0.55230  Biso   1.000  C
  H251     1.0000 0.18170  0.24540  0.54290  Biso   1.000  H
  C252     1.0000 0.17280  0.28680  0.57980  Biso   1.000  C
  H252     1.0000 0.15050  0.27700  0.58850  Biso   1.000  H
  C253     1.0000 0.69150  0.76730  0.55230  Biso   1.000  C
  H253     1.0000 0.68170  0.74540  0.54290  Biso   1.000  H
  C254     1.0000 0.67280  0.78680  0.57980  Biso   1.000  C
  H254     1.0000 0.65050  0.77700  0.58850  Biso   1.000  H
  C255     1.0000 0.69150  0.26730  0.05230  Biso   1.000  C
  H255     1.0000 0.68170  0.24540  0.04290  Biso   1.000  H
  C256     1.0000 0.67280  0.28680  0.07980  Biso   1.000  C
  H256     1.0000 0.65050  0.27700  0.08850  Biso   1.000  H
  C257     1.0000 0.94770  0.80850  0.76730  Biso   1.000  C
  H257     1.0000 0.95710  0.81830  0.74540  Biso   1.000  H
  C258     1.0000 0.92020  0.82720  0.78680  Biso   1.000  C
  H258     1.0000 0.91150  0.84950  0.77700  Biso   1.000  H
  C259     1.0000 0.94770  0.30850  0.26730  Biso   1.000  C
  H259     1.0000 0.95710  0.31830  0.24540  Biso   1.000  H
  C260     1.0000 0.92020  0.32720  0.28680  Biso   1.000  C
  H260     1.0000 0.91150  0.34950  0.27700  Biso   1.000  H
  C261     1.0000 0.44770  0.80850  0.26730  Biso   1.000  C
  H261     1.0000 0.45710  0.81830  0.24540  Biso   1.000  H
  C262     1.0000 0.42020  0.82720  0.28680  Biso   1.000  C
  H262     1.0000 0.41150  0.84950  0.27700  Biso   1.000  H
  C263     1.0000 0.44770  0.30850  0.76730  Biso   1.000  C
  H263     1.0000 0.45710  0.31830  0.74540  Biso   1.000  H
  C264     1.0000 0.42020  0.32720  0.78680  Biso   1.000  C
  H264     1.0000 0.41150  0.34950  0.77700  Biso   1.000  H
  C265     1.0000 0.05230  0.80850  0.23270  Biso   1.000  C
  H265     1.0000 0.04290  0.81830  0.25460  Biso   1.000  H
  C266     1.0000 0.07980  0.82720  0.21320  Biso   1.000  C
  H266     1.0000 0.08850  0.84950  0.22300  Biso   1.000  H
  C267     1.0000 0.05230  0.30850  0.73270  Biso   1.000  C
  H267     1.0000 0.04290  0.31830  0.75460  Biso   1.000  H
  C268     1.0000 0.07980  0.32720  0.71320  Biso   1.000  C
  H268     1.0000 0.08850  0.34950  0.72300  Biso   1.000  H
  C269     1.0000 0.55230  0.80850  0.73270  Biso   1.000  C
  H269     1.0000 0.54290  0.81830  0.75460  Biso   1.000  H
  C270     1.0000 0.57980  0.82720  0.71320  Biso   1.000  C
  H270     1.0000 0.58850  0.84950  0.72300  Biso   1.000  H
  C271     1.0000 0.55230  0.30850  0.23270  Biso   1.000  C
  H271     1.0000 0.54290  0.31830  0.25460  Biso   1.000  H
  C272     1.0000 0.57980  0.32720  0.21320  Biso   1.000  C
  H272     1.0000 0.58850  0.34950  0.22300  Biso   1.000  H
  C273     1.0000 0.94770  0.19150  0.23270  Biso   1.000  C
  H273     1.0000 0.95710  0.18170  0.25460  Biso   1.000  H
  C274     1.0000 0.92020  0.17280  0.21320  Biso   1.000  C
  H274     1.0000 0.91150  0.15050  0.22300  Biso   1.000  H
  C275     1.0000 0.94770  0.69150  0.73270  Biso   1.000  C
  H275     1.0000 0.95710  0.68170  0.75460  Biso   1.000  H
  C276     1.0000 0.92020  0.67280  0.71320  Biso   1.000  C
  H276     1.0000 0.91150  0.65050  0.72300  Biso   1.000  H
  C277     1.0000 0.44770  0.19150  0.73270  Biso   1.000  C
  H277     1.0000 0.45710  0.18170  0.75460  Biso   1.000  H
  C278     1.0000 0.42020  0.17280  0.71320  Biso   1.000  C
  H278     1.0000 0.41150  0.15050  0.72300  Biso   1.000  H
  C279     1.0000 0.44770  0.69150  0.23270  Biso   1.000  C
  H279     1.0000 0.45710  0.68170  0.25460  Biso   1.000  H
  C280     1.0000 0.42020  0.67280  0.21320  Biso   1.000  C
  H280     1.0000 0.41150  0.65050  0.22300  Biso   1.000  H
  C281     1.0000 0.05230  0.19150  0.76730  Biso   1.000  C
  H281     1.0000 0.04290  0.18170  0.74540  Biso   1.000  H
  C282     1.0000 0.07980  0.17280  0.78680  Biso   1.000  C
  H282     1.0000 0.08850  0.15050  0.77700  Biso   1.000  H
  C283     1.0000 0.05230  0.69150  0.26730  Biso   1.000  C
  H283     1.0000 0.04290  0.68170  0.24540  Biso   1.000  H
  C284     1.0000 0.07980  0.67280  0.28680  Biso   1.000  C
  H284     1.0000 0.08850  0.65050  0.27700  Biso   1.000  H
  C285     1.0000 0.55230  0.19150  0.26730  Biso   1.000  C
  H285     1.0000 0.54290  0.18170  0.24540  Biso   1.000  H
  C286     1.0000 0.57980  0.17280  0.28680  Biso   1.000  C
  H286     1.0000 0.58850  0.15050  0.27700  Biso   1.000  H
  C287     1.0000 0.55230  0.69150  0.76730  Biso   1.000  C
  H287     1.0000 0.54290  0.68170  0.74540  Biso   1.000  H
  C288     1.0000 0.57980  0.67280  0.78680  Biso   1.000  C
  H288     1.0000 0.58850  0.65050  0.77700  Biso   1.000  H
  C289     1.0000 0.94770  0.76730  0.19150  Biso   1.000  C
  H289     1.0000 0.95710  0.74540  0.18170  Biso   1.000  H
  C290     1.0000 0.92020  0.78680  0.17280  Biso   1.000  C
  H290     1.0000 0.91150  0.77700  0.15050  Biso   1.000  H
  C291     1.0000 0.94770  0.26730  0.69150  Biso   1.000  C
  H291     1.0000 0.95710  0.24540  0.68170  Biso   1.000  H
  C292     1.0000 0.92020  0.28680  0.67280  Biso   1.000  C
  H292     1.0000 0.91150  0.27700  0.65050  Biso   1.000  H
  C293     1.0000 0.44770  0.76730  0.69150  Biso   1.000  C
  H293     1.0000 0.45710  0.74540  0.68170  Biso   1.000  H
  C294     1.0000 0.42020  0.78680  0.67280  Biso   1.000  C
  H294     1.0000 0.41150  0.77700  0.65050  Biso   1.000  H
  C295     1.0000 0.44770  0.26730  0.19150  Biso   1.000  C
  H295     1.0000 0.45710  0.24540  0.18170  Biso   1.000  H
  C296     1.0000 0.42020  0.28680  0.17280  Biso   1.000  C
  H296     1.0000 0.41150  0.27700  0.15050  Biso   1.000  H
  C297     1.0000 0.05230  0.23270  0.19150  Biso   1.000  C
  H297     1.0000 0.04290  0.25460  0.18170  Biso   1.000  H
  C298     1.0000 0.07980  0.21320  0.17280  Biso   1.000  C
  H298     1.0000 0.08850  0.22300  0.15050  Biso   1.000  H
  C299     1.0000 0.05230  0.73270  0.69150  Biso   1.000  C
  H299     1.0000 0.04290  0.75460  0.68170  Biso   1.000  H
  C300     1.0000 0.07980  0.71320  0.67280  Biso   1.000  C
  H300     1.0000 0.08850  0.72300  0.65050  Biso   1.000  H
  C301     1.0000 0.55230  0.23270  0.69150  Biso   1.000  C
  H301     1.0000 0.54290  0.25460  0.68170  Biso   1.000  H
  C302     1.0000 0.57980  0.21320  0.67280  Biso   1.000  C
  H302     1.0000 0.58850  0.22300  0.65050  Biso   1.000  H
  C303     1.0000 0.55230  0.73270  0.19150  Biso   1.000  C
  H303     1.0000 0.54290  0.75460  0.18170  Biso   1.000  H
  C304     1.0000 0.57980  0.71320  0.17280  Biso   1.000  C
  H304     1.0000 0.58850  0.72300  0.15050  Biso   1.000  H
  C305     1.0000 0.94770  0.23270  0.80850  Biso   1.000  C
  H305     1.0000 0.95710  0.25460  0.81830  Biso   1.000  H
  C306     1.0000 0.92020  0.21320  0.82720  Biso   1.000  C
  H306     1.0000 0.91150  0.22300  0.84950  Biso   1.000  H
  C307     1.0000 0.94770  0.73270  0.30850  Biso   1.000  C
  H307     1.0000 0.95710  0.75460  0.31830  Biso   1.000  H
  C308     1.0000 0.92020  0.71320  0.32720  Biso   1.000  C
  H308     1.0000 0.91150  0.72300  0.34950  Biso   1.000  H
  C309     1.0000 0.44770  0.23270  0.30850  Biso   1.000  C
  H309     1.0000 0.45710  0.25460  0.31830  Biso   1.000  H
  C310     1.0000 0.42020  0.21320  0.32720  Biso   1.000  C
  H310     1.0000 0.41150  0.22300  0.34950  Biso   1.000  H
  C311     1.0000 0.44770  0.73270  0.80850  Biso   1.000  C
  H311     1.0000 0.45710  0.75460  0.81830  Biso   1.000  H
  C312     1.0000 0.42020  0.71320  0.82720  Biso   1.000  C
  H312     1.0000 0.41150  0.72300  0.84950  Biso   1.000  H
  C313     1.0000 0.05230  0.76730  0.80850  Biso   1.000  C
  H313     1.0000 0.04290  0.74540  0.81830  Biso   1.000  H
  C314     1.0000 0.07980  0.78680  0.82720  Biso   1.000  C
  H314     1.0000 0.08850  0.77700  0.84950  Biso   1.000  H
  C315     1.0000 0.05230  0.26730  0.30850  Biso   1.000  C
  H315     1.0000 0.04290  0.24540  0.31830  Biso   1.000  H
  C316     1.0000 0.07980  0.28680  0.32720  Biso   1.000  C
  H316     1.0000 0.08850  0.27700  0.34950  Biso   1.000  H
  C317     1.0000 0.55230  0.76730  0.30850  Biso   1.000  C
  H317     1.0000 0.54290  0.74540  0.31830  Biso   1.000  H
  C318     1.0000 0.57980  0.78680  0.32720  Biso   1.000  C
  H318     1.0000 0.58850  0.77700  0.34950  Biso   1.000  H
  C319     1.0000 0.55230  0.26730  0.80850  Biso   1.000  C
  H319     1.0000 0.54290  0.24540  0.81830  Biso   1.000  H
  C320     1.0000 0.57980  0.28680  0.82720  Biso   1.000  C
  H320     1.0000 0.58850  0.27700  0.84950  Biso   1.000  H
  C321     1.0000 0.76730  0.80850  0.05230  Biso   1.000  C
  H321     1.0000 0.74540  0.81830  0.04290  Biso   1.000  H
  C322     1.0000 0.78680  0.82720  0.07980  Biso   1.000  C
  H322     1.0000 0.77700  0.84950  0.08850  Biso   1.000  H
  C323     1.0000 0.76730  0.30850  0.55230  Biso   1.000  C
  H323     1.0000 0.74540  0.31830  0.54290  Biso   1.000  H
  C324     1.0000 0.78680  0.32720  0.57980  Biso   1.000  C
  H324     1.0000 0.77700  0.34950  0.58850  Biso   1.000  H
  C325     1.0000 0.26730  0.80850  0.55230  Biso   1.000  C
  H325     1.0000 0.24540  0.81830  0.54290  Biso   1.000  H
  C326     1.0000 0.28680  0.82720  0.57980  Biso   1.000  C
  H326     1.0000 0.27700  0.84950  0.58850  Biso   1.000  H
  C327     1.0000 0.26730  0.30850  0.05230  Biso   1.000  C
  H327     1.0000 0.24540  0.31830  0.04290  Biso   1.000  H
  C328     1.0000 0.28680  0.32720  0.07980  Biso   1.000  C
  H328     1.0000 0.27700  0.34950  0.08850  Biso   1.000  H
  C329     1.0000 0.23270  0.80850  0.94770  Biso   1.000  C
  H329     1.0000 0.25460  0.81830  0.95710  Biso   1.000  H
  C330     1.0000 0.21320  0.82720  0.92020  Biso   1.000  C
  H330     1.0000 0.22300  0.84950  0.91150  Biso   1.000  H
  C331     1.0000 0.23270  0.30850  0.44770  Biso   1.000  C
  H331     1.0000 0.25460  0.31830  0.45710  Biso   1.000  H
  C332     1.0000 0.21320  0.32720  0.42020  Biso   1.000  C
  H332     1.0000 0.22300  0.34950  0.41150  Biso   1.000  H
  C333     1.0000 0.73270  0.80850  0.44770  Biso   1.000  C
  H333     1.0000 0.75460  0.81830  0.45710  Biso   1.000  H
  C334     1.0000 0.71320  0.82720  0.42020  Biso   1.000  C
  H334     1.0000 0.72300  0.84950  0.41150  Biso   1.000  H
  C335     1.0000 0.73270  0.30850  0.94770  Biso   1.000  C
  H335     1.0000 0.75460  0.31830  0.95710  Biso   1.000  H
  C336     1.0000 0.71320  0.32720  0.92020  Biso   1.000  C
  H336     1.0000 0.72300  0.34950  0.91150  Biso   1.000  H
  C337     1.0000 0.23270  0.19150  0.05230  Biso   1.000  C
  H337     1.0000 0.25460  0.18170  0.04290  Biso   1.000  H
  C338     1.0000 0.21320  0.17280  0.07980  Biso   1.000  C
  H338     1.0000 0.22300  0.15050  0.08850  Biso   1.000  H
  C339     1.0000 0.23270  0.69150  0.55230  Biso   1.000  C
  H339     1.0000 0.25460  0.68170  0.54290  Biso   1.000  H
  C340     1.0000 0.21320  0.67280  0.57980  Biso   1.000  C
  H340     1.0000 0.22300  0.65050  0.58850  Biso   1.000  H
  C341     1.0000 0.73270  0.19150  0.55230  Biso   1.000  C
  H341     1.0000 0.75460  0.18170  0.54290  Biso   1.000  H
  C342     1.0000 0.71320  0.17280  0.57980  Biso   1.000  C
  H342     1.0000 0.72300  0.15050  0.58850  Biso   1.000  H
  C343     1.0000 0.73270  0.69150  0.05230  Biso   1.000  C
  H343     1.0000 0.75460  0.68170  0.04290  Biso   1.000  H
  C344     1.0000 0.71320  0.67280  0.07980  Biso   1.000  C
  H344     1.0000 0.72300  0.65050  0.08850  Biso   1.000  H
  C345     1.0000 0.76730  0.19150  0.94770  Biso   1.000  C
  H345     1.0000 0.74540  0.18170  0.95710  Biso   1.000  H
  C346     1.0000 0.78680  0.17280  0.92020  Biso   1.000  C
  H346     1.0000 0.77700  0.15050  0.91150  Biso   1.000  H
  C347     1.0000 0.76730  0.69150  0.44770  Biso   1.000  C
  H347     1.0000 0.74540  0.68170  0.45710  Biso   1.000  H
  C348     1.0000 0.78680  0.67280  0.42020  Biso   1.000  C
  H348     1.0000 0.77700  0.65050  0.41150  Biso   1.000  H
  C349     1.0000 0.26730  0.19150  0.44770  Biso   1.000  C
  H349     1.0000 0.24540  0.18170  0.45710  Biso   1.000  H
  C350     1.0000 0.28680  0.17280  0.42020  Biso   1.000  C
  H350     1.0000 0.27700  0.15050  0.41150  Biso   1.000  H
  C351     1.0000 0.26730  0.69150  0.94770  Biso   1.000  C
  H351     1.0000 0.24540  0.68170  0.95710  Biso   1.000  H
  C352     1.0000 0.28680  0.67280  0.92020  Biso   1.000  C
  H352     1.0000 0.27700  0.65050  0.91150  Biso   1.000  H
  C353     1.0000 0.80850  0.94770  0.23270  Biso   1.000  C
  H353     1.0000 0.81830  0.95710  0.25460  Biso   1.000  H
  C354     1.0000 0.82720  0.92020  0.21320  Biso   1.000  C
  H354     1.0000 0.84950  0.91150  0.22300  Biso   1.000  H
  C355     1.0000 0.80850  0.44770  0.73270  Biso   1.000  C
  H355     1.0000 0.81830  0.45710  0.75460  Biso   1.000  H
  C356     1.0000 0.82720  0.42020  0.71320  Biso   1.000  C
  H356     1.0000 0.84950  0.41150  0.72300  Biso   1.000  H
  C357     1.0000 0.30850  0.94770  0.73270  Biso   1.000  C
  H357     1.0000 0.31830  0.95710  0.75460  Biso   1.000  H
  C358     1.0000 0.32720  0.92020  0.71320  Biso   1.000  C
  H358     1.0000 0.34950  0.91150  0.72300  Biso   1.000  H
  C359     1.0000 0.30850  0.44770  0.23270  Biso   1.000  C
  H359     1.0000 0.31830  0.45710  0.25460  Biso   1.000  H
  C360     1.0000 0.32720  0.42020  0.21320  Biso   1.000  C
  H360     1.0000 0.34950  0.41150  0.22300  Biso   1.000  H
  C361     1.0000 0.80850  0.05230  0.76730  Biso   1.000  C
  H361     1.0000 0.81830  0.04290  0.74540  Biso   1.000  H
  C362     1.0000 0.82720  0.07980  0.78680  Biso   1.000  C
  H362     1.0000 0.84950  0.08850  0.77700  Biso   1.000  H
  C363     1.0000 0.80850  0.55230  0.26730  Biso   1.000  C
  H363     1.0000 0.81830  0.54290  0.24540  Biso   1.000  H
  C364     1.0000 0.82720  0.57980  0.28680  Biso   1.000  C
  H364     1.0000 0.84950  0.58850  0.27700  Biso   1.000  H
  C365     1.0000 0.30850  0.05230  0.26730  Biso   1.000  C
  H365     1.0000 0.31830  0.04290  0.24540  Biso   1.000  H
  C366     1.0000 0.32720  0.07980  0.28680  Biso   1.000  C
  H366     1.0000 0.34950  0.08850  0.27700  Biso   1.000  H
  C367     1.0000 0.30850  0.55230  0.76730  Biso   1.000  C
  H367     1.0000 0.31830  0.54290  0.74540  Biso   1.000  H
  C368     1.0000 0.32720  0.57980  0.78680  Biso   1.000  C
  H368     1.0000 0.34950  0.58850  0.77700  Biso   1.000  H
  C369     1.0000 0.19150  0.94770  0.76730  Biso   1.000  C
  H369     1.0000 0.18170  0.95710  0.74540  Biso   1.000  H
  C370     1.0000 0.17280  0.92020  0.78680  Biso   1.000  C
  H370     1.0000 0.15050  0.91150  0.77700  Biso   1.000  H
  C371     1.0000 0.19150  0.44770  0.26730  Biso   1.000  C
  H371     1.0000 0.18170  0.45710  0.24540  Biso   1.000  H
  C372     1.0000 0.17280  0.42020  0.28680  Biso   1.000  C
  H372     1.0000 0.15050  0.41150  0.27700  Biso   1.000  H
  C373     1.0000 0.69150  0.94770  0.26730  Biso   1.000  C
  H373     1.0000 0.68170  0.95710  0.24540  Biso   1.000  H
  C374     1.0000 0.67280  0.92020  0.28680  Biso   1.000  C
  H374     1.0000 0.65050  0.91150  0.27700  Biso   1.000  H
  C375     1.0000 0.69150  0.44770  0.76730  Biso   1.000  C
  H375     1.0000 0.68170  0.45710  0.74540  Biso   1.000  H
  C376     1.0000 0.67280  0.42020  0.78680  Biso   1.000  C
  H376     1.0000 0.65050  0.41150  0.77700  Biso   1.000  H
  C377     1.0000 0.19150  0.05230  0.23270  Biso   1.000  C
  H377     1.0000 0.18170  0.04290  0.25460  Biso   1.000  H
  C378     1.0000 0.17280  0.07980  0.21320  Biso   1.000  C
  H378     1.0000 0.15050  0.08850  0.22300  Biso   1.000  H
  C379     1.0000 0.19150  0.55230  0.73270  Biso   1.000  C
  H379     1.0000 0.18170  0.54290  0.75460  Biso   1.000  H
  C380     1.0000 0.17280  0.57980  0.71320  Biso   1.000  C
  H380     1.0000 0.15050  0.58850  0.72300  Biso   1.000  H
  C381     1.0000 0.69150  0.05230  0.73270  Biso   1.000  C
  H381     1.0000 0.68170  0.04290  0.75460  Biso   1.000  H
  C382     1.0000 0.67280  0.07980  0.71320  Biso   1.000  C
  H382     1.0000 0.65050  0.08850  0.72300  Biso   1.000  H
  C383     1.0000 0.69150  0.55230  0.23270  Biso   1.000  C
  H383     1.0000 0.68170  0.54290  0.25460  Biso   1.000  H
  C384     1.0000 0.67280  0.57980  0.21320  Biso   1.000  C
  H384     1.0000 0.65050  0.58850  0.22300  Biso   1.000  H
  C385     1.0000 0.18380  0.09350  0.18380  Biso   1.000  C
  N1       1.0000 0.22082  0.04050  0.22082  Biso   1.000  N
  N2       1.0000 0.16320  0.11940  0.16320  Biso   1.000  N
  C386     1.0000 0.18380  0.59350  0.68380  Biso   1.000  C
  N3       1.0000 0.22082  0.54050  0.72082  Biso   1.000  N
  N4       1.0000 0.16320  0.61940  0.66320  Biso   1.000  N
  C387     1.0000 0.68380  0.09350  0.68380  Biso   1.000  C
  N5       1.0000 0.72082  0.04050  0.72082  Biso   1.000  N
  N6       1.0000 0.66320  0.11940  0.66320  Biso   1.000  N
  C388     1.0000 0.68380  0.59350  0.18380  Biso   1.000  C
  N7       1.0000 0.72082  0.54050  0.22082  Biso   1.000  N
  N8       1.0000 0.66320  0.61940  0.16320  Biso   1.000  N
  C389     1.0000 0.81620  0.90650  0.18380  Biso   1.000  C
  N9       1.0000 0.77918  0.95950  0.22082  Biso   1.000  N
  N10      1.0000 0.83680  0.88060  0.16320  Biso   1.000  N
  C390     1.0000 0.81620  0.40650  0.68380  Biso   1.000  C
  N11      1.0000 0.77918  0.45950  0.72082  Biso   1.000  N
  N12      1.0000 0.83680  0.38060  0.66320  Biso   1.000  N
  C391     1.0000 0.31620  0.90650  0.68380  Biso   1.000  C
  N13      1.0000 0.27918  0.95950  0.72082  Biso   1.000  N
  N14      1.0000 0.33680  0.88060  0.66320  Biso   1.000  N
  C392     1.0000 0.31620  0.40650  0.18380  Biso   1.000  C
  N15      1.0000 0.27918  0.45950  0.22082  Biso   1.000  N
  N16      1.0000 0.33680  0.38060  0.16320  Biso   1.000  N
  C393     1.0000 0.81620  0.09350  0.81620  Biso   1.000  C
  N17      1.0000 0.77918  0.04050  0.77918  Biso   1.000  N
  N18      1.0000 0.83680  0.11940  0.83680  Biso   1.000  N
  C394     1.0000 0.81620  0.59350  0.31620  Biso   1.000  C
  N19      1.0000 0.77918  0.54050  0.27918  Biso   1.000  N
  N20      1.0000 0.83680  0.61940  0.33680  Biso   1.000  N
  C395     1.0000 0.31620  0.09350  0.31620  Biso   1.000  C
  N21      1.0000 0.27918  0.04050  0.27918  Biso   1.000  N
  N22      1.0000 0.33680  0.11940  0.33680  Biso   1.000  N
  C396     1.0000 0.31620  0.59350  0.81620  Biso   1.000  C
  N23      1.0000 0.27918  0.54050  0.77918  Biso   1.000  N
  N24      1.0000 0.33680  0.61940  0.83680  Biso   1.000  N
  C397     1.0000 0.18380  0.90650  0.81620  Biso   1.000  C
  N25      1.0000 0.22082  0.95950  0.77918  Biso   1.000  N
  N26      1.0000 0.16320  0.88060  0.83680  Biso   1.000  N
  C398     1.0000 0.18380  0.40650  0.31620  Biso   1.000  C
  N27      1.0000 0.22082  0.45950  0.27918  Biso   1.000  N
  N28      1.0000 0.16320  0.38060  0.33680  Biso   1.000  N
  C399     1.0000 0.68380  0.90650  0.31620  Biso   1.000  C
  N29      1.0000 0.72082  0.95950  0.27918  Biso   1.000  N
  N30      1.0000 0.66320  0.88060  0.33680  Biso   1.000  N
  C400     1.0000 0.68380  0.40650  0.81620  Biso   1.000  C
  N31      1.0000 0.72082  0.45950  0.77918  Biso   1.000  N
  N32      1.0000 0.66320  0.38060  0.83680  Biso   1.000  N
  C401     1.0000 0.18380  0.18380  0.09350  Biso   1.000  C
  N33      1.0000 0.22082  0.22082  0.04050  Biso   1.000  N
  N34      1.0000 0.16320  0.16320  0.11940  Biso   1.000  N
  C402     1.0000 0.18380  0.68380  0.59350  Biso   1.000  C
  N35      1.0000 0.22082  0.72082  0.54050  Biso   1.000  N
  N36      1.0000 0.16320  0.66320  0.61940  Biso   1.000  N
  C403     1.0000 0.68380  0.18380  0.59350  Biso   1.000  C
  N37      1.0000 0.72082  0.22082  0.54050  Biso   1.000  N
  N38      1.0000 0.66320  0.16320  0.61940  Biso   1.000  N
  C404     1.0000 0.68380  0.68380  0.09350  Biso   1.000  C
  N39      1.0000 0.72082  0.72082  0.04050  Biso   1.000  N
  N40      1.0000 0.66320  0.66320  0.11940  Biso   1.000  N
  C405     1.0000 0.18380  0.81620  0.90650  Biso   1.000  C
  N41      1.0000 0.22082  0.77918  0.95950  Biso   1.000  N
  N42      1.0000 0.16320  0.83680  0.88060  Biso   1.000  N
  C406     1.0000 0.18380  0.31620  0.40650  Biso   1.000  C
  N43      1.0000 0.22082  0.27918  0.45950  Biso   1.000  N
  N44      1.0000 0.16320  0.33680  0.38060  Biso   1.000  N
  C407     1.0000 0.68380  0.81620  0.40650  Biso   1.000  C
  N45      1.0000 0.72082  0.77918  0.45950  Biso   1.000  N
  N46      1.0000 0.66320  0.83680  0.38060  Biso   1.000  N
  C408     1.0000 0.68380  0.31620  0.90650  Biso   1.000  C
  N47      1.0000 0.72082  0.27918  0.95950  Biso   1.000  N
  N48      1.0000 0.66320  0.33680  0.88060  Biso   1.000  N
  C409     1.0000 0.81620  0.81620  0.09350  Biso   1.000  C
  N49      1.0000 0.77918  0.77918  0.04050  Biso   1.000  N
  N50      1.0000 0.83680  0.83680  0.11940  Biso   1.000  N
  C410     1.0000 0.81620  0.31620  0.59350  Biso   1.000  C
  N51      1.0000 0.77918  0.27918  0.54050  Biso   1.000  N
  N52      1.0000 0.83680  0.33680  0.61940  Biso   1.000  N
  C411     1.0000 0.31620  0.81620  0.59350  Biso   1.000  C
  N53      1.0000 0.27918  0.77918  0.54050  Biso   1.000  N
  N54      1.0000 0.33680  0.83680  0.61940  Biso   1.000  N
  C412     1.0000 0.31620  0.31620  0.09350  Biso   1.000  C
  N55      1.0000 0.27918  0.27918  0.04050  Biso   1.000  N
  N56      1.0000 0.33680  0.33680  0.11940  Biso   1.000  N
  C413     1.0000 0.81620  0.18380  0.90650  Biso   1.000  C
  N57      1.0000 0.77918  0.22082  0.95950  Biso   1.000  N
  N58      1.0000 0.83680  0.16320  0.88060  Biso   1.000  N
  C414     1.0000 0.81620  0.68380  0.40650  Biso   1.000  C
  N59      1.0000 0.77918  0.72082  0.45950  Biso   1.000  N
  N60      1.0000 0.83680  0.66320  0.38060  Biso   1.000  N
  C415     1.0000 0.31620  0.18380  0.40650  Biso   1.000  C
  N61      1.0000 0.27918  0.22082  0.45950  Biso   1.000  N
  N62      1.0000 0.33680  0.16320  0.38060  Biso   1.000  N
  C416     1.0000 0.31620  0.68380  0.90650  Biso   1.000  C
  N63      1.0000 0.27918  0.72082  0.95950  Biso   1.000  N
  N64      1.0000 0.33680  0.66320  0.88060  Biso   1.000  N
  C417     1.0000 0.09350  0.18380  0.18380  Biso   1.000  C
  N65      1.0000 0.04050  0.22082  0.22082  Biso   1.000  N
  N66      1.0000 0.11940  0.16320  0.16320  Biso   1.000  N
  C418     1.0000 0.09350  0.68380  0.68380  Biso   1.000  C
  N67      1.0000 0.04050  0.72082  0.72082  Biso   1.000  N
  N68      1.0000 0.11940  0.66320  0.66320  Biso   1.000  N
  C419     1.0000 0.59350  0.18380  0.68380  Biso   1.000  C
  N69      1.0000 0.54050  0.22082  0.72082  Biso   1.000  N
  N70      1.0000 0.61940  0.16320  0.66320  Biso   1.000  N
  C420     1.0000 0.59350  0.68380  0.18380  Biso   1.000  C
  N71      1.0000 0.54050  0.72082  0.22082  Biso   1.000  N
  N72      1.0000 0.61940  0.66320  0.16320  Biso   1.000  N
  C421     1.0000 0.90650  0.18380  0.81620  Biso   1.000  C
  N73      1.0000 0.95950  0.22082  0.77918  Biso   1.000  N
  N74      1.0000 0.88060  0.16320  0.83680  Biso   1.000  N
  C422     1.0000 0.90650  0.68380  0.31620  Biso   1.000  C
  N75      1.0000 0.95950  0.72082  0.27918  Biso   1.000  N
  N76      1.0000 0.88060  0.66320  0.33680  Biso   1.000  N
  C423     1.0000 0.40650  0.18380  0.31620  Biso   1.000  C
  N77      1.0000 0.45950  0.22082  0.27918  Biso   1.000  N
  N78      1.0000 0.38060  0.16320  0.33680  Biso   1.000  N
  C424     1.0000 0.40650  0.68380  0.81620  Biso   1.000  C
  N79      1.0000 0.45950  0.72082  0.77918  Biso   1.000  N
  N80      1.0000 0.38060  0.66320  0.83680  Biso   1.000  N
  C425     1.0000 0.09350  0.81620  0.81620  Biso   1.000  C
  N81      1.0000 0.04050  0.77918  0.77918  Biso   1.000  N
  N82      1.0000 0.11940  0.83680  0.83680  Biso   1.000  N
  C426     1.0000 0.09350  0.31620  0.31620  Biso   1.000  C
  N83      1.0000 0.04050  0.27918  0.27918  Biso   1.000  N
  N84      1.0000 0.11940  0.33680  0.33680  Biso   1.000  N
  C427     1.0000 0.59350  0.81620  0.31620  Biso   1.000  C
  N85      1.0000 0.54050  0.77918  0.27918  Biso   1.000  N
  N86      1.0000 0.61940  0.83680  0.33680  Biso   1.000  N
  C428     1.0000 0.59350  0.31620  0.81620  Biso   1.000  C
  N87      1.0000 0.54050  0.27918  0.77918  Biso   1.000  N
  N88      1.0000 0.61940  0.33680  0.83680  Biso   1.000  N
  C429     1.0000 0.90650  0.81620  0.18380  Biso   1.000  C
  N89      1.0000 0.95950  0.77918  0.22082  Biso   1.000  N
  N90      1.0000 0.88060  0.83680  0.16320  Biso   1.000  N
  C430     1.0000 0.90650  0.31620  0.68380  Biso   1.000  C
  N91      1.0000 0.95950  0.27918  0.72082  Biso   1.000  N
  N92      1.0000 0.88060  0.33680  0.66320  Biso   1.000  N
  C431     1.0000 0.40650  0.81620  0.68380  Biso   1.000  C
  N93      1.0000 0.45950  0.77918  0.72082  Biso   1.000  N
  N94      1.0000 0.38060  0.83680  0.66320  Biso   1.000  N
  C432     1.0000 0.40650  0.31620  0.18380  Biso   1.000  C
  N95      1.0000 0.45950  0.27918  0.22082  Biso   1.000  N
  N96      1.0000 0.38060  0.33680  0.16320  Biso   1.000  N
  C433     1.0000 0.09350  0.18380  0.81620  Biso   1.000  C
  N97      1.0000 0.04050  0.22082  0.77918  Biso   1.000  N
  N98      1.0000 0.11940  0.16320  0.83680  Biso   1.000  N
  C434     1.0000 0.09350  0.68380  0.31620  Biso   1.000  C
  N99      1.0000 0.04050  0.72082  0.27918  Biso   1.000  N
  N100     1.0000 0.11940  0.66320  0.33680  Biso   1.000  N
  C435     1.0000 0.59350  0.18380  0.31620  Biso   1.000  C
  N101     1.0000 0.54050  0.22082  0.27918  Biso   1.000  N
  N102     1.0000 0.61940  0.16320  0.33680  Biso   1.000  N
  C436     1.0000 0.59350  0.68380  0.81620  Biso   1.000  C
  N103     1.0000 0.54050  0.72082  0.77918  Biso   1.000  N
  N104     1.0000 0.61940  0.66320  0.83680  Biso   1.000  N
  C437     1.0000 0.90650  0.81620  0.81620  Biso   1.000  C
  N105     1.0000 0.95950  0.77918  0.77918  Biso   1.000  N
  N106     1.0000 0.88060  0.83680  0.83680  Biso   1.000  N
  C438     1.0000 0.90650  0.31620  0.31620  Biso   1.000  C
  N107     1.0000 0.95950  0.27918  0.27918  Biso   1.000  N
  N108     1.0000 0.88060  0.33680  0.33680  Biso   1.000  N
  C439     1.0000 0.40650  0.81620  0.31620  Biso   1.000  C
  N109     1.0000 0.45950  0.77918  0.27918  Biso   1.000  N
  N110     1.0000 0.38060  0.83680  0.33680  Biso   1.000  N
  C440     1.0000 0.40650  0.31620  0.81620  Biso   1.000  C
  N111     1.0000 0.45950  0.27918  0.77918  Biso   1.000  N
  N112     1.0000 0.38060  0.33680  0.83680  Biso   1.000  N
  C441     1.0000 0.09350  0.81620  0.18380  Biso   1.000  C
  N113     1.0000 0.04050  0.77918  0.22082  Biso   1.000  N
  N114     1.0000 0.11940  0.83680  0.16320  Biso   1.000  N
  C442     1.0000 0.09350  0.31620  0.68380  Biso   1.000  C
  N115     1.0000 0.04050  0.27918  0.72082  Biso   1.000  N
  N116     1.0000 0.11940  0.33680  0.66320  Biso   1.000  N
  C443     1.0000 0.59350  0.81620  0.68380  Biso   1.000  C
  N117     1.0000 0.54050  0.77918  0.72082  Biso   1.000  N
  N118     1.0000 0.61940  0.83680  0.66320  Biso   1.000  N
  C444     1.0000 0.59350  0.31620  0.18380  Biso   1.000  C
  N119     1.0000 0.54050  0.27918  0.22082  Biso   1.000  N
  N120     1.0000 0.61940  0.33680  0.16320  Biso   1.000  N
  C445     1.0000 0.90650  0.18380  0.18380  Biso   1.000  C
  N121     1.0000 0.95950  0.22082  0.22082  Biso   1.000  N
  N122     1.0000 0.88060  0.16320  0.16320  Biso   1.000  N
  C446     1.0000 0.90650  0.68380  0.68380  Biso   1.000  C
  N123     1.0000 0.95950  0.72082  0.72082  Biso   1.000  N
  N124     1.0000 0.88060  0.66320  0.66320  Biso   1.000  N
  C447     1.0000 0.40650  0.18380  0.68380  Biso   1.000  C
  N125     1.0000 0.45950  0.22082  0.72082  Biso   1.000  N
  N126     1.0000 0.38060  0.16320  0.66320  Biso   1.000  N
  C448     1.0000 0.40650  0.68380  0.18380  Biso   1.000  C
  N127     1.0000 0.45950  0.72082  0.22082  Biso   1.000  N
  N128     1.0000 0.38060  0.66320  0.16320  Biso   1.000  N
  C449     1.0000 0.18380  0.18380  0.90650  Biso   1.000  C
  N129     1.0000 0.22082  0.22082  0.95950  Biso   1.000  N
  N130     1.0000 0.16320  0.16320  0.88060  Biso   1.000  N
  C450     1.0000 0.18380  0.68380  0.40650  Biso   1.000  C
  N131     1.0000 0.22082  0.72082  0.45950  Biso   1.000  N
  N132     1.0000 0.16320  0.66320  0.38060  Biso   1.000  N
  C451     1.0000 0.68380  0.18380  0.40650  Biso   1.000  C
  N133     1.0000 0.72082  0.22082  0.45950  Biso   1.000  N
  N134     1.0000 0.66320  0.16320  0.38060  Biso   1.000  N
  C452     1.0000 0.68380  0.68380  0.90650  Biso   1.000  C
  N135     1.0000 0.72082  0.72082  0.95950  Biso   1.000  N
  N136     1.0000 0.66320  0.66320  0.88060  Biso   1.000  N
  C453     1.0000 0.81620  0.18380  0.09350  Biso   1.000  C
  N137     1.0000 0.77918  0.22082  0.04050  Biso   1.000  N
  N138     1.0000 0.83680  0.16320  0.11940  Biso   1.000  N
  C454     1.0000 0.81620  0.68380  0.59350  Biso   1.000  C
  N139     1.0000 0.77918  0.72082  0.54050  Biso   1.000  N
  N140     1.0000 0.83680  0.66320  0.61940  Biso   1.000  N
  C455     1.0000 0.31620  0.18380  0.59350  Biso   1.000  C
  N141     1.0000 0.27918  0.22082  0.54050  Biso   1.000  N
  N142     1.0000 0.33680  0.16320  0.61940  Biso   1.000  N
  C456     1.0000 0.31620  0.68380  0.09350  Biso   1.000  C
  N143     1.0000 0.27918  0.72082  0.04050  Biso   1.000  N
  N144     1.0000 0.33680  0.66320  0.11940  Biso   1.000  N
  C457     1.0000 0.81620  0.81620  0.90650  Biso   1.000  C
  N145     1.0000 0.77918  0.77918  0.95950  Biso   1.000  N
  N146     1.0000 0.83680  0.83680  0.88060  Biso   1.000  N
  C458     1.0000 0.81620  0.31620  0.40650  Biso   1.000  C
  N147     1.0000 0.77918  0.27918  0.45950  Biso   1.000  N
  N148     1.0000 0.83680  0.33680  0.38060  Biso   1.000  N
  C459     1.0000 0.31620  0.81620  0.40650  Biso   1.000  C
  N149     1.0000 0.27918  0.77918  0.45950  Biso   1.000  N
  N150     1.0000 0.33680  0.83680  0.38060  Biso   1.000  N
  C460     1.0000 0.31620  0.31620  0.90650  Biso   1.000  C
  N151     1.0000 0.27918  0.27918  0.95950  Biso   1.000  N
  N152     1.0000 0.33680  0.33680  0.88060  Biso   1.000  N
  C461     1.0000 0.18380  0.81620  0.09350  Biso   1.000  C
  N153     1.0000 0.22082  0.77918  0.04050  Biso   1.000  N
  N154     1.0000 0.16320  0.83680  0.11940  Biso   1.000  N
  C462     1.0000 0.18380  0.31620  0.59350  Biso   1.000  C
  N155     1.0000 0.22082  0.27918  0.54050  Biso   1.000  N
  N156     1.0000 0.16320  0.33680  0.61940  Biso   1.000  N
  C463     1.0000 0.68380  0.81620  0.59350  Biso   1.000  C
  N157     1.0000 0.72082  0.77918  0.54050  Biso   1.000  N
  N158     1.0000 0.66320  0.83680  0.61940  Biso   1.000  N
  C464     1.0000 0.68380  0.31620  0.09350  Biso   1.000  C
  N159     1.0000 0.72082  0.27918  0.04050  Biso   1.000  N
  N160     1.0000 0.66320  0.33680  0.11940  Biso   1.000  N
  C465     1.0000 0.18380  0.09350  0.81620  Biso   1.000  C
  N161     1.0000 0.22082  0.04050  0.77918  Biso   1.000  N
  N162     1.0000 0.16320  0.11940  0.83680  Biso   1.000  N
  C466     1.0000 0.18380  0.59350  0.31620  Biso   1.000  C
  N163     1.0000 0.22082  0.54050  0.27918  Biso   1.000  N
  N164     1.0000 0.16320  0.61940  0.33680  Biso   1.000  N
  C467     1.0000 0.68380  0.09350  0.31620  Biso   1.000  C
  N165     1.0000 0.72082  0.04050  0.27918  Biso   1.000  N
  N166     1.0000 0.66320  0.11940  0.33680  Biso   1.000  N
  C468     1.0000 0.68380  0.59350  0.81620  Biso   1.000  C
  N167     1.0000 0.72082  0.54050  0.77918  Biso   1.000  N
  N168     1.0000 0.66320  0.61940  0.83680  Biso   1.000  N
  C469     1.0000 0.18380  0.90650  0.18380  Biso   1.000  C
  N169     1.0000 0.22082  0.95950  0.22082  Biso   1.000  N
  N170     1.0000 0.16320  0.88060  0.16320  Biso   1.000  N
  C470     1.0000 0.18380  0.40650  0.68380  Biso   1.000  C
  N171     1.0000 0.22082  0.45950  0.72082  Biso   1.000  N
  N172     1.0000 0.16320  0.38060  0.66320  Biso   1.000  N
  C471     1.0000 0.68380  0.90650  0.68380  Biso   1.000  C
  N173     1.0000 0.72082  0.95950  0.72082  Biso   1.000  N
  N174     1.0000 0.66320  0.88060  0.66320  Biso   1.000  N
  C472     1.0000 0.68380  0.40650  0.18380  Biso   1.000  C
  N175     1.0000 0.72082  0.45950  0.22082  Biso   1.000  N
  N176     1.0000 0.66320  0.38060  0.16320  Biso   1.000  N
  C473     1.0000 0.81620  0.09350  0.18380  Biso   1.000  C
  N177     1.0000 0.77918  0.04050  0.22082  Biso   1.000  N
  N178     1.0000 0.83680  0.11940  0.16320  Biso   1.000  N
  C474     1.0000 0.81620  0.59350  0.68380  Biso   1.000  C
  N179     1.0000 0.77918  0.54050  0.72082  Biso   1.000  N
  N180     1.0000 0.83680  0.61940  0.66320  Biso   1.000  N
  C475     1.0000 0.31620  0.09350  0.68380  Biso   1.000  C
  N181     1.0000 0.27918  0.04050  0.72082  Biso   1.000  N
  N182     1.0000 0.33680  0.11940  0.66320  Biso   1.000  N
  C476     1.0000 0.31620  0.59350  0.18380  Biso   1.000  C
  N183     1.0000 0.27918  0.54050  0.22082  Biso   1.000  N
  N184     1.0000 0.33680  0.61940  0.16320  Biso   1.000  N
  C477     1.0000 0.81620  0.90650  0.81620  Biso   1.000  C
  N185     1.0000 0.77918  0.95950  0.77918  Biso   1.000  N
  N186     1.0000 0.83680  0.88060  0.83680  Biso   1.000  N
  C478     1.0000 0.81620  0.40650  0.31620  Biso   1.000  C
  N187     1.0000 0.77918  0.45950  0.27918  Biso   1.000  N
  N188     1.0000 0.83680  0.38060  0.33680  Biso   1.000  N
  C479     1.0000 0.31620  0.90650  0.31620  Biso   1.000  C
  N189     1.0000 0.27918  0.95950  0.27918  Biso   1.000  N
  N190     1.0000 0.33680  0.88060  0.33680  Biso   1.000  N
  C480     1.0000 0.31620  0.40650  0.81620  Biso   1.000  C
  N191     1.0000 0.27918  0.45950  0.77918  Biso   1.000  N
  N192     1.0000 0.33680  0.38060  0.83680  Biso   1.000  N
  C481     1.0000 0.18540  0.00000  0.31460  Biso   1.000  C
  N193     1.0000 0.20860  0.00000  0.29140  Biso   1.000  N
  S1       1.0000 0.15796  0.00000  0.34204  Biso   1.000  S
  C482     1.0000 0.18540  0.50000  0.81460  Biso   1.000  C
  N194     1.0000 0.20860  0.50000  0.79140  Biso   1.000  N
  S2       1.0000 0.15796  0.50000  0.84204  Biso   1.000  S
  C483     1.0000 0.81460  0.00000  0.31460  Biso   1.000  C
  N195     1.0000 0.79140  0.00000  0.29140  Biso   1.000  N
  S3       1.0000 0.84204  0.00000  0.34204  Biso   1.000  S
  C484     1.0000 0.81460  0.50000  0.81460  Biso   1.000  C
  N196     1.0000 0.79140  0.50000  0.79140  Biso   1.000  N
  S4       1.0000 0.84204  0.50000  0.84204  Biso   1.000  S
  C485     1.0000 0.31460  0.50000  0.31460  Biso   1.000  C
  N197     1.0000 0.29140  0.50000  0.29140  Biso   1.000  N
  S5       1.0000 0.34204  0.50000  0.34204  Biso   1.000  S
  C486     1.0000 0.81460  0.00000  0.68540  Biso   1.000  C
  N198     1.0000 0.79140  0.00000  0.70860  Biso   1.000  N
  S6       1.0000 0.84204  0.00000  0.65796  Biso   1.000  S
  C487     1.0000 0.81460  0.50000  0.18540  Biso   1.000  C
  N199     1.0000 0.79140  0.50000  0.20860  Biso   1.000  N
  S7       1.0000 0.84204  0.50000  0.15796  Biso   1.000  S
  C488     1.0000 0.31460  0.00000  0.18540  Biso   1.000  C
  N200     1.0000 0.29140  0.00000  0.20860  Biso   1.000  N
  S8       1.0000 0.34204  0.00000  0.15796  Biso   1.000  S
  C489     1.0000 0.18540  0.00000  0.68540  Biso   1.000  C
  N201     1.0000 0.20860  0.00000  0.70860  Biso   1.000  N
  S9       1.0000 0.15796  0.00000  0.65796  Biso   1.000  S
  C490     1.0000 0.18540  0.50000  0.18540  Biso   1.000  C
  N202     1.0000 0.20860  0.50000  0.20860  Biso   1.000  N
  S10      1.0000 0.15796  0.50000  0.15796  Biso   1.000  S
  C491     1.0000 0.31460  0.18540  0.00000  Biso   1.000  C
  N203     1.0000 0.29140  0.20860  0.00000  Biso   1.000  N
  S11      1.0000 0.34204  0.15796  0.00000  Biso   1.000  S
  C492     1.0000 0.31460  0.68540  0.50000  Biso   1.000  C
  N204     1.0000 0.29140  0.70860  0.50000  Biso   1.000  N
  S12      1.0000 0.34204  0.65796  0.50000  Biso   1.000  S
  C493     1.0000 0.31460  0.81460  0.00000  Biso   1.000  C
  N205     1.0000 0.29140  0.79140  0.00000  Biso   1.000  N
  S13      1.0000 0.34204  0.84204  0.00000  Biso   1.000  S
  C494     1.0000 0.31460  0.31460  0.50000  Biso   1.000  C
  N206     1.0000 0.29140  0.29140  0.50000  Biso   1.000  N
  S14      1.0000 0.34204  0.34204  0.50000  Biso   1.000  S
  C495     1.0000 0.68540  0.81460  0.00000  Biso   1.000  C
  N207     1.0000 0.70860  0.79140  0.00000  Biso   1.000  N
  S15      1.0000 0.65796  0.84204  0.00000  Biso   1.000  S
  C496     1.0000 0.68540  0.31460  0.50000  Biso   1.000  C
  N208     1.0000 0.70860  0.29140  0.50000  Biso   1.000  N
  S16      1.0000 0.65796  0.34204  0.50000  Biso   1.000  S
  C497     1.0000 0.18540  0.31460  0.00000  Biso   1.000  C
  N209     1.0000 0.20860  0.29140  0.00000  Biso   1.000  N
  S17      1.0000 0.15796  0.34204  0.00000  Biso   1.000  S
  C498     1.0000 0.68540  0.18540  0.00000  Biso   1.000  C
  N210     1.0000 0.70860  0.20860  0.00000  Biso   1.000  N
  S18      1.0000 0.65796  0.15796  0.00000  Biso   1.000  S
  C499     1.0000 0.68540  0.68540  0.50000  Biso   1.000  C
  N211     1.0000 0.70860  0.70860  0.50000  Biso   1.000  N
  S19      1.0000 0.65796  0.65796  0.50000  Biso   1.000  S
  C500     1.0000 0.18540  0.18540  0.50000  Biso   1.000  C
  N212     1.0000 0.20860  0.20860  0.50000  Biso   1.000  N
  S20      1.0000 0.15796  0.15796  0.50000  Biso   1.000  S
  C501     1.0000 0.00000  0.31460  0.18540  Biso   1.000  C
  N213     1.0000 0.00000  0.29140  0.20860  Biso   1.000  N
  S21      1.0000 0.00000  0.34204  0.15796  Biso   1.000  S
  C502     1.0000 0.50000  0.31460  0.68540  Biso   1.000  C
  N214     1.0000 0.50000  0.29140  0.70860  Biso   1.000  N
  S22      1.0000 0.50000  0.34204  0.65796  Biso   1.000  S
  C503     1.0000 0.00000  0.31460  0.81460  Biso   1.000  C
  N215     1.0000 0.00000  0.29140  0.79140  Biso   1.000  N
  S23      1.0000 0.00000  0.34204  0.84204  Biso   1.000  S
  C504     1.0000 0.50000  0.31460  0.31460  Biso   1.000  C
  N216     1.0000 0.50000  0.29140  0.29140  Biso   1.000  N
  S24      1.0000 0.50000  0.34204  0.34204  Biso   1.000  S
  C505     1.0000 0.00000  0.68540  0.81460  Biso   1.000  C
  N217     1.0000 0.00000  0.70860  0.79140  Biso   1.000  N
  S25      1.0000 0.00000  0.65796  0.84204  Biso   1.000  S
  C506     1.0000 0.00000  0.18540  0.31460  Biso   1.000  C
  N218     1.0000 0.00000  0.20860  0.29140  Biso   1.000  N
  S26      1.0000 0.00000  0.15796  0.34204  Biso   1.000  S
  C507     1.0000 0.50000  0.68540  0.31460  Biso   1.000  C
  N219     1.0000 0.50000  0.70860  0.29140  Biso   1.000  N
  S27      1.0000 0.50000  0.65796  0.34204  Biso   1.000  S
  C508     1.0000 0.00000  0.68540  0.18540  Biso   1.000  C
  N220     1.0000 0.00000  0.70860  0.20860  Biso   1.000  N
  S28      1.0000 0.00000  0.65796  0.15796  Biso   1.000  S
  C509     1.0000 0.50000  0.68540  0.68540  Biso   1.000  C
  N221     1.0000 0.50000  0.70860  0.70860  Biso   1.000  N
  S29      1.0000 0.50000  0.65796  0.65796  Biso   1.000  S
  C510     1.0000 0.50000  0.18540  0.18540  Biso   1.000  C
  N222     1.0000 0.50000  0.20860  0.20860  Biso   1.000  N
  S30      1.0000 0.50000  0.15796  0.15796  Biso   1.000  S
  C511     1.0000 0.00000  0.18540  0.68540  Biso   1.000  C
  N223     1.0000 0.00000  0.20860  0.70860  Biso   1.000  N
  S31      1.0000 0.00000  0.15796  0.65796  Biso   1.000  S
  C512     1.0000 0.00000  0.81460  0.68540  Biso   1.000  C
  N224     1.0000 0.00000  0.79140  0.70860  Biso   1.000  N
  S32      1.0000 0.00000  0.84204  0.65796  Biso   1.000  S
  C513     1.0000 0.50000  0.81460  0.18540  Biso   1.000  C
  N225     1.0000 0.50000  0.79140  0.20860  Biso   1.000  N
  S33      1.0000 0.50000  0.84204  0.15796  Biso   1.000  S
  C514     1.0000 0.00000  0.81460  0.31460  Biso   1.000  C
  N226     1.0000 0.00000  0.79140  0.29140  Biso   1.000  N
  S34      1.0000 0.00000  0.84204  0.34204  Biso   1.000  S
  C515     1.0000 0.50000  0.81460  0.81460  Biso   1.000  C
  N227     1.0000 0.50000  0.79140  0.79140  Biso   1.000  N
  S35      1.0000 0.50000  0.84204  0.84204  Biso   1.000  S
  C516     1.0000 0.50000  0.18540  0.81460  Biso   1.000  C
  N228     1.0000 0.50000  0.20860  0.79140  Biso   1.000  N
  S36      1.0000 0.50000  0.15796  0.84204  Biso   1.000  S
  C517     1.0000 0.18540  0.81460  0.50000  Biso   1.000  C
  N229     1.0000 0.20860  0.79140  0.50000  Biso   1.000  N
  S37      1.0000 0.15796  0.84204  0.50000  Biso   1.000  S
  C518     1.0000 0.81460  0.31460  0.00000  Biso   1.000  C
  N230     1.0000 0.79140  0.29140  0.00000  Biso   1.000  N
  S38      1.0000 0.84204  0.34204  0.00000  Biso   1.000  S
  C519     1.0000 0.81460  0.81460  0.50000  Biso   1.000  C
  N231     1.0000 0.79140  0.79140  0.50000  Biso   1.000  N
  S39      1.0000 0.84204  0.84204  0.50000  Biso   1.000  S
  C520     1.0000 0.81460  0.68540  0.00000  Biso   1.000  C
  N232     1.0000 0.79140  0.70860  0.00000  Biso   1.000  N
  S40      1.0000 0.84204  0.65796  0.00000  Biso   1.000  S
  C521     1.0000 0.81460  0.18540  0.50000  Biso   1.000  C
  N233     1.0000 0.79140  0.20860  0.50000  Biso   1.000  N
  S41      1.0000 0.84204  0.15796  0.50000  Biso   1.000  S
  C522     1.0000 0.18540  0.68540  0.00000  Biso   1.000  C
  N234     1.0000 0.20860  0.70860  0.00000  Biso   1.000  N
  S42      1.0000 0.15796  0.65796  0.00000  Biso   1.000  S
  C523     1.0000 0.31460  0.00000  0.81460  Biso   1.000  C
  N235     1.0000 0.29140  0.00000  0.79140  Biso   1.000  N
  S43      1.0000 0.34204  0.00000  0.84204  Biso   1.000  S
  C524     1.0000 0.31460  0.50000  0.68540  Biso   1.000  C
  N236     1.0000 0.29140  0.50000  0.70860  Biso   1.000  N
  S44      1.0000 0.34204  0.50000  0.65796  Biso   1.000  S
  C525     1.0000 0.68540  0.00000  0.18540  Biso   1.000  C
  N237     1.0000 0.70860  0.00000  0.20860  Biso   1.000  N
  S45      1.0000 0.65796  0.00000  0.15796  Biso   1.000  S
  C526     1.0000 0.68540  0.50000  0.68540  Biso   1.000  C
  N238     1.0000 0.70860  0.50000  0.70860  Biso   1.000  N
  S46      1.0000 0.65796  0.50000  0.65796  Biso   1.000  S
  C527     1.0000 0.68540  0.00000  0.81460  Biso   1.000  C
  N239     1.0000 0.70860  0.00000  0.79140  Biso   1.000  N
  S47      1.0000 0.65796  0.00000  0.84204  Biso   1.000  S
  C528     1.0000 0.68540  0.50000  0.31460  Biso   1.000  C
  N240     1.0000 0.70860  0.50000  0.29140  Biso   1.000  N
  S48      1.0000 0.65796  0.50000  0.34204  Biso   1.000  S
  Co1      1.0000 0.25000  0.00000  0.25000  Biso   1.000  Co
  Co2      1.0000 0.25000  0.50000  0.75000  Biso   1.000  Co
  Co3      1.0000 0.75000  0.00000  0.25000  Biso   1.000  Co
  Co4      1.0000 0.75000  0.50000  0.75000  Biso   1.000  Co
  Co5      1.0000 0.25000  0.50000  0.25000  Biso   1.000  Co
  Co6      1.0000 0.75000  0.00000  0.75000  Biso   1.000  Co
  Co7      1.0000 0.75000  0.50000  0.25000  Biso   1.000  Co
  Co8      1.0000 0.25000  0.00000  0.75000  Biso   1.000  Co
  Co9      1.0000 0.25000  0.25000  0.00000  Biso   1.000  Co
  Co10     1.0000 0.25000  0.75000  0.50000  Biso   1.000  Co
  Co11     1.0000 0.25000  0.75000  0.00000  Biso   1.000  Co
  Co12     1.0000 0.25000  0.25000  0.50000  Biso   1.000  Co
  Co13     1.0000 0.75000  0.75000  0.00000  Biso   1.000  Co
  Co14     1.0000 0.75000  0.25000  0.50000  Biso   1.000  Co
  Co15     1.0000 0.75000  0.25000  0.00000  Biso   1.000  Co
  Co16     1.0000 0.75000  0.75000  0.50000  Biso   1.000  Co
  Co17     1.0000 0.00000  0.25000  0.25000  Biso   1.000  Co
  Co18     1.0000 0.50000  0.25000  0.75000  Biso   1.000  Co
  Co19     1.0000 0.00000  0.25000  0.75000  Biso   1.000  Co
  Co20     1.0000 0.50000  0.25000  0.25000  Biso   1.000  Co
  Co21     1.0000 0.00000  0.75000  0.75000  Biso   1.000  Co
  Co22     1.0000 0.50000  0.75000  0.25000  Biso   1.000  Co
  Co23     1.0000 0.00000  0.75000  0.25000  Biso   1.000  Co
  Co24     1.0000 0.50000  0.75000  0.75000  Biso   1.000  Co
  C529     1.0000 0.17990  0.13200  0.13200  Biso   1.000  C
  C530     1.0000 0.17990  0.63200  0.63200  Biso   1.000  C
  C531     1.0000 0.67990  0.13200  0.63200  Biso   1.000  C
  C532     1.0000 0.67990  0.63200  0.13200  Biso   1.000  C
  C533     1.0000 0.82010  0.86800  0.13200  Biso   1.000  C
  C534     1.0000 0.82010  0.36800  0.63200  Biso   1.000  C
  C535     1.0000 0.32010  0.86800  0.63200  Biso   1.000  C
  C536     1.0000 0.32010  0.36800  0.13200  Biso   1.000  C
  C537     1.0000 0.82010  0.13200  0.86800  Biso   1.000  C
  C538     1.0000 0.82010  0.63200  0.36800  Biso   1.000  C
  C539     1.0000 0.32010  0.13200  0.36800  Biso   1.000  C
  C540     1.0000 0.32010  0.63200  0.86800  Biso   1.000  C
  C541     1.0000 0.17990  0.86800  0.86800  Biso   1.000  C
  C542     1.0000 0.17990  0.36800  0.36800  Biso   1.000  C
  C543     1.0000 0.67990  0.86800  0.36800  Biso   1.000  C
  C544     1.0000 0.67990  0.36800  0.86800  Biso   1.000  C
  C545     1.0000 0.13200  0.17990  0.13200  Biso   1.000  C
  C546     1.0000 0.13200  0.67990  0.63200  Biso   1.000  C
  C547     1.0000 0.63200  0.17990  0.63200  Biso   1.000  C
  C548     1.0000 0.63200  0.67990  0.13200  Biso   1.000  C
  C549     1.0000 0.13200  0.82010  0.86800  Biso   1.000  C
  C550     1.0000 0.13200  0.32010  0.36800  Biso   1.000  C
  C551     1.0000 0.63200  0.82010  0.36800  Biso   1.000  C
  C552     1.0000 0.63200  0.32010  0.86800  Biso   1.000  C
  C553     1.0000 0.86800  0.82010  0.13200  Biso   1.000  C
  C554     1.0000 0.86800  0.32010  0.63200  Biso   1.000  C
  C555     1.0000 0.36800  0.82010  0.63200  Biso   1.000  C
  C556     1.0000 0.36800  0.32010  0.13200  Biso   1.000  C
  C557     1.0000 0.86800  0.17990  0.86800  Biso   1.000  C
  C558     1.0000 0.86800  0.67990  0.36800  Biso   1.000  C
  C559     1.0000 0.36800  0.17990  0.36800  Biso   1.000  C
  C560     1.0000 0.36800  0.67990  0.86800  Biso   1.000  C
  C561     1.0000 0.13200  0.13200  0.17990  Biso   1.000  C
  C562     1.0000 0.13200  0.63200  0.67990  Biso   1.000  C
  C563     1.0000 0.63200  0.13200  0.67990  Biso   1.000  C
  C564     1.0000 0.63200  0.63200  0.17990  Biso   1.000  C
  C565     1.0000 0.86800  0.13200  0.82010  Biso   1.000  C
  C566     1.0000 0.86800  0.63200  0.32010  Biso   1.000  C
  C567     1.0000 0.36800  0.13200  0.32010  Biso   1.000  C
  C568     1.0000 0.36800  0.63200  0.82010  Biso   1.000  C
  C569     1.0000 0.13200  0.86800  0.82010  Biso   1.000  C
  C570     1.0000 0.13200  0.36800  0.32010  Biso   1.000  C
  C571     1.0000 0.63200  0.86800  0.32010  Biso   1.000  C
  C572     1.0000 0.63200  0.36800  0.82010  Biso   1.000  C
  C573     1.0000 0.86800  0.86800  0.17990  Biso   1.000  C
  C574     1.0000 0.86800  0.36800  0.67990  Biso   1.000  C
  C575     1.0000 0.36800  0.86800  0.67990  Biso   1.000  C
  C576     1.0000 0.36800  0.36800  0.17990  Biso   1.000  C
  C577     1.0000 0.13200  0.17990  0.86800  Biso   1.000  C
  C578     1.0000 0.13200  0.67990  0.36800  Biso   1.000  C
  C579     1.0000 0.63200  0.17990  0.36800  Biso   1.000  C
  C580     1.0000 0.63200  0.67990  0.86800  Biso   1.000  C
  C581     1.0000 0.86800  0.82010  0.86800  Biso   1.000  C
  C582     1.0000 0.86800  0.32010  0.36800  Biso   1.000  C
  C583     1.0000 0.36800  0.82010  0.36800  Biso   1.000  C
  C584     1.0000 0.36800  0.32010  0.86800  Biso   1.000  C
  C585     1.0000 0.13200  0.82010  0.13200  Biso   1.000  C
  C586     1.0000 0.13200  0.32010  0.63200  Biso   1.000  C
  C587     1.0000 0.63200  0.82010  0.63200  Biso   1.000  C
  C588     1.0000 0.63200  0.32010  0.13200  Biso   1.000  C
  C589     1.0000 0.86800  0.17990  0.13200  Biso   1.000  C
  C590     1.0000 0.86800  0.67990  0.63200  Biso   1.000  C
  C591     1.0000 0.36800  0.17990  0.63200  Biso   1.000  C
  C592     1.0000 0.36800  0.67990  0.13200  Biso   1.000  C
  C593     1.0000 0.17990  0.13200  0.86800  Biso   1.000  C
  C594     1.0000 0.17990  0.63200  0.36800  Biso   1.000  C
  C595     1.0000 0.67990  0.13200  0.36800  Biso   1.000  C
  C596     1.0000 0.67990  0.63200  0.86800  Biso   1.000  C
  C597     1.0000 0.82010  0.13200  0.13200  Biso   1.000  C
  C598     1.0000 0.82010  0.63200  0.63200  Biso   1.000  C
  C599     1.0000 0.32010  0.13200  0.63200  Biso   1.000  C
  C600     1.0000 0.32010  0.63200  0.13200  Biso   1.000  C
  C601     1.0000 0.82010  0.86800  0.86800  Biso   1.000  C
  C602     1.0000 0.82010  0.36800  0.36800  Biso   1.000  C
  C603     1.0000 0.32010  0.86800  0.36800  Biso   1.000  C
  C604     1.0000 0.32010  0.36800  0.86800  Biso   1.000  C
  C605     1.0000 0.17990  0.86800  0.13200  Biso   1.000  C
  C606     1.0000 0.17990  0.36800  0.63200  Biso   1.000  C
  C607     1.0000 0.67990  0.86800  0.63200  Biso   1.000  C
  C608     1.0000 0.67990  0.36800  0.13200  Biso   1.000  C
  C609     1.0000 0.13200  0.13200  0.82010  Biso   1.000  C
  C610     1.0000 0.13200  0.63200  0.32010  Biso   1.000  C
  C611     1.0000 0.63200  0.13200  0.32010  Biso   1.000  C
  C612     1.0000 0.63200  0.63200  0.82010  Biso   1.000  C
  C613     1.0000 0.13200  0.86800  0.17990  Biso   1.000  C
  C614     1.0000 0.13200  0.36800  0.67990  Biso   1.000  C
  C615     1.0000 0.63200  0.86800  0.67990  Biso   1.000  C
  C616     1.0000 0.63200  0.36800  0.17990  Biso   1.000  C
  C617     1.0000 0.86800  0.13200  0.17990  Biso   1.000  C
  C618     1.0000 0.86800  0.63200  0.67990  Biso   1.000  C
  C619     1.0000 0.36800  0.13200  0.67990  Biso   1.000  C
  C620     1.0000 0.36800  0.63200  0.17990  Biso   1.000  C
  C621     1.0000 0.86800  0.86800  0.82010  Biso   1.000  C
  C622     1.0000 0.86800  0.36800  0.32010  Biso   1.000  C
  C623     1.0000 0.36800  0.86800  0.32010  Biso   1.000  C
  C624     1.0000 0.36800  0.36800  0.82010  Biso   1.000  C
