data_image0
_cell_length_a       27.546
_cell_length_b       27.546
_cell_length_c       27.546
_cell_angle_alpha    90
_cell_angle_beta     90
_cell_angle_gamma    90

_symmetry_space_group_name_H-M    "P 1"
_symmetry_int_tables_number       1

loop_
  _symmetry_equiv_pos_as_xyz
  'x, y, z'

loop_
  _atom_site_label
  _atom_site_occupancy
  _atom_site_fract_x
  _atom_site_fract_y
  _atom_site_fract_z
  _atom_site_thermal_displace_type
  _atom_site_B_iso_or_equiv
  _atom_site_type_symbol
  Tb1      1.0000 0.39965  0.50000  0.50000  Biso   1.000  Tb
  Tb2      1.0000 0.39965  0.00000  0.00000  Biso   1.000  Tb
  Tb3      1.0000 0.89965  0.50000  0.00000  Biso   1.000  Tb
  Tb4      1.0000 0.89965  0.00000  0.50000  Biso   1.000  Tb
  Tb5      1.0000 0.60035  0.50000  0.50000  Biso   1.000  Tb
  Tb6      1.0000 0.60035  0.00000  0.00000  Biso   1.000  Tb
  Tb7      1.0000 0.10035  0.50000  0.00000  Biso   1.000  Tb
  Tb8      1.0000 0.10035  0.00000  0.50000  Biso   1.000  Tb
  Tb9      1.0000 0.50000  0.39965  0.50000  Biso   1.000  Tb
  Tb10     1.0000 0.50000  0.89965  0.00000  Biso   1.000  Tb
  Tb11     1.0000 0.00000  0.39965  0.00000  Biso   1.000  Tb
  Tb12     1.0000 0.00000  0.89965  0.50000  Biso   1.000  Tb
  Tb13     1.0000 0.50000  0.60035  0.50000  Biso   1.000  Tb
  Tb14     1.0000 0.50000  0.10035  0.00000  Biso   1.000  Tb
  Tb15     1.0000 0.00000  0.60035  0.00000  Biso   1.000  Tb
  Tb16     1.0000 0.00000  0.10035  0.50000  Biso   1.000  Tb
  Tb17     1.0000 0.50000  0.50000  0.39965  Biso   1.000  Tb
  Tb18     1.0000 0.50000  0.00000  0.89965  Biso   1.000  Tb
  Tb19     1.0000 0.00000  0.50000  0.89965  Biso   1.000  Tb
  Tb20     1.0000 0.00000  0.00000  0.39965  Biso   1.000  Tb
  Tb21     1.0000 0.50000  0.50000  0.60035  Biso   1.000  Tb
  Tb22     1.0000 0.50000  0.00000  0.10035  Biso   1.000  Tb
  Tb23     1.0000 0.00000  0.50000  0.10035  Biso   1.000  Tb
  Tb24     1.0000 0.00000  0.00000  0.60035  Biso   1.000  Tb
  O1       1.0000 0.36360  0.42290  0.50000  Biso   1.000  O
  C1       1.0000 0.29260  0.35490  0.50000  Biso   1.000  C
  H1       1.0000 0.28420  0.38760  0.50000  Biso   1.000  H
  C2       1.0000 0.25610  0.31840  0.50000  Biso   1.000  C
  H2       1.0000 0.22350  0.32740  0.50000  Biso   1.000  H
  O2       1.0000 0.36360  0.92290  0.00000  Biso   1.000  O
  C3       1.0000 0.29260  0.85490  0.00000  Biso   1.000  C
  H3       1.0000 0.28420  0.88760  0.00000  Biso   1.000  H
  C4       1.0000 0.25610  0.81840  0.00000  Biso   1.000  C
  H4       1.0000 0.22350  0.82740  0.00000  Biso   1.000  H
  O3       1.0000 0.86360  0.42290  0.00000  Biso   1.000  O
  C5       1.0000 0.79260  0.35490  0.00000  Biso   1.000  C
  H5       1.0000 0.78420  0.38760  0.00000  Biso   1.000  H
  C6       1.0000 0.75610  0.31840  0.00000  Biso   1.000  C
  H6       1.0000 0.72350  0.32740  0.00000  Biso   1.000  H
  O4       1.0000 0.86360  0.92290  0.50000  Biso   1.000  O
  C7       1.0000 0.79260  0.85490  0.50000  Biso   1.000  C
  H7       1.0000 0.78420  0.88760  0.50000  Biso   1.000  H
  C8       1.0000 0.75610  0.81840  0.50000  Biso   1.000  C
  H8       1.0000 0.72350  0.82740  0.50000  Biso   1.000  H
  O5       1.0000 0.63640  0.57710  0.50000  Biso   1.000  O
  C9       1.0000 0.70740  0.64510  0.50000  Biso   1.000  C
  H9       1.0000 0.71580  0.61240  0.50000  Biso   1.000  H
  C10      1.0000 0.74390  0.68160  0.50000  Biso   1.000  C
  H10      1.0000 0.77650  0.67260  0.50000  Biso   1.000  H
  O6       1.0000 0.63640  0.07710  0.00000  Biso   1.000  O
  C11      1.0000 0.70740  0.14510  0.00000  Biso   1.000  C
  H11      1.0000 0.71580  0.11240  0.00000  Biso   1.000  H
  C12      1.0000 0.74390  0.18160  0.00000  Biso   1.000  C
  H12      1.0000 0.77650  0.17260  0.00000  Biso   1.000  H
  O7       1.0000 0.13640  0.57710  0.00000  Biso   1.000  O
  C13      1.0000 0.20740  0.64510  0.00000  Biso   1.000  C
  H13      1.0000 0.21580  0.61240  0.00000  Biso   1.000  H
  C14      1.0000 0.24390  0.68160  0.00000  Biso   1.000  C
  H14      1.0000 0.27650  0.67260  0.00000  Biso   1.000  H
  O8       1.0000 0.13640  0.07710  0.50000  Biso   1.000  O
  C15      1.0000 0.20740  0.14510  0.50000  Biso   1.000  C
  H15      1.0000 0.21580  0.11240  0.50000  Biso   1.000  H
  C16      1.0000 0.24390  0.18160  0.50000  Biso   1.000  C
  H16      1.0000 0.27650  0.17260  0.50000  Biso   1.000  H
  O9       1.0000 0.63640  0.42290  0.50000  Biso   1.000  O
  C17      1.0000 0.70740  0.35490  0.50000  Biso   1.000  C
  H17      1.0000 0.71580  0.38760  0.50000  Biso   1.000  H
  C18      1.0000 0.74390  0.31840  0.50000  Biso   1.000  C
  H18      1.0000 0.77650  0.32740  0.50000  Biso   1.000  H
  O10      1.0000 0.63640  0.92290  0.00000  Biso   1.000  O
  C19      1.0000 0.70740  0.85490  0.00000  Biso   1.000  C
  H19      1.0000 0.71580  0.88760  0.00000  Biso   1.000  H
  C20      1.0000 0.74390  0.81840  0.00000  Biso   1.000  C
  H20      1.0000 0.77650  0.82740  0.00000  Biso   1.000  H
  O11      1.0000 0.13640  0.42290  0.00000  Biso   1.000  O
  C21      1.0000 0.20740  0.35490  0.00000  Biso   1.000  C
  H21      1.0000 0.21580  0.38760  0.00000  Biso   1.000  H
  C22      1.0000 0.24390  0.31840  0.00000  Biso   1.000  C
  H22      1.0000 0.27650  0.32740  0.00000  Biso   1.000  H
  O12      1.0000 0.13640  0.92290  0.50000  Biso   1.000  O
  C23      1.0000 0.20740  0.85490  0.50000  Biso   1.000  C
  H23      1.0000 0.21580  0.88760  0.50000  Biso   1.000  H
  C24      1.0000 0.24390  0.81840  0.50000  Biso   1.000  C
  H24      1.0000 0.27650  0.82740  0.50000  Biso   1.000  H
  O13      1.0000 0.36360  0.57710  0.50000  Biso   1.000  O
  C25      1.0000 0.29260  0.64510  0.50000  Biso   1.000  C
  H25      1.0000 0.28420  0.61240  0.50000  Biso   1.000  H
  C26      1.0000 0.25610  0.68160  0.50000  Biso   1.000  C
  H26      1.0000 0.22350  0.67260  0.50000  Biso   1.000  H
  O14      1.0000 0.36360  0.07710  0.00000  Biso   1.000  O
  C27      1.0000 0.29260  0.14510  0.00000  Biso   1.000  C
  H27      1.0000 0.28420  0.11240  0.00000  Biso   1.000  H
  C28      1.0000 0.25610  0.18160  0.00000  Biso   1.000  C
  H28      1.0000 0.22350  0.17260  0.00000  Biso   1.000  H
  O15      1.0000 0.86360  0.57710  0.00000  Biso   1.000  O
  C29      1.0000 0.79260  0.64510  0.00000  Biso   1.000  C
  H29      1.0000 0.78420  0.61240  0.00000  Biso   1.000  H
  C30      1.0000 0.75610  0.68160  0.00000  Biso   1.000  C
  H30      1.0000 0.72350  0.67260  0.00000  Biso   1.000  H
  O16      1.0000 0.86360  0.07710  0.50000  Biso   1.000  O
  C31      1.0000 0.79260  0.14510  0.50000  Biso   1.000  C
  H31      1.0000 0.78420  0.11240  0.50000  Biso   1.000  H
  C32      1.0000 0.75610  0.18160  0.50000  Biso   1.000  C
  H32      1.0000 0.72350  0.17260  0.50000  Biso   1.000  H
  O17      1.0000 0.50000  0.36360  0.42290  Biso   1.000  O
  C33      1.0000 0.50000  0.29260  0.35490  Biso   1.000  C
  H33      1.0000 0.50000  0.28420  0.38760  Biso   1.000  H
  C34      1.0000 0.50000  0.25610  0.31840  Biso   1.000  C
  H34      1.0000 0.50000  0.22350  0.32740  Biso   1.000  H
  O18      1.0000 0.50000  0.86360  0.92290  Biso   1.000  O
  C35      1.0000 0.50000  0.79260  0.85490  Biso   1.000  C
  H35      1.0000 0.50000  0.78420  0.88760  Biso   1.000  H
  C36      1.0000 0.50000  0.75610  0.81840  Biso   1.000  C
  H36      1.0000 0.50000  0.72350  0.82740  Biso   1.000  H
  O19      1.0000 0.00000  0.36360  0.92290  Biso   1.000  O
  C37      1.0000 0.00000  0.29260  0.85490  Biso   1.000  C
  H37      1.0000 0.00000  0.28420  0.88760  Biso   1.000  H
  C38      1.0000 0.00000  0.25610  0.81840  Biso   1.000  C
  H38      1.0000 0.00000  0.22350  0.82740  Biso   1.000  H
  O20      1.0000 0.00000  0.86360  0.42290  Biso   1.000  O
  C39      1.0000 0.00000  0.79260  0.35490  Biso   1.000  C
  H39      1.0000 0.00000  0.78420  0.38760  Biso   1.000  H
  C40      1.0000 0.00000  0.75610  0.31840  Biso   1.000  C
  H40      1.0000 0.00000  0.72350  0.32740  Biso   1.000  H
  O21      1.0000 0.50000  0.63640  0.57710  Biso   1.000  O
  C41      1.0000 0.50000  0.70740  0.64510  Biso   1.000  C
  H41      1.0000 0.50000  0.71580  0.61240  Biso   1.000  H
  C42      1.0000 0.50000  0.74390  0.68160  Biso   1.000  C
  H42      1.0000 0.50000  0.77650  0.67260  Biso   1.000  H
  O22      1.0000 0.50000  0.13640  0.07710  Biso   1.000  O
  C43      1.0000 0.50000  0.20740  0.14510  Biso   1.000  C
  H43      1.0000 0.50000  0.21580  0.11240  Biso   1.000  H
  C44      1.0000 0.50000  0.24390  0.18160  Biso   1.000  C
  H44      1.0000 0.50000  0.27650  0.17260  Biso   1.000  H
  O23      1.0000 0.00000  0.63640  0.07710  Biso   1.000  O
  C45      1.0000 0.00000  0.70740  0.14510  Biso   1.000  C
  H45      1.0000 0.00000  0.71580  0.11240  Biso   1.000  H
  C46      1.0000 0.00000  0.74390  0.18160  Biso   1.000  C
  H46      1.0000 0.00000  0.77650  0.17260  Biso   1.000  H
  O24      1.0000 0.00000  0.13640  0.57710  Biso   1.000  O
  C47      1.0000 0.00000  0.20740  0.64510  Biso   1.000  C
  H47      1.0000 0.00000  0.21580  0.61240  Biso   1.000  H
  C48      1.0000 0.00000  0.24390  0.68160  Biso   1.000  C
  H48      1.0000 0.00000  0.27650  0.67260  Biso   1.000  H
  O25      1.0000 0.50000  0.63640  0.42290  Biso   1.000  O
  C49      1.0000 0.50000  0.70740  0.35490  Biso   1.000  C
  H49      1.0000 0.50000  0.71580  0.38760  Biso   1.000  H
  C50      1.0000 0.50000  0.74390  0.31840  Biso   1.000  C
  H50      1.0000 0.50000  0.77650  0.32740  Biso   1.000  H
  O26      1.0000 0.50000  0.13640  0.92290  Biso   1.000  O
  C51      1.0000 0.50000  0.20740  0.85490  Biso   1.000  C
  H51      1.0000 0.50000  0.21580  0.88760  Biso   1.000  H
  C52      1.0000 0.50000  0.24390  0.81840  Biso   1.000  C
  H52      1.0000 0.50000  0.27650  0.82740  Biso   1.000  H
  O27      1.0000 0.00000  0.63640  0.92290  Biso   1.000  O
  C53      1.0000 0.00000  0.70740  0.85490  Biso   1.000  C
  H53      1.0000 0.00000  0.71580  0.88760  Biso   1.000  H
  C54      1.0000 0.00000  0.74390  0.81840  Biso   1.000  C
  H54      1.0000 0.00000  0.77650  0.82740  Biso   1.000  H
  O28      1.0000 0.00000  0.13640  0.42290  Biso   1.000  O
  C55      1.0000 0.00000  0.20740  0.35490  Biso   1.000  C
  H55      1.0000 0.00000  0.21580  0.38760  Biso   1.000  H
  C56      1.0000 0.00000  0.24390  0.31840  Biso   1.000  C
  H56      1.0000 0.00000  0.27650  0.32740  Biso   1.000  H
  O29      1.0000 0.50000  0.36360  0.57710  Biso   1.000  O
  C57      1.0000 0.50000  0.29260  0.64510  Biso   1.000  C
  H57      1.0000 0.50000  0.28420  0.61240  Biso   1.000  H
  C58      1.0000 0.50000  0.25610  0.68160  Biso   1.000  C
  H58      1.0000 0.50000  0.22350  0.67260  Biso   1.000  H
  O30      1.0000 0.50000  0.86360  0.07710  Biso   1.000  O
  C59      1.0000 0.50000  0.79260  0.14510  Biso   1.000  C
  H59      1.0000 0.50000  0.78420  0.11240  Biso   1.000  H
  C60      1.0000 0.50000  0.75610  0.18160  Biso   1.000  C
  H60      1.0000 0.50000  0.72350  0.17260  Biso   1.000  H
  O31      1.0000 0.00000  0.36360  0.07710  Biso   1.000  O
  C61      1.0000 0.00000  0.29260  0.14510  Biso   1.000  C
  H61      1.0000 0.00000  0.28420  0.11240  Biso   1.000  H
  C62      1.0000 0.00000  0.25610  0.18160  Biso   1.000  C
  H62      1.0000 0.00000  0.22350  0.17260  Biso   1.000  H
  O32      1.0000 0.00000  0.86360  0.57710  Biso   1.000  O
  C63      1.0000 0.00000  0.79260  0.64510  Biso   1.000  C
  H63      1.0000 0.00000  0.78420  0.61240  Biso   1.000  H
  C64      1.0000 0.00000  0.75610  0.68160  Biso   1.000  C
  H64      1.0000 0.00000  0.72350  0.67260  Biso   1.000  H
  O33      1.0000 0.42290  0.50000  0.36360  Biso   1.000  O
  C65      1.0000 0.35490  0.50000  0.29260  Biso   1.000  C
  H65      1.0000 0.38760  0.50000  0.28420  Biso   1.000  H
  C66      1.0000 0.31840  0.50000  0.25610  Biso   1.000  C
  H66      1.0000 0.32740  0.50000  0.22350  Biso   1.000  H
  O34      1.0000 0.42290  0.00000  0.86360  Biso   1.000  O
  C67      1.0000 0.35490  0.00000  0.79260  Biso   1.000  C
  H67      1.0000 0.38760  0.00000  0.78420  Biso   1.000  H
  C68      1.0000 0.31840  0.00000  0.75610  Biso   1.000  C
  H68      1.0000 0.32740  0.00000  0.72350  Biso   1.000  H
  O35      1.0000 0.92290  0.50000  0.86360  Biso   1.000  O
  C69      1.0000 0.85490  0.50000  0.79260  Biso   1.000  C
  H69      1.0000 0.88760  0.50000  0.78420  Biso   1.000  H
  C70      1.0000 0.81840  0.50000  0.75610  Biso   1.000  C
  H70      1.0000 0.82740  0.50000  0.72350  Biso   1.000  H
  O36      1.0000 0.92290  0.00000  0.36360  Biso   1.000  O
  C71      1.0000 0.85490  0.00000  0.29260  Biso   1.000  C
  H71      1.0000 0.88760  0.00000  0.28420  Biso   1.000  H
  C72      1.0000 0.81840  0.00000  0.25610  Biso   1.000  C
  H72      1.0000 0.82740  0.00000  0.22350  Biso   1.000  H
  O37      1.0000 0.57710  0.50000  0.63640  Biso   1.000  O
  C73      1.0000 0.64510  0.50000  0.70740  Biso   1.000  C
  H73      1.0000 0.61240  0.50000  0.71580  Biso   1.000  H
  C74      1.0000 0.68160  0.50000  0.74390  Biso   1.000  C
  H74      1.0000 0.67260  0.50000  0.77650  Biso   1.000  H
  O38      1.0000 0.57710  0.00000  0.13640  Biso   1.000  O
  C75      1.0000 0.64510  0.00000  0.20740  Biso   1.000  C
  H75      1.0000 0.61240  0.00000  0.21580  Biso   1.000  H
  C76      1.0000 0.68160  0.00000  0.24390  Biso   1.000  C
  H76      1.0000 0.67260  0.00000  0.27650  Biso   1.000  H
  O39      1.0000 0.07710  0.50000  0.13640  Biso   1.000  O
  C77      1.0000 0.14510  0.50000  0.20740  Biso   1.000  C
  H77      1.0000 0.11240  0.50000  0.21580  Biso   1.000  H
  C78      1.0000 0.18160  0.50000  0.24390  Biso   1.000  C
  H78      1.0000 0.17260  0.50000  0.27650  Biso   1.000  H
  O40      1.0000 0.07710  0.00000  0.63640  Biso   1.000  O
  C79      1.0000 0.14510  0.00000  0.70740  Biso   1.000  C
  H79      1.0000 0.11240  0.00000  0.71580  Biso   1.000  H
  C80      1.0000 0.18160  0.00000  0.74390  Biso   1.000  C
  H80      1.0000 0.17260  0.00000  0.77650  Biso   1.000  H
  O41      1.0000 0.42290  0.50000  0.63640  Biso   1.000  O
  C81      1.0000 0.35490  0.50000  0.70740  Biso   1.000  C
  H81      1.0000 0.38760  0.50000  0.71580  Biso   1.000  H
  C82      1.0000 0.31840  0.50000  0.74390  Biso   1.000  C
  H82      1.0000 0.32740  0.50000  0.77650  Biso   1.000  H
  O42      1.0000 0.42290  0.00000  0.13640  Biso   1.000  O
  C83      1.0000 0.35490  0.00000  0.20740  Biso   1.000  C
  H83      1.0000 0.38760  0.00000  0.21580  Biso   1.000  H
  C84      1.0000 0.31840  0.00000  0.24390  Biso   1.000  C
  H84      1.0000 0.32740  0.00000  0.27650  Biso   1.000  H
  O43      1.0000 0.92290  0.50000  0.13640  Biso   1.000  O
  C85      1.0000 0.85490  0.50000  0.20740  Biso   1.000  C
  H85      1.0000 0.88760  0.50000  0.21580  Biso   1.000  H
  C86      1.0000 0.81840  0.50000  0.24390  Biso   1.000  C
  H86      1.0000 0.82740  0.50000  0.27650  Biso   1.000  H
  O44      1.0000 0.92290  0.00000  0.63640  Biso   1.000  O
  C87      1.0000 0.85490  0.00000  0.70740  Biso   1.000  C
  H87      1.0000 0.88760  0.00000  0.71580  Biso   1.000  H
  C88      1.0000 0.81840  0.00000  0.74390  Biso   1.000  C
  H88      1.0000 0.82740  0.00000  0.77650  Biso   1.000  H
  O45      1.0000 0.57710  0.50000  0.36360  Biso   1.000  O
  C89      1.0000 0.64510  0.50000  0.29260  Biso   1.000  C
  H89      1.0000 0.61240  0.50000  0.28420  Biso   1.000  H
  C90      1.0000 0.68160  0.50000  0.25610  Biso   1.000  C
  H90      1.0000 0.67260  0.50000  0.22350  Biso   1.000  H
  O46      1.0000 0.57710  0.00000  0.86360  Biso   1.000  O
  C91      1.0000 0.64510  0.00000  0.79260  Biso   1.000  C
  H91      1.0000 0.61240  0.00000  0.78420  Biso   1.000  H
  C92      1.0000 0.68160  0.00000  0.75610  Biso   1.000  C
  H92      1.0000 0.67260  0.00000  0.72350  Biso   1.000  H
  O47      1.0000 0.07710  0.50000  0.86360  Biso   1.000  O
  C93      1.0000 0.14510  0.50000  0.79260  Biso   1.000  C
  H93      1.0000 0.11240  0.50000  0.78420  Biso   1.000  H
  C94      1.0000 0.18160  0.50000  0.75610  Biso   1.000  C
  H94      1.0000 0.17260  0.50000  0.72350  Biso   1.000  H
  O48      1.0000 0.07710  0.00000  0.36360  Biso   1.000  O
  C95      1.0000 0.14510  0.00000  0.29260  Biso   1.000  C
  H95      1.0000 0.11240  0.00000  0.28420  Biso   1.000  H
  C96      1.0000 0.18160  0.00000  0.25610  Biso   1.000  C
  H96      1.0000 0.17260  0.00000  0.22350  Biso   1.000  H
  O49      1.0000 0.42290  0.36360  0.50000  Biso   1.000  O
  C97      1.0000 0.35490  0.29260  0.50000  Biso   1.000  C
  H97      1.0000 0.38760  0.28420  0.50000  Biso   1.000  H
  C98      1.0000 0.31840  0.25610  0.50000  Biso   1.000  C
  H98      1.0000 0.32740  0.22350  0.50000  Biso   1.000  H
  O50      1.0000 0.42290  0.86360  0.00000  Biso   1.000  O
  C99      1.0000 0.35490  0.79260  0.00000  Biso   1.000  C
  H99      1.0000 0.38760  0.78420  0.00000  Biso   1.000  H
  C100     1.0000 0.31840  0.75610  0.00000  Biso   1.000  C
  H100     1.0000 0.32740  0.72350  0.00000  Biso   1.000  H
  O51      1.0000 0.92290  0.36360  0.00000  Biso   1.000  O
  C101     1.0000 0.85490  0.29260  0.00000  Biso   1.000  C
  H101     1.0000 0.88760  0.28420  0.00000  Biso   1.000  H
  C102     1.0000 0.81840  0.25610  0.00000  Biso   1.000  C
  H102     1.0000 0.82740  0.22350  0.00000  Biso   1.000  H
  O52      1.0000 0.92290  0.86360  0.50000  Biso   1.000  O
  C103     1.0000 0.85490  0.79260  0.50000  Biso   1.000  C
  H103     1.0000 0.88760  0.78420  0.50000  Biso   1.000  H
  C104     1.0000 0.81840  0.75610  0.50000  Biso   1.000  C
  H104     1.0000 0.82740  0.72350  0.50000  Biso   1.000  H
  O53      1.0000 0.57710  0.63640  0.50000  Biso   1.000  O
  C105     1.0000 0.64510  0.70740  0.50000  Biso   1.000  C
  H105     1.0000 0.61240  0.71580  0.50000  Biso   1.000  H
  C106     1.0000 0.68160  0.74390  0.50000  Biso   1.000  C
  H106     1.0000 0.67260  0.77650  0.50000  Biso   1.000  H
  O54      1.0000 0.57710  0.13640  0.00000  Biso   1.000  O
  C107     1.0000 0.64510  0.20740  0.00000  Biso   1.000  C
  H107     1.0000 0.61240  0.21580  0.00000  Biso   1.000  H
  C108     1.0000 0.68160  0.24390  0.00000  Biso   1.000  C
  H108     1.0000 0.67260  0.27650  0.00000  Biso   1.000  H
  O55      1.0000 0.07710  0.63640  0.00000  Biso   1.000  O
  C109     1.0000 0.14510  0.70740  0.00000  Biso   1.000  C
  H109     1.0000 0.11240  0.71580  0.00000  Biso   1.000  H
  C110     1.0000 0.18160  0.74390  0.00000  Biso   1.000  C
  H110     1.0000 0.17260  0.77650  0.00000  Biso   1.000  H
  O56      1.0000 0.07710  0.13640  0.50000  Biso   1.000  O
  C111     1.0000 0.14510  0.20740  0.50000  Biso   1.000  C
  H111     1.0000 0.11240  0.21580  0.50000  Biso   1.000  H
  C112     1.0000 0.18160  0.24390  0.50000  Biso   1.000  C
  H112     1.0000 0.17260  0.27650  0.50000  Biso   1.000  H
  O57      1.0000 0.42290  0.63640  0.50000  Biso   1.000  O
  C113     1.0000 0.35490  0.70740  0.50000  Biso   1.000  C
  H113     1.0000 0.38760  0.71580  0.50000  Biso   1.000  H
  C114     1.0000 0.31840  0.74390  0.50000  Biso   1.000  C
  H114     1.0000 0.32740  0.77650  0.50000  Biso   1.000  H
  O58      1.0000 0.42290  0.13640  0.00000  Biso   1.000  O
  C115     1.0000 0.35490  0.20740  0.00000  Biso   1.000  C
  H115     1.0000 0.38760  0.21580  0.00000  Biso   1.000  H
  C116     1.0000 0.31840  0.24390  0.00000  Biso   1.000  C
  H116     1.0000 0.32740  0.27650  0.00000  Biso   1.000  H
  O59      1.0000 0.92290  0.63640  0.00000  Biso   1.000  O
  C117     1.0000 0.85490  0.70740  0.00000  Biso   1.000  C
  H117     1.0000 0.88760  0.71580  0.00000  Biso   1.000  H
  C118     1.0000 0.81840  0.74390  0.00000  Biso   1.000  C
  H118     1.0000 0.82740  0.77650  0.00000  Biso   1.000  H
  O60      1.0000 0.92290  0.13640  0.50000  Biso   1.000  O
  C119     1.0000 0.85490  0.20740  0.50000  Biso   1.000  C
  H119     1.0000 0.88760  0.21580  0.50000  Biso   1.000  H
  C120     1.0000 0.81840  0.24390  0.50000  Biso   1.000  C
  H120     1.0000 0.82740  0.27650  0.50000  Biso   1.000  H
  O61      1.0000 0.57710  0.36360  0.50000  Biso   1.000  O
  C121     1.0000 0.64510  0.29260  0.50000  Biso   1.000  C
  H121     1.0000 0.61240  0.28420  0.50000  Biso   1.000  H
  C122     1.0000 0.68160  0.25610  0.50000  Biso   1.000  C
  H122     1.0000 0.67260  0.22350  0.50000  Biso   1.000  H
  O62      1.0000 0.57710  0.86360  0.00000  Biso   1.000  O
  C123     1.0000 0.64510  0.79260  0.00000  Biso   1.000  C
  H123     1.0000 0.61240  0.78420  0.00000  Biso   1.000  H
  C124     1.0000 0.68160  0.75610  0.00000  Biso   1.000  C
  H124     1.0000 0.67260  0.72350  0.00000  Biso   1.000  H
  O63      1.0000 0.07710  0.36360  0.00000  Biso   1.000  O
  C125     1.0000 0.14510  0.29260  0.00000  Biso   1.000  C
  H125     1.0000 0.11240  0.28420  0.00000  Biso   1.000  H
  C126     1.0000 0.18160  0.25610  0.00000  Biso   1.000  C
  H126     1.0000 0.17260  0.22350  0.00000  Biso   1.000  H
  O64      1.0000 0.07710  0.86360  0.50000  Biso   1.000  O
  C127     1.0000 0.14510  0.79260  0.50000  Biso   1.000  C
  H127     1.0000 0.11240  0.78420  0.50000  Biso   1.000  H
  C128     1.0000 0.18160  0.75610  0.50000  Biso   1.000  C
  H128     1.0000 0.17260  0.72350  0.50000  Biso   1.000  H
  O65      1.0000 0.36360  0.50000  0.57710  Biso   1.000  O
  C129     1.0000 0.29260  0.50000  0.64510  Biso   1.000  C
  H129     1.0000 0.28420  0.50000  0.61240  Biso   1.000  H
  C130     1.0000 0.25610  0.50000  0.68160  Biso   1.000  C
  H130     1.0000 0.22350  0.50000  0.67260  Biso   1.000  H
  O66      1.0000 0.36360  0.00000  0.07710  Biso   1.000  O
  C131     1.0000 0.29260  0.00000  0.14510  Biso   1.000  C
  H131     1.0000 0.28420  0.00000  0.11240  Biso   1.000  H
  C132     1.0000 0.25610  0.00000  0.18160  Biso   1.000  C
  H132     1.0000 0.22350  0.00000  0.17260  Biso   1.000  H
  O67      1.0000 0.86360  0.50000  0.07710  Biso   1.000  O
  C133     1.0000 0.79260  0.50000  0.14510  Biso   1.000  C
  H133     1.0000 0.78420  0.50000  0.11240  Biso   1.000  H
  C134     1.0000 0.75610  0.50000  0.18160  Biso   1.000  C
  H134     1.0000 0.72350  0.50000  0.17260  Biso   1.000  H
  O68      1.0000 0.86360  0.00000  0.57710  Biso   1.000  O
  C135     1.0000 0.79260  0.00000  0.64510  Biso   1.000  C
  H135     1.0000 0.78420  0.00000  0.61240  Biso   1.000  H
  C136     1.0000 0.75610  0.00000  0.68160  Biso   1.000  C
  H136     1.0000 0.72350  0.00000  0.67260  Biso   1.000  H
  O69      1.0000 0.63640  0.50000  0.42290  Biso   1.000  O
  C137     1.0000 0.70740  0.50000  0.35490  Biso   1.000  C
  H137     1.0000 0.71580  0.50000  0.38760  Biso   1.000  H
  C138     1.0000 0.74390  0.50000  0.31840  Biso   1.000  C
  H138     1.0000 0.77650  0.50000  0.32740  Biso   1.000  H
  O70      1.0000 0.63640  0.00000  0.92290  Biso   1.000  O
  C139     1.0000 0.70740  0.00000  0.85490  Biso   1.000  C
  H139     1.0000 0.71580  0.00000  0.88760  Biso   1.000  H
  C140     1.0000 0.74390  0.00000  0.81840  Biso   1.000  C
  H140     1.0000 0.77650  0.00000  0.82740  Biso   1.000  H
  O71      1.0000 0.13640  0.50000  0.92290  Biso   1.000  O
  C141     1.0000 0.20740  0.50000  0.85490  Biso   1.000  C
  H141     1.0000 0.21580  0.50000  0.88760  Biso   1.000  H
  C142     1.0000 0.24390  0.50000  0.81840  Biso   1.000  C
  H142     1.0000 0.27650  0.50000  0.82740  Biso   1.000  H
  O72      1.0000 0.13640  0.00000  0.42290  Biso   1.000  O
  C143     1.0000 0.20740  0.00000  0.35490  Biso   1.000  C
  H143     1.0000 0.21580  0.00000  0.38760  Biso   1.000  H
  C144     1.0000 0.24390  0.00000  0.31840  Biso   1.000  C
  H144     1.0000 0.27650  0.00000  0.32740  Biso   1.000  H
  O73      1.0000 0.63640  0.50000  0.57710  Biso   1.000  O
  C145     1.0000 0.70740  0.50000  0.64510  Biso   1.000  C
  H145     1.0000 0.71580  0.50000  0.61240  Biso   1.000  H
  C146     1.0000 0.74390  0.50000  0.68160  Biso   1.000  C
  H146     1.0000 0.77650  0.50000  0.67260  Biso   1.000  H
  O74      1.0000 0.63640  0.00000  0.07710  Biso   1.000  O
  C147     1.0000 0.70740  0.00000  0.14510  Biso   1.000  C
  H147     1.0000 0.71580  0.00000  0.11240  Biso   1.000  H
  C148     1.0000 0.74390  0.00000  0.18160  Biso   1.000  C
  H148     1.0000 0.77650  0.00000  0.17260  Biso   1.000  H
  O75      1.0000 0.13640  0.50000  0.07710  Biso   1.000  O
  C149     1.0000 0.20740  0.50000  0.14510  Biso   1.000  C
  H149     1.0000 0.21580  0.50000  0.11240  Biso   1.000  H
  C150     1.0000 0.24390  0.50000  0.18160  Biso   1.000  C
  H150     1.0000 0.27650  0.50000  0.17260  Biso   1.000  H
  O76      1.0000 0.13640  0.00000  0.57710  Biso   1.000  O
  C151     1.0000 0.20740  0.00000  0.64510  Biso   1.000  C
  H151     1.0000 0.21580  0.00000  0.61240  Biso   1.000  H
  C152     1.0000 0.24390  0.00000  0.68160  Biso   1.000  C
  H152     1.0000 0.27650  0.00000  0.67260  Biso   1.000  H
  O77      1.0000 0.36360  0.50000  0.42290  Biso   1.000  O
  C153     1.0000 0.29260  0.50000  0.35490  Biso   1.000  C
  H153     1.0000 0.28420  0.50000  0.38760  Biso   1.000  H
  C154     1.0000 0.25610  0.50000  0.31840  Biso   1.000  C
  H154     1.0000 0.22350  0.50000  0.32740  Biso   1.000  H
  O78      1.0000 0.36360  0.00000  0.92290  Biso   1.000  O
  C155     1.0000 0.29260  0.00000  0.85490  Biso   1.000  C
  H155     1.0000 0.28420  0.00000  0.88760  Biso   1.000  H
  C156     1.0000 0.25610  0.00000  0.81840  Biso   1.000  C
  H156     1.0000 0.22350  0.00000  0.82740  Biso   1.000  H
  O79      1.0000 0.86360  0.50000  0.92290  Biso   1.000  O
  C157     1.0000 0.79260  0.50000  0.85490  Biso   1.000  C
  H157     1.0000 0.78420  0.50000  0.88760  Biso   1.000  H
  C158     1.0000 0.75610  0.50000  0.81840  Biso   1.000  C
  H158     1.0000 0.72350  0.50000  0.82740  Biso   1.000  H
  O80      1.0000 0.86360  0.00000  0.42290  Biso   1.000  O
  C159     1.0000 0.79260  0.00000  0.35490  Biso   1.000  C
  H159     1.0000 0.78420  0.00000  0.38760  Biso   1.000  H
  C160     1.0000 0.75610  0.00000  0.31840  Biso   1.000  C
  H160     1.0000 0.72350  0.00000  0.32740  Biso   1.000  H
  O81      1.0000 0.50000  0.42290  0.63640  Biso   1.000  O
  C161     1.0000 0.50000  0.35490  0.70740  Biso   1.000  C
  H161     1.0000 0.50000  0.38760  0.71580  Biso   1.000  H
  C162     1.0000 0.50000  0.31840  0.74390  Biso   1.000  C
  H162     1.0000 0.50000  0.32740  0.77650  Biso   1.000  H
  O82      1.0000 0.50000  0.92290  0.13640  Biso   1.000  O
  C163     1.0000 0.50000  0.85490  0.20740  Biso   1.000  C
  H163     1.0000 0.50000  0.88760  0.21580  Biso   1.000  H
  C164     1.0000 0.50000  0.81840  0.24390  Biso   1.000  C
  H164     1.0000 0.50000  0.82740  0.27650  Biso   1.000  H
  O83      1.0000 0.00000  0.42290  0.13640  Biso   1.000  O
  C165     1.0000 0.00000  0.35490  0.20740  Biso   1.000  C
  H165     1.0000 0.00000  0.38760  0.21580  Biso   1.000  H
  C166     1.0000 0.00000  0.31840  0.24390  Biso   1.000  C
  H166     1.0000 0.00000  0.32740  0.27650  Biso   1.000  H
  O84      1.0000 0.00000  0.92290  0.63640  Biso   1.000  O
  C167     1.0000 0.00000  0.85490  0.70740  Biso   1.000  C
  H167     1.0000 0.00000  0.88760  0.71580  Biso   1.000  H
  C168     1.0000 0.00000  0.81840  0.74390  Biso   1.000  C
  H168     1.0000 0.00000  0.82740  0.77650  Biso   1.000  H
  O85      1.0000 0.50000  0.57710  0.36360  Biso   1.000  O
  C169     1.0000 0.50000  0.64510  0.29260  Biso   1.000  C
  H169     1.0000 0.50000  0.61240  0.28420  Biso   1.000  H
  C170     1.0000 0.50000  0.68160  0.25610  Biso   1.000  C
  H170     1.0000 0.50000  0.67260  0.22350  Biso   1.000  H
  O86      1.0000 0.50000  0.07710  0.86360  Biso   1.000  O
  C171     1.0000 0.50000  0.14510  0.79260  Biso   1.000  C
  H171     1.0000 0.50000  0.11240  0.78420  Biso   1.000  H
  C172     1.0000 0.50000  0.18160  0.75610  Biso   1.000  C
  H172     1.0000 0.50000  0.17260  0.72350  Biso   1.000  H
  O87      1.0000 0.00000  0.57710  0.86360  Biso   1.000  O
  C173     1.0000 0.00000  0.64510  0.79260  Biso   1.000  C
  H173     1.0000 0.00000  0.61240  0.78420  Biso   1.000  H
  C174     1.0000 0.00000  0.68160  0.75610  Biso   1.000  C
  H174     1.0000 0.00000  0.67260  0.72350  Biso   1.000  H
  O88      1.0000 0.00000  0.07710  0.36360  Biso   1.000  O
  C175     1.0000 0.00000  0.14510  0.29260  Biso   1.000  C
  H175     1.0000 0.00000  0.11240  0.28420  Biso   1.000  H
  C176     1.0000 0.00000  0.18160  0.25610  Biso   1.000  C
  H176     1.0000 0.00000  0.17260  0.22350  Biso   1.000  H
  O89      1.0000 0.50000  0.42290  0.36360  Biso   1.000  O
  C177     1.0000 0.50000  0.35490  0.29260  Biso   1.000  C
  H177     1.0000 0.50000  0.38760  0.28420  Biso   1.000  H
  C178     1.0000 0.50000  0.31840  0.25610  Biso   1.000  C
  H178     1.0000 0.50000  0.32740  0.22350  Biso   1.000  H
  O90      1.0000 0.50000  0.92290  0.86360  Biso   1.000  O
  C179     1.0000 0.50000  0.85490  0.79260  Biso   1.000  C
  H179     1.0000 0.50000  0.88760  0.78420  Biso   1.000  H
  C180     1.0000 0.50000  0.81840  0.75610  Biso   1.000  C
  H180     1.0000 0.50000  0.82740  0.72350  Biso   1.000  H
  O91      1.0000 0.00000  0.42290  0.86360  Biso   1.000  O
  C181     1.0000 0.00000  0.35490  0.79260  Biso   1.000  C
  H181     1.0000 0.00000  0.38760  0.78420  Biso   1.000  H
  C182     1.0000 0.00000  0.31840  0.75610  Biso   1.000  C
  H182     1.0000 0.00000  0.32740  0.72350  Biso   1.000  H
  O92      1.0000 0.00000  0.92290  0.36360  Biso   1.000  O
  C183     1.0000 0.00000  0.85490  0.29260  Biso   1.000  C
  H183     1.0000 0.00000  0.88760  0.28420  Biso   1.000  H
  C184     1.0000 0.00000  0.81840  0.25610  Biso   1.000  C
  H184     1.0000 0.00000  0.82740  0.22350  Biso   1.000  H
  O93      1.0000 0.50000  0.57710  0.63640  Biso   1.000  O
  C185     1.0000 0.50000  0.64510  0.70740  Biso   1.000  C
  H185     1.0000 0.50000  0.61240  0.71580  Biso   1.000  H
  C186     1.0000 0.50000  0.68160  0.74390  Biso   1.000  C
  H186     1.0000 0.50000  0.67260  0.77650  Biso   1.000  H
  O94      1.0000 0.50000  0.07710  0.13640  Biso   1.000  O
  C187     1.0000 0.50000  0.14510  0.20740  Biso   1.000  C
  H187     1.0000 0.50000  0.11240  0.21580  Biso   1.000  H
  C188     1.0000 0.50000  0.18160  0.24390  Biso   1.000  C
  H188     1.0000 0.50000  0.17260  0.27650  Biso   1.000  H
  O95      1.0000 0.00000  0.57710  0.13640  Biso   1.000  O
  C189     1.0000 0.00000  0.64510  0.20740  Biso   1.000  C
  H189     1.0000 0.00000  0.61240  0.21580  Biso   1.000  H
  C190     1.0000 0.00000  0.68160  0.24390  Biso   1.000  C
  H190     1.0000 0.00000  0.67260  0.27650  Biso   1.000  H
  O96      1.0000 0.00000  0.07710  0.63640  Biso   1.000  O
  C191     1.0000 0.00000  0.14510  0.70740  Biso   1.000  C
  H191     1.0000 0.00000  0.11240  0.71580  Biso   1.000  H
  C192     1.0000 0.00000  0.18160  0.74390  Biso   1.000  C
  H192     1.0000 0.00000  0.17260  0.77650  Biso   1.000  H
  O97      1.0000 0.45351  0.45351  0.45351  Biso   1.000  O
  H193     1.0000 0.43570  0.43570  0.43570  Biso   1.000  H
  O98      1.0000 0.45351  0.95351  0.95351  Biso   1.000  O
  H194     1.0000 0.43570  0.93570  0.93570  Biso   1.000  H
  O99      1.0000 0.95351  0.45351  0.95351  Biso   1.000  O
  H195     1.0000 0.93570  0.43570  0.93570  Biso   1.000  H
  O100     1.0000 0.95351  0.95351  0.45351  Biso   1.000  O
  H196     1.0000 0.93570  0.93570  0.43570  Biso   1.000  H
  O101     1.0000 0.54649  0.54649  0.45351  Biso   1.000  O
  H197     1.0000 0.56430  0.56430  0.43570  Biso   1.000  H
  O102     1.0000 0.54649  0.04649  0.95351  Biso   1.000  O
  H198     1.0000 0.56430  0.06430  0.93570  Biso   1.000  H
  O103     1.0000 0.04649  0.54649  0.95351  Biso   1.000  O
  H199     1.0000 0.06430  0.56430  0.93570  Biso   1.000  H
  O104     1.0000 0.04649  0.04649  0.45351  Biso   1.000  O
  H200     1.0000 0.06430  0.06430  0.43570  Biso   1.000  H
  O105     1.0000 0.54649  0.45351  0.54649  Biso   1.000  O
  H201     1.0000 0.56430  0.43570  0.56430  Biso   1.000  H
  O106     1.0000 0.54649  0.95351  0.04649  Biso   1.000  O
  H202     1.0000 0.56430  0.93570  0.06430  Biso   1.000  H
  O107     1.0000 0.04649  0.45351  0.04649  Biso   1.000  O
  H203     1.0000 0.06430  0.43570  0.06430  Biso   1.000  H
  O108     1.0000 0.04649  0.95351  0.54649  Biso   1.000  O
  H204     1.0000 0.06430  0.93570  0.56430  Biso   1.000  H
  O109     1.0000 0.45351  0.54649  0.54649  Biso   1.000  O
  H205     1.0000 0.43570  0.56430  0.56430  Biso   1.000  H
  O110     1.0000 0.45351  0.04649  0.04649  Biso   1.000  O
  H206     1.0000 0.43570  0.06430  0.06430  Biso   1.000  H
  O111     1.0000 0.95351  0.54649  0.04649  Biso   1.000  O
  H207     1.0000 0.93570  0.56430  0.06430  Biso   1.000  H
  O112     1.0000 0.95351  0.04649  0.54649  Biso   1.000  O
  H208     1.0000 0.93570  0.06430  0.56430  Biso   1.000  H
  O113     1.0000 0.45351  0.45351  0.54649  Biso   1.000  O
  H209     1.0000 0.43570  0.43570  0.56430  Biso   1.000  H
  O114     1.0000 0.45351  0.95351  0.04649  Biso   1.000  O
  H210     1.0000 0.43570  0.93570  0.06430  Biso   1.000  H
  O115     1.0000 0.95351  0.45351  0.04649  Biso   1.000  O
  H211     1.0000 0.93570  0.43570  0.06430  Biso   1.000  H
  O116     1.0000 0.95351  0.95351  0.54649  Biso   1.000  O
  H212     1.0000 0.93570  0.93570  0.56430  Biso   1.000  H
  O117     1.0000 0.54649  0.54649  0.54649  Biso   1.000  O
  H213     1.0000 0.56430  0.56430  0.56430  Biso   1.000  H
  O118     1.0000 0.54649  0.04649  0.04649  Biso   1.000  O
  H214     1.0000 0.56430  0.06430  0.06430  Biso   1.000  H
  O119     1.0000 0.04649  0.54649  0.04649  Biso   1.000  O
  H215     1.0000 0.06430  0.56430  0.06430  Biso   1.000  H
  O120     1.0000 0.04649  0.04649  0.54649  Biso   1.000  O
  H216     1.0000 0.06430  0.06430  0.56430  Biso   1.000  H
  O121     1.0000 0.45351  0.54649  0.45351  Biso   1.000  O
  H217     1.0000 0.43570  0.56430  0.43570  Biso   1.000  H
  O122     1.0000 0.45351  0.04649  0.95351  Biso   1.000  O
  H218     1.0000 0.43570  0.06430  0.93570  Biso   1.000  H
  O123     1.0000 0.95351  0.54649  0.95351  Biso   1.000  O
  H219     1.0000 0.93570  0.56430  0.93570  Biso   1.000  H
  O124     1.0000 0.95351  0.04649  0.45351  Biso   1.000  O
  H220     1.0000 0.93570  0.06430  0.43570  Biso   1.000  H
  O125     1.0000 0.54649  0.45351  0.45351  Biso   1.000  O
  H221     1.0000 0.56430  0.43570  0.43570  Biso   1.000  H
  O126     1.0000 0.54649  0.95351  0.95351  Biso   1.000  O
  H222     1.0000 0.56430  0.93570  0.93570  Biso   1.000  H
  O127     1.0000 0.04649  0.45351  0.95351  Biso   1.000  O
  H223     1.0000 0.06430  0.43570  0.93570  Biso   1.000  H
  O128     1.0000 0.04649  0.95351  0.45351  Biso   1.000  O
  H224     1.0000 0.06430  0.93570  0.43570  Biso   1.000  H
  C193     1.0000 0.37950  0.37950  0.50000  Biso   1.000  C
  C194     1.0000 0.34090  0.34090  0.50000  Biso   1.000  C
  C195     1.0000 0.26870  0.26870  0.50000  Biso   1.000  C
  C196     1.0000 0.37950  0.87950  0.00000  Biso   1.000  C
  C197     1.0000 0.34090  0.84090  0.00000  Biso   1.000  C
  C198     1.0000 0.26870  0.76870  0.00000  Biso   1.000  C
  C199     1.0000 0.87950  0.37950  0.00000  Biso   1.000  C
  C200     1.0000 0.84090  0.34090  0.00000  Biso   1.000  C
  C201     1.0000 0.76870  0.26870  0.00000  Biso   1.000  C
  C202     1.0000 0.87950  0.87950  0.50000  Biso   1.000  C
  C203     1.0000 0.84090  0.84090  0.50000  Biso   1.000  C
  C204     1.0000 0.76870  0.76870  0.50000  Biso   1.000  C
  C205     1.0000 0.62050  0.62050  0.50000  Biso   1.000  C
  C206     1.0000 0.65910  0.65910  0.50000  Biso   1.000  C
  C207     1.0000 0.73130  0.73130  0.50000  Biso   1.000  C
  C208     1.0000 0.62050  0.12050  0.00000  Biso   1.000  C
  C209     1.0000 0.65910  0.15910  0.00000  Biso   1.000  C
  C210     1.0000 0.73130  0.23130  0.00000  Biso   1.000  C
  C211     1.0000 0.12050  0.62050  0.00000  Biso   1.000  C
  C212     1.0000 0.15910  0.65910  0.00000  Biso   1.000  C
  C213     1.0000 0.23130  0.73130  0.00000  Biso   1.000  C
  C214     1.0000 0.12050  0.12050  0.50000  Biso   1.000  C
  C215     1.0000 0.15910  0.15910  0.50000  Biso   1.000  C
  C216     1.0000 0.23130  0.23130  0.50000  Biso   1.000  C
  C217     1.0000 0.62050  0.37950  0.50000  Biso   1.000  C
  C218     1.0000 0.65910  0.34090  0.50000  Biso   1.000  C
  C219     1.0000 0.73130  0.26870  0.50000  Biso   1.000  C
  C220     1.0000 0.62050  0.87950  0.00000  Biso   1.000  C
  C221     1.0000 0.65910  0.84090  0.00000  Biso   1.000  C
  C222     1.0000 0.73130  0.76870  0.00000  Biso   1.000  C
  C223     1.0000 0.12050  0.37950  0.00000  Biso   1.000  C
  C224     1.0000 0.15910  0.34090  0.00000  Biso   1.000  C
  C225     1.0000 0.23130  0.26870  0.00000  Biso   1.000  C
  C226     1.0000 0.12050  0.87950  0.50000  Biso   1.000  C
  C227     1.0000 0.15910  0.84090  0.50000  Biso   1.000  C
  C228     1.0000 0.23130  0.76870  0.50000  Biso   1.000  C
  C229     1.0000 0.37950  0.62050  0.50000  Biso   1.000  C
  C230     1.0000 0.34090  0.65910  0.50000  Biso   1.000  C
  C231     1.0000 0.26870  0.73130  0.50000  Biso   1.000  C
  C232     1.0000 0.37950  0.12050  0.00000  Biso   1.000  C
  C233     1.0000 0.34090  0.15910  0.00000  Biso   1.000  C
  C234     1.0000 0.26870  0.23130  0.00000  Biso   1.000  C
  C235     1.0000 0.87950  0.62050  0.00000  Biso   1.000  C
  C236     1.0000 0.84090  0.65910  0.00000  Biso   1.000  C
  C237     1.0000 0.76870  0.73130  0.00000  Biso   1.000  C
  C238     1.0000 0.87950  0.12050  0.50000  Biso   1.000  C
  C239     1.0000 0.84090  0.15910  0.50000  Biso   1.000  C
  C240     1.0000 0.76870  0.23130  0.50000  Biso   1.000  C
  C241     1.0000 0.50000  0.37950  0.37950  Biso   1.000  C
  C242     1.0000 0.50000  0.34090  0.34090  Biso   1.000  C
  C243     1.0000 0.50000  0.26870  0.26870  Biso   1.000  C
  C244     1.0000 0.50000  0.87950  0.87950  Biso   1.000  C
  C245     1.0000 0.50000  0.84090  0.84090  Biso   1.000  C
  C246     1.0000 0.50000  0.76870  0.76870  Biso   1.000  C
  C247     1.0000 0.00000  0.37950  0.87950  Biso   1.000  C
  C248     1.0000 0.00000  0.34090  0.84090  Biso   1.000  C
  C249     1.0000 0.00000  0.26870  0.76870  Biso   1.000  C
  C250     1.0000 0.00000  0.87950  0.37950  Biso   1.000  C
  C251     1.0000 0.00000  0.84090  0.34090  Biso   1.000  C
  C252     1.0000 0.00000  0.76870  0.26870  Biso   1.000  C
  C253     1.0000 0.50000  0.62050  0.62050  Biso   1.000  C
  C254     1.0000 0.50000  0.65910  0.65910  Biso   1.000  C
  C255     1.0000 0.50000  0.73130  0.73130  Biso   1.000  C
  C256     1.0000 0.50000  0.12050  0.12050  Biso   1.000  C
  C257     1.0000 0.50000  0.15910  0.15910  Biso   1.000  C
  C258     1.0000 0.50000  0.23130  0.23130  Biso   1.000  C
  C259     1.0000 0.00000  0.62050  0.12050  Biso   1.000  C
  C260     1.0000 0.00000  0.65910  0.15910  Biso   1.000  C
  C261     1.0000 0.00000  0.73130  0.23130  Biso   1.000  C
  C262     1.0000 0.00000  0.12050  0.62050  Biso   1.000  C
  C263     1.0000 0.00000  0.15910  0.65910  Biso   1.000  C
  C264     1.0000 0.00000  0.23130  0.73130  Biso   1.000  C
  C265     1.0000 0.50000  0.62050  0.37950  Biso   1.000  C
  C266     1.0000 0.50000  0.65910  0.34090  Biso   1.000  C
  C267     1.0000 0.50000  0.73130  0.26870  Biso   1.000  C
  C268     1.0000 0.50000  0.12050  0.87950  Biso   1.000  C
  C269     1.0000 0.50000  0.15910  0.84090  Biso   1.000  C
  C270     1.0000 0.50000  0.23130  0.76870  Biso   1.000  C
  C271     1.0000 0.00000  0.62050  0.87950  Biso   1.000  C
  C272     1.0000 0.00000  0.65910  0.84090  Biso   1.000  C
  C273     1.0000 0.00000  0.73130  0.76870  Biso   1.000  C
  C274     1.0000 0.00000  0.12050  0.37950  Biso   1.000  C
  C275     1.0000 0.00000  0.15910  0.34090  Biso   1.000  C
  C276     1.0000 0.00000  0.23130  0.26870  Biso   1.000  C
  C277     1.0000 0.50000  0.37950  0.62050  Biso   1.000  C
  C278     1.0000 0.50000  0.34090  0.65910  Biso   1.000  C
  C279     1.0000 0.50000  0.26870  0.73130  Biso   1.000  C
  C280     1.0000 0.50000  0.87950  0.12050  Biso   1.000  C
  C281     1.0000 0.50000  0.84090  0.15910  Biso   1.000  C
  C282     1.0000 0.50000  0.76870  0.23130  Biso   1.000  C
  C283     1.0000 0.00000  0.37950  0.12050  Biso   1.000  C
  C284     1.0000 0.00000  0.34090  0.15910  Biso   1.000  C
  C285     1.0000 0.00000  0.26870  0.23130  Biso   1.000  C
  C286     1.0000 0.00000  0.87950  0.62050  Biso   1.000  C
  C287     1.0000 0.00000  0.84090  0.65910  Biso   1.000  C
  C288     1.0000 0.00000  0.76870  0.73130  Biso   1.000  C
  C289     1.0000 0.37950  0.50000  0.37950  Biso   1.000  C
  C290     1.0000 0.34090  0.50000  0.34090  Biso   1.000  C
  C291     1.0000 0.26870  0.50000  0.26870  Biso   1.000  C
  C292     1.0000 0.37950  0.00000  0.87950  Biso   1.000  C
  C293     1.0000 0.34090  0.00000  0.84090  Biso   1.000  C
  C294     1.0000 0.26870  0.00000  0.76870  Biso   1.000  C
  C295     1.0000 0.87950  0.50000  0.87950  Biso   1.000  C
  C296     1.0000 0.84090  0.50000  0.84090  Biso   1.000  C
  C297     1.0000 0.76870  0.50000  0.76870  Biso   1.000  C
  C298     1.0000 0.87950  0.00000  0.37950  Biso   1.000  C
  C299     1.0000 0.84090  0.00000  0.34090  Biso   1.000  C
  C300     1.0000 0.76870  0.00000  0.26870  Biso   1.000  C
  C301     1.0000 0.62050  0.50000  0.62050  Biso   1.000  C
  C302     1.0000 0.65910  0.50000  0.65910  Biso   1.000  C
  C303     1.0000 0.73130  0.50000  0.73130  Biso   1.000  C
  C304     1.0000 0.62050  0.00000  0.12050  Biso   1.000  C
  C305     1.0000 0.65910  0.00000  0.15910  Biso   1.000  C
  C306     1.0000 0.73130  0.00000  0.23130  Biso   1.000  C
  C307     1.0000 0.12050  0.50000  0.12050  Biso   1.000  C
  C308     1.0000 0.15910  0.50000  0.15910  Biso   1.000  C
  C309     1.0000 0.23130  0.50000  0.23130  Biso   1.000  C
  C310     1.0000 0.12050  0.00000  0.62050  Biso   1.000  C
  C311     1.0000 0.15910  0.00000  0.65910  Biso   1.000  C
  C312     1.0000 0.23130  0.00000  0.73130  Biso   1.000  C
  C313     1.0000 0.37950  0.50000  0.62050  Biso   1.000  C
  C314     1.0000 0.34090  0.50000  0.65910  Biso   1.000  C
  C315     1.0000 0.26870  0.50000  0.73130  Biso   1.000  C
  C316     1.0000 0.37950  0.00000  0.12050  Biso   1.000  C
  C317     1.0000 0.34090  0.00000  0.15910  Biso   1.000  C
  C318     1.0000 0.26870  0.00000  0.23130  Biso   1.000  C
  C319     1.0000 0.87950  0.50000  0.12050  Biso   1.000  C
  C320     1.0000 0.84090  0.50000  0.15910  Biso   1.000  C
  C321     1.0000 0.76870  0.50000  0.23130  Biso   1.000  C
  C322     1.0000 0.87950  0.00000  0.62050  Biso   1.000  C
  C323     1.0000 0.84090  0.00000  0.65910  Biso   1.000  C
  C324     1.0000 0.76870  0.00000  0.73130  Biso   1.000  C
  C325     1.0000 0.62050  0.50000  0.37950  Biso   1.000  C
  C326     1.0000 0.65910  0.50000  0.34090  Biso   1.000  C
  C327     1.0000 0.73130  0.50000  0.26870  Biso   1.000  C
  C328     1.0000 0.62050  0.00000  0.87950  Biso   1.000  C
  C329     1.0000 0.65910  0.00000  0.84090  Biso   1.000  C
  C330     1.0000 0.73130  0.00000  0.76870  Biso   1.000  C
  C331     1.0000 0.12050  0.50000  0.87950  Biso   1.000  C
  C332     1.0000 0.15910  0.50000  0.84090  Biso   1.000  C
  C333     1.0000 0.23130  0.50000  0.76870  Biso   1.000  C
  C334     1.0000 0.12050  0.00000  0.37950  Biso   1.000  C
  C335     1.0000 0.15910  0.00000  0.34090  Biso   1.000  C
  C336     1.0000 0.23130  0.00000  0.26870  Biso   1.000  C
