data_image0
_cell_length_a       25.6886
_cell_length_b       25.6886
_cell_length_c       25.6886
_cell_angle_alpha    90
_cell_angle_beta     90
_cell_angle_gamma    90

_symmetry_space_group_name_H-M    "P 1"
_symmetry_int_tables_number       1

loop_
  _symmetry_equiv_pos_as_xyz
  'x, y, z'

loop_
  _atom_site_label
  _atom_site_occupancy
  _atom_site_fract_x
  _atom_site_fract_y
  _atom_site_fract_z
  _atom_site_thermal_displace_type
  _atom_site_B_iso_or_equiv
  _atom_site_type_symbol
  N1       1.0000 0.36610  0.06320  0.30010  Biso   1.000  N
  N2       1.0000 0.44106  0.10780  0.28076  Biso   1.000  N
  H1       1.0000 0.46320  0.13170  0.28840  Biso   1.000  H
  N3       1.0000 0.45420  0.07097  0.24600  Biso   1.000  N
  C1       1.0000 0.31920  0.06180  0.32450  Biso   1.000  C
  H2       1.0000 0.29850  0.03230  0.32090  Biso   1.000  H
  C2       1.0000 0.30120  0.10270  0.35470  Biso   1.000  C
  H3       1.0000 0.27040  0.09940  0.37350  Biso   1.000  H
  C3       1.0000 0.32890  0.14750  0.35640  Biso   1.000  C
  H4       1.0000 0.31540  0.17660  0.37310  Biso   1.000  H
  C4       1.0000 0.37710  0.14960  0.33330  Biso   1.000  C
  H5       1.0000 0.39770  0.17910  0.33770  Biso   1.000  H
  C5       1.0000 0.39560  0.10820  0.30320  Biso   1.000  C
  C6       1.0000 0.50090  0.07170  0.22810  Biso   1.000  C
  C7       1.0000 0.54310  0.11070  0.24850  Biso   1.000  C
  H6       1.0000 0.52840  0.13190  0.27550  Biso   1.000  H
  H7       1.0000 0.55450  0.13250  0.22040  Biso   1.000  H
  H8       1.0000 0.57220  0.09160  0.26210  Biso   1.000  H
  C8       1.0000 0.51590  0.03540  0.18560  Biso   1.000  C
  C9       1.0000 0.56930  0.02220  0.17850  Biso   1.000  C
  H9       1.0000 0.59480  0.03460  0.20090  Biso   1.000  H
  C10      1.0000 0.58200  0.99040  0.13740  Biso   1.000  C
  H10      1.0000 0.61670  0.98190  0.13190  Biso   1.000  H
  C11      1.0000 0.54630  0.97150  0.10550  Biso   1.000  C
  C12      1.0000 0.49250  0.98500  0.11410  Biso   1.000  C
  H11      1.0000 0.46680  0.97210  0.09200  Biso   1.000  H
  C13      1.0000 0.47980  0.01520  0.15250  Biso   1.000  C
  H12      1.0000 0.44490  0.02320  0.15770  Biso   1.000  H
  N4       1.0000 0.86610  0.56320  0.80010  Biso   1.000  N
  N5       1.0000 0.94106  0.60780  0.78076  Biso   1.000  N
  H13      1.0000 0.96320  0.63170  0.78840  Biso   1.000  H
  N6       1.0000 0.95420  0.57097  0.74600  Biso   1.000  N
  C14      1.0000 0.81920  0.56180  0.82450  Biso   1.000  C
  H14      1.0000 0.79850  0.53230  0.82090  Biso   1.000  H
  C15      1.0000 0.80120  0.60270  0.85470  Biso   1.000  C
  H15      1.0000 0.77040  0.59940  0.87350  Biso   1.000  H
  C16      1.0000 0.82890  0.64750  0.85640  Biso   1.000  C
  H16      1.0000 0.81540  0.67660  0.87310  Biso   1.000  H
  C17      1.0000 0.87710  0.64960  0.83330  Biso   1.000  C
  H17      1.0000 0.89770  0.67910  0.83770  Biso   1.000  H
  C18      1.0000 0.89560  0.60820  0.80320  Biso   1.000  C
  C19      1.0000 0.00090  0.57170  0.72810  Biso   1.000  C
  C20      1.0000 0.04310  0.61070  0.74850  Biso   1.000  C
  H18      1.0000 0.02840  0.63190  0.77550  Biso   1.000  H
  H19      1.0000 0.05450  0.63250  0.72040  Biso   1.000  H
  H20      1.0000 0.07220  0.59160  0.76210  Biso   1.000  H
  C21      1.0000 0.01590  0.53540  0.68560  Biso   1.000  C
  C22      1.0000 0.06930  0.52220  0.67850  Biso   1.000  C
  H21      1.0000 0.09480  0.53460  0.70090  Biso   1.000  H
  C23      1.0000 0.08200  0.49040  0.63740  Biso   1.000  C
  H22      1.0000 0.11670  0.48190  0.63190  Biso   1.000  H
  C24      1.0000 0.04630  0.47150  0.60550  Biso   1.000  C
  C25      1.0000 0.99250  0.48500  0.61410  Biso   1.000  C
  H23      1.0000 0.96680  0.47210  0.59200  Biso   1.000  H
  C26      1.0000 0.97980  0.51520  0.65250  Biso   1.000  C
  H24      1.0000 0.94490  0.52320  0.65770  Biso   1.000  H
  N7       1.0000 0.13390  0.93680  0.80010  Biso   1.000  N
  N8       1.0000 0.05894  0.89220  0.78076  Biso   1.000  N
  H25      1.0000 0.03680  0.86830  0.78840  Biso   1.000  H
  N9       1.0000 0.04580  0.92903  0.74600  Biso   1.000  N
  C27      1.0000 0.18080  0.93820  0.82450  Biso   1.000  C
  H26      1.0000 0.20150  0.96770  0.82090  Biso   1.000  H
  C28      1.0000 0.19880  0.89730  0.85470  Biso   1.000  C
  H27      1.0000 0.22960  0.90060  0.87350  Biso   1.000  H
  C29      1.0000 0.17110  0.85250  0.85640  Biso   1.000  C
  H28      1.0000 0.18460  0.82340  0.87310  Biso   1.000  H
  C30      1.0000 0.12290  0.85040  0.83330  Biso   1.000  C
  H29      1.0000 0.10230  0.82090  0.83770  Biso   1.000  H
  C31      1.0000 0.10440  0.89180  0.80320  Biso   1.000  C
  C32      1.0000 0.99910  0.92830  0.72810  Biso   1.000  C
  C33      1.0000 0.95690  0.88930  0.74850  Biso   1.000  C
  H30      1.0000 0.97160  0.86810  0.77550  Biso   1.000  H
  H31      1.0000 0.94550  0.86750  0.72040  Biso   1.000  H
  H32      1.0000 0.92780  0.90840  0.76210  Biso   1.000  H
  C34      1.0000 0.98410  0.96460  0.68560  Biso   1.000  C
  C35      1.0000 0.93070  0.97780  0.67850  Biso   1.000  C
  H33      1.0000 0.90520  0.96540  0.70090  Biso   1.000  H
  C36      1.0000 0.91800  0.00960  0.63740  Biso   1.000  C
  H34      1.0000 0.88330  0.01810  0.63190  Biso   1.000  H
  C37      1.0000 0.95370  0.02850  0.60550  Biso   1.000  C
  C38      1.0000 0.00750  0.01500  0.61410  Biso   1.000  C
  H35      1.0000 0.03320  0.02790  0.59200  Biso   1.000  H
  C39      1.0000 0.02020  0.98480  0.65250  Biso   1.000  C
  H36      1.0000 0.05510  0.97680  0.65770  Biso   1.000  H
  N10      1.0000 0.63390  0.43680  0.30010  Biso   1.000  N
  N11      1.0000 0.55894  0.39220  0.28076  Biso   1.000  N
  H37      1.0000 0.53680  0.36830  0.28840  Biso   1.000  H
  N12      1.0000 0.54580  0.42903  0.24600  Biso   1.000  N
  C40      1.0000 0.68080  0.43820  0.32450  Biso   1.000  C
  H38      1.0000 0.70150  0.46770  0.32090  Biso   1.000  H
  C41      1.0000 0.69880  0.39730  0.35470  Biso   1.000  C
  H39      1.0000 0.72960  0.40060  0.37350  Biso   1.000  H
  C42      1.0000 0.67110  0.35250  0.35640  Biso   1.000  C
  H40      1.0000 0.68460  0.32340  0.37310  Biso   1.000  H
  C43      1.0000 0.62290  0.35040  0.33330  Biso   1.000  C
  H41      1.0000 0.60230  0.32090  0.33770  Biso   1.000  H
  C44      1.0000 0.60440  0.39180  0.30320  Biso   1.000  C
  C45      1.0000 0.49910  0.42830  0.22810  Biso   1.000  C
  C46      1.0000 0.45690  0.38930  0.24850  Biso   1.000  C
  H42      1.0000 0.47160  0.36810  0.27550  Biso   1.000  H
  H43      1.0000 0.44550  0.36750  0.22040  Biso   1.000  H
  H44      1.0000 0.42780  0.40840  0.26210  Biso   1.000  H
  C47      1.0000 0.48410  0.46460  0.18560  Biso   1.000  C
  C48      1.0000 0.43070  0.47780  0.17850  Biso   1.000  C
  H45      1.0000 0.40520  0.46540  0.20090  Biso   1.000  H
  C49      1.0000 0.41800  0.50960  0.13740  Biso   1.000  C
  H46      1.0000 0.38330  0.51810  0.13190  Biso   1.000  H
  C50      1.0000 0.45370  0.52850  0.10550  Biso   1.000  C
  C51      1.0000 0.50750  0.51500  0.11410  Biso   1.000  C
  H47      1.0000 0.53320  0.52790  0.09200  Biso   1.000  H
  C52      1.0000 0.52020  0.48480  0.15250  Biso   1.000  C
  H48      1.0000 0.55510  0.47680  0.15770  Biso   1.000  H
  N13      1.0000 0.63390  0.56320  0.19990  Biso   1.000  N
  N14      1.0000 0.55894  0.60780  0.21924  Biso   1.000  N
  H49      1.0000 0.53680  0.63170  0.21160  Biso   1.000  H
  N15      1.0000 0.54580  0.57097  0.25400  Biso   1.000  N
  C53      1.0000 0.68080  0.56180  0.17550  Biso   1.000  C
  H50      1.0000 0.70150  0.53230  0.17910  Biso   1.000  H
  C54      1.0000 0.69880  0.60270  0.14530  Biso   1.000  C
  H51      1.0000 0.72960  0.59940  0.12650  Biso   1.000  H
  C55      1.0000 0.67110  0.64750  0.14360  Biso   1.000  C
  H52      1.0000 0.68460  0.67660  0.12690  Biso   1.000  H
  C56      1.0000 0.62290  0.64960  0.16670  Biso   1.000  C
  H53      1.0000 0.60230  0.67910  0.16230  Biso   1.000  H
  C57      1.0000 0.60440  0.60820  0.19680  Biso   1.000  C
  C58      1.0000 0.49910  0.57170  0.27190  Biso   1.000  C
  C59      1.0000 0.45690  0.61070  0.25150  Biso   1.000  C
  H54      1.0000 0.47160  0.63190  0.22450  Biso   1.000  H
  H55      1.0000 0.44550  0.63250  0.27960  Biso   1.000  H
  H56      1.0000 0.42780  0.59160  0.23790  Biso   1.000  H
  C60      1.0000 0.48410  0.53540  0.31440  Biso   1.000  C
  C61      1.0000 0.43070  0.52220  0.32150  Biso   1.000  C
  H57      1.0000 0.40520  0.53460  0.29910  Biso   1.000  H
  C62      1.0000 0.41800  0.49040  0.36260  Biso   1.000  C
  H58      1.0000 0.38330  0.48190  0.36810  Biso   1.000  H
  C63      1.0000 0.45370  0.47150  0.39450  Biso   1.000  C
  C64      1.0000 0.50750  0.48500  0.38590  Biso   1.000  C
  H59      1.0000 0.53320  0.47210  0.40800  Biso   1.000  H
  C65      1.0000 0.52020  0.51520  0.34750  Biso   1.000  C
  H60      1.0000 0.55510  0.52320  0.34230  Biso   1.000  H
  N16      1.0000 0.13390  0.06320  0.69990  Biso   1.000  N
  N17      1.0000 0.05894  0.10780  0.71924  Biso   1.000  N
  H61      1.0000 0.03680  0.13170  0.71160  Biso   1.000  H
  N18      1.0000 0.04580  0.07097  0.75400  Biso   1.000  N
  C66      1.0000 0.18080  0.06180  0.67550  Biso   1.000  C
  H62      1.0000 0.20150  0.03230  0.67910  Biso   1.000  H
  C67      1.0000 0.19880  0.10270  0.64530  Biso   1.000  C
  H63      1.0000 0.22960  0.09940  0.62650  Biso   1.000  H
  C68      1.0000 0.17110  0.14750  0.64360  Biso   1.000  C
  H64      1.0000 0.18460  0.17660  0.62690  Biso   1.000  H
  C69      1.0000 0.12290  0.14960  0.66670  Biso   1.000  C
  H65      1.0000 0.10230  0.17910  0.66230  Biso   1.000  H
  C70      1.0000 0.10440  0.10820  0.69680  Biso   1.000  C
  C71      1.0000 0.99910  0.07170  0.77190  Biso   1.000  C
  C72      1.0000 0.95690  0.11070  0.75150  Biso   1.000  C
  H66      1.0000 0.97160  0.13190  0.72450  Biso   1.000  H
  H67      1.0000 0.94550  0.13250  0.77960  Biso   1.000  H
  H68      1.0000 0.92780  0.09160  0.73790  Biso   1.000  H
  C73      1.0000 0.98410  0.03540  0.81440  Biso   1.000  C
  C74      1.0000 0.93070  0.02220  0.82150  Biso   1.000  C
  H69      1.0000 0.90520  0.03460  0.79910  Biso   1.000  H
  C75      1.0000 0.91800  0.99040  0.86260  Biso   1.000  C
  H70      1.0000 0.88330  0.98190  0.86810  Biso   1.000  H
  C76      1.0000 0.95370  0.97150  0.89450  Biso   1.000  C
  C77      1.0000 0.00750  0.98500  0.88590  Biso   1.000  C
  H71      1.0000 0.03320  0.97210  0.90800  Biso   1.000  H
  C78      1.0000 0.02020  0.01520  0.84750  Biso   1.000  C
  H72      1.0000 0.05510  0.02320  0.84230  Biso   1.000  H
  N19      1.0000 0.86610  0.43680  0.69990  Biso   1.000  N
  N20      1.0000 0.94106  0.39220  0.71924  Biso   1.000  N
  H73      1.0000 0.96320  0.36830  0.71160  Biso   1.000  H
  N21      1.0000 0.95420  0.42903  0.75400  Biso   1.000  N
  C79      1.0000 0.81920  0.43820  0.67550  Biso   1.000  C
  H74      1.0000 0.79850  0.46770  0.67910  Biso   1.000  H
  C80      1.0000 0.80120  0.39730  0.64530  Biso   1.000  C
  H75      1.0000 0.77040  0.40060  0.62650  Biso   1.000  H
  C81      1.0000 0.82890  0.35250  0.64360  Biso   1.000  C
  H76      1.0000 0.81540  0.32340  0.62690  Biso   1.000  H
  C82      1.0000 0.87710  0.35040  0.66670  Biso   1.000  C
  H77      1.0000 0.89770  0.32090  0.66230  Biso   1.000  H
  C83      1.0000 0.89560  0.39180  0.69680  Biso   1.000  C
  C84      1.0000 0.00090  0.42830  0.77190  Biso   1.000  C
  C85      1.0000 0.04310  0.38930  0.75150  Biso   1.000  C
  H78      1.0000 0.02840  0.36810  0.72450  Biso   1.000  H
  H79      1.0000 0.05450  0.36750  0.77960  Biso   1.000  H
  H80      1.0000 0.07220  0.40840  0.73790  Biso   1.000  H
  C86      1.0000 0.01590  0.46460  0.81440  Biso   1.000  C
  C87      1.0000 0.06930  0.47780  0.82150  Biso   1.000  C
  H81      1.0000 0.09480  0.46540  0.79910  Biso   1.000  H
  C88      1.0000 0.08200  0.50960  0.86260  Biso   1.000  C
  H82      1.0000 0.11670  0.51810  0.86810  Biso   1.000  H
  C89      1.0000 0.04630  0.52850  0.89450  Biso   1.000  C
  C90      1.0000 0.99250  0.51500  0.88590  Biso   1.000  C
  H83      1.0000 0.96680  0.52790  0.90800  Biso   1.000  H
  C91      1.0000 0.97980  0.48480  0.84750  Biso   1.000  C
  H84      1.0000 0.94490  0.47680  0.84230  Biso   1.000  H
  N22      1.0000 0.36610  0.93680  0.19990  Biso   1.000  N
  N23      1.0000 0.44106  0.89220  0.21924  Biso   1.000  N
  H85      1.0000 0.46320  0.86830  0.21160  Biso   1.000  H
  N24      1.0000 0.45420  0.92903  0.25400  Biso   1.000  N
  C92      1.0000 0.31920  0.93820  0.17550  Biso   1.000  C
  H86      1.0000 0.29850  0.96770  0.17910  Biso   1.000  H
  C93      1.0000 0.30120  0.89730  0.14530  Biso   1.000  C
  H87      1.0000 0.27040  0.90060  0.12650  Biso   1.000  H
  C94      1.0000 0.32890  0.85250  0.14360  Biso   1.000  C
  H88      1.0000 0.31540  0.82340  0.12690  Biso   1.000  H
  C95      1.0000 0.37710  0.85040  0.16670  Biso   1.000  C
  H89      1.0000 0.39770  0.82090  0.16230  Biso   1.000  H
  C96      1.0000 0.39560  0.89180  0.19680  Biso   1.000  C
  C97      1.0000 0.50090  0.92830  0.27190  Biso   1.000  C
  C98      1.0000 0.54310  0.88930  0.25150  Biso   1.000  C
  H90      1.0000 0.52840  0.86810  0.22450  Biso   1.000  H
  H91      1.0000 0.55450  0.86750  0.27960  Biso   1.000  H
  H92      1.0000 0.57220  0.90840  0.23790  Biso   1.000  H
  C99      1.0000 0.51590  0.96460  0.31440  Biso   1.000  C
  C100     1.0000 0.56930  0.97780  0.32150  Biso   1.000  C
  H93      1.0000 0.59480  0.96540  0.29910  Biso   1.000  H
  C101     1.0000 0.58200  0.00960  0.36260  Biso   1.000  C
  H94      1.0000 0.61670  0.01810  0.36810  Biso   1.000  H
  C102     1.0000 0.54630  0.02850  0.39450  Biso   1.000  C
  C103     1.0000 0.49250  0.01500  0.38590  Biso   1.000  C
  H95      1.0000 0.46680  0.02790  0.40800  Biso   1.000  H
  C104     1.0000 0.47980  0.98480  0.34750  Biso   1.000  C
  H96      1.0000 0.44490  0.97680  0.34230  Biso   1.000  H
  N25      1.0000 0.30010  0.36610  0.06320  Biso   1.000  N
  N26      1.0000 0.28076  0.44106  0.10780  Biso   1.000  N
  H97      1.0000 0.28840  0.46320  0.13170  Biso   1.000  H
  N27      1.0000 0.24600  0.45420  0.07097  Biso   1.000  N
  C105     1.0000 0.32450  0.31920  0.06180  Biso   1.000  C
  H98      1.0000 0.32090  0.29850  0.03230  Biso   1.000  H
  C106     1.0000 0.35470  0.30120  0.10270  Biso   1.000  C
  H99      1.0000 0.37350  0.27040  0.09940  Biso   1.000  H
  C107     1.0000 0.35640  0.32890  0.14750  Biso   1.000  C
  H100     1.0000 0.37310  0.31540  0.17660  Biso   1.000  H
  C108     1.0000 0.33330  0.37710  0.14960  Biso   1.000  C
  H101     1.0000 0.33770  0.39770  0.17910  Biso   1.000  H
  C109     1.0000 0.30320  0.39560  0.10820  Biso   1.000  C
  C110     1.0000 0.22810  0.50090  0.07170  Biso   1.000  C
  C111     1.0000 0.24850  0.54310  0.11070  Biso   1.000  C
  H102     1.0000 0.27550  0.52840  0.13190  Biso   1.000  H
  H103     1.0000 0.22040  0.55450  0.13250  Biso   1.000  H
  H104     1.0000 0.26210  0.57220  0.09160  Biso   1.000  H
  C112     1.0000 0.18560  0.51590  0.03540  Biso   1.000  C
  C113     1.0000 0.17850  0.56930  0.02220  Biso   1.000  C
  H105     1.0000 0.20090  0.59480  0.03460  Biso   1.000  H
  C114     1.0000 0.13740  0.58200  0.99040  Biso   1.000  C
  H106     1.0000 0.13190  0.61670  0.98190  Biso   1.000  H
  C115     1.0000 0.10550  0.54630  0.97150  Biso   1.000  C
  C116     1.0000 0.11410  0.49250  0.98500  Biso   1.000  C
  H107     1.0000 0.09200  0.46680  0.97210  Biso   1.000  H
  C117     1.0000 0.15250  0.47980  0.01520  Biso   1.000  C
  H108     1.0000 0.15770  0.44490  0.02320  Biso   1.000  H
  N28      1.0000 0.80010  0.86610  0.56320  Biso   1.000  N
  N29      1.0000 0.78076  0.94106  0.60780  Biso   1.000  N
  H109     1.0000 0.78840  0.96320  0.63170  Biso   1.000  H
  N30      1.0000 0.74600  0.95420  0.57097  Biso   1.000  N
  C118     1.0000 0.82450  0.81920  0.56180  Biso   1.000  C
  H110     1.0000 0.82090  0.79850  0.53230  Biso   1.000  H
  C119     1.0000 0.85470  0.80120  0.60270  Biso   1.000  C
  H111     1.0000 0.87350  0.77040  0.59940  Biso   1.000  H
  C120     1.0000 0.85640  0.82890  0.64750  Biso   1.000  C
  H112     1.0000 0.87310  0.81540  0.67660  Biso   1.000  H
  C121     1.0000 0.83330  0.87710  0.64960  Biso   1.000  C
  H113     1.0000 0.83770  0.89770  0.67910  Biso   1.000  H
  C122     1.0000 0.80320  0.89560  0.60820  Biso   1.000  C
  C123     1.0000 0.72810  0.00090  0.57170  Biso   1.000  C
  C124     1.0000 0.74850  0.04310  0.61070  Biso   1.000  C
  H114     1.0000 0.77550  0.02840  0.63190  Biso   1.000  H
  H115     1.0000 0.72040  0.05450  0.63250  Biso   1.000  H
  H116     1.0000 0.76210  0.07220  0.59160  Biso   1.000  H
  C125     1.0000 0.68560  0.01590  0.53540  Biso   1.000  C
  C126     1.0000 0.67850  0.06930  0.52220  Biso   1.000  C
  H117     1.0000 0.70090  0.09480  0.53460  Biso   1.000  H
  C127     1.0000 0.63740  0.08200  0.49040  Biso   1.000  C
  H118     1.0000 0.63190  0.11670  0.48190  Biso   1.000  H
  C128     1.0000 0.60550  0.04630  0.47150  Biso   1.000  C
  C129     1.0000 0.61410  0.99250  0.48500  Biso   1.000  C
  H119     1.0000 0.59200  0.96680  0.47210  Biso   1.000  H
  C130     1.0000 0.65250  0.97980  0.51520  Biso   1.000  C
  H120     1.0000 0.65770  0.94490  0.52320  Biso   1.000  H
  N31      1.0000 0.80010  0.13390  0.93680  Biso   1.000  N
  N32      1.0000 0.78076  0.05894  0.89220  Biso   1.000  N
  H121     1.0000 0.78840  0.03680  0.86830  Biso   1.000  H
  N33      1.0000 0.74600  0.04580  0.92903  Biso   1.000  N
  C131     1.0000 0.82450  0.18080  0.93820  Biso   1.000  C
  H122     1.0000 0.82090  0.20150  0.96770  Biso   1.000  H
  C132     1.0000 0.85470  0.19880  0.89730  Biso   1.000  C
  H123     1.0000 0.87350  0.22960  0.90060  Biso   1.000  H
  C133     1.0000 0.85640  0.17110  0.85250  Biso   1.000  C
  H124     1.0000 0.87310  0.18460  0.82340  Biso   1.000  H
  C134     1.0000 0.83330  0.12290  0.85040  Biso   1.000  C
  H125     1.0000 0.83770  0.10230  0.82090  Biso   1.000  H
  C135     1.0000 0.80320  0.10440  0.89180  Biso   1.000  C
  C136     1.0000 0.72810  0.99910  0.92830  Biso   1.000  C
  C137     1.0000 0.74850  0.95690  0.88930  Biso   1.000  C
  H126     1.0000 0.77550  0.97160  0.86810  Biso   1.000  H
  H127     1.0000 0.72040  0.94550  0.86750  Biso   1.000  H
  H128     1.0000 0.76210  0.92780  0.90840  Biso   1.000  H
  C138     1.0000 0.68560  0.98410  0.96460  Biso   1.000  C
  C139     1.0000 0.67850  0.93070  0.97780  Biso   1.000  C
  H129     1.0000 0.70090  0.90520  0.96540  Biso   1.000  H
  C140     1.0000 0.63740  0.91800  0.00960  Biso   1.000  C
  H130     1.0000 0.63190  0.88330  0.01810  Biso   1.000  H
  C141     1.0000 0.60550  0.95370  0.02850  Biso   1.000  C
  C142     1.0000 0.61410  0.00750  0.01500  Biso   1.000  C
  H131     1.0000 0.59200  0.03320  0.02790  Biso   1.000  H
  C143     1.0000 0.65250  0.02020  0.98480  Biso   1.000  C
  H132     1.0000 0.65770  0.05510  0.97680  Biso   1.000  H
  N34      1.0000 0.30010  0.63390  0.43680  Biso   1.000  N
  N35      1.0000 0.28076  0.55894  0.39220  Biso   1.000  N
  H133     1.0000 0.28840  0.53680  0.36830  Biso   1.000  H
  N36      1.0000 0.24600  0.54580  0.42903  Biso   1.000  N
  C144     1.0000 0.32450  0.68080  0.43820  Biso   1.000  C
  H134     1.0000 0.32090  0.70150  0.46770  Biso   1.000  H
  C145     1.0000 0.35470  0.69880  0.39730  Biso   1.000  C
  H135     1.0000 0.37350  0.72960  0.40060  Biso   1.000  H
  C146     1.0000 0.35640  0.67110  0.35250  Biso   1.000  C
  H136     1.0000 0.37310  0.68460  0.32340  Biso   1.000  H
  C147     1.0000 0.33330  0.62290  0.35040  Biso   1.000  C
  H137     1.0000 0.33770  0.60230  0.32090  Biso   1.000  H
  C148     1.0000 0.30320  0.60440  0.39180  Biso   1.000  C
  C149     1.0000 0.22810  0.49910  0.42830  Biso   1.000  C
  C150     1.0000 0.24850  0.45690  0.38930  Biso   1.000  C
  H138     1.0000 0.27550  0.47160  0.36810  Biso   1.000  H
  H139     1.0000 0.22040  0.44550  0.36750  Biso   1.000  H
  H140     1.0000 0.26210  0.42780  0.40840  Biso   1.000  H
  C151     1.0000 0.18560  0.48410  0.46460  Biso   1.000  C
  C152     1.0000 0.17850  0.43070  0.47780  Biso   1.000  C
  H141     1.0000 0.20090  0.40520  0.46540  Biso   1.000  H
  C153     1.0000 0.13740  0.41800  0.50960  Biso   1.000  C
  H142     1.0000 0.13190  0.38330  0.51810  Biso   1.000  H
  C154     1.0000 0.10550  0.45370  0.52850  Biso   1.000  C
  C155     1.0000 0.11410  0.50750  0.51500  Biso   1.000  C
  H143     1.0000 0.09200  0.53320  0.52790  Biso   1.000  H
  C156     1.0000 0.15250  0.52020  0.48480  Biso   1.000  C
  H144     1.0000 0.15770  0.55510  0.47680  Biso   1.000  H
  N37      1.0000 0.19990  0.63390  0.56320  Biso   1.000  N
  N38      1.0000 0.21924  0.55894  0.60780  Biso   1.000  N
  H145     1.0000 0.21160  0.53680  0.63170  Biso   1.000  H
  N39      1.0000 0.25400  0.54580  0.57097  Biso   1.000  N
  C157     1.0000 0.17550  0.68080  0.56180  Biso   1.000  C
  H146     1.0000 0.17910  0.70150  0.53230  Biso   1.000  H
  C158     1.0000 0.14530  0.69880  0.60270  Biso   1.000  C
  H147     1.0000 0.12650  0.72960  0.59940  Biso   1.000  H
  C159     1.0000 0.14360  0.67110  0.64750  Biso   1.000  C
  H148     1.0000 0.12690  0.68460  0.67660  Biso   1.000  H
  C160     1.0000 0.16670  0.62290  0.64960  Biso   1.000  C
  H149     1.0000 0.16230  0.60230  0.67910  Biso   1.000  H
  C161     1.0000 0.19680  0.60440  0.60820  Biso   1.000  C
  C162     1.0000 0.27190  0.49910  0.57170  Biso   1.000  C
  C163     1.0000 0.25150  0.45690  0.61070  Biso   1.000  C
  H150     1.0000 0.22450  0.47160  0.63190  Biso   1.000  H
  H151     1.0000 0.27960  0.44550  0.63250  Biso   1.000  H
  H152     1.0000 0.23790  0.42780  0.59160  Biso   1.000  H
  C164     1.0000 0.31440  0.48410  0.53540  Biso   1.000  C
  C165     1.0000 0.32150  0.43070  0.52220  Biso   1.000  C
  H153     1.0000 0.29910  0.40520  0.53460  Biso   1.000  H
  C166     1.0000 0.36260  0.41800  0.49040  Biso   1.000  C
  H154     1.0000 0.36810  0.38330  0.48190  Biso   1.000  H
  C167     1.0000 0.39450  0.45370  0.47150  Biso   1.000  C
  C168     1.0000 0.38590  0.50750  0.48500  Biso   1.000  C
  H155     1.0000 0.40800  0.53320  0.47210  Biso   1.000  H
  C169     1.0000 0.34750  0.52020  0.51520  Biso   1.000  C
  H156     1.0000 0.34230  0.55510  0.52320  Biso   1.000  H
  N40      1.0000 0.69990  0.13390  0.06320  Biso   1.000  N
  N41      1.0000 0.71924  0.05894  0.10780  Biso   1.000  N
  H157     1.0000 0.71160  0.03680  0.13170  Biso   1.000  H
  N42      1.0000 0.75400  0.04580  0.07097  Biso   1.000  N
  C170     1.0000 0.67550  0.18080  0.06180  Biso   1.000  C
  H158     1.0000 0.67910  0.20150  0.03230  Biso   1.000  H
  C171     1.0000 0.64530  0.19880  0.10270  Biso   1.000  C
  H159     1.0000 0.62650  0.22960  0.09940  Biso   1.000  H
  C172     1.0000 0.64360  0.17110  0.14750  Biso   1.000  C
  H160     1.0000 0.62690  0.18460  0.17660  Biso   1.000  H
  C173     1.0000 0.66670  0.12290  0.14960  Biso   1.000  C
  H161     1.0000 0.66230  0.10230  0.17910  Biso   1.000  H
  C174     1.0000 0.69680  0.10440  0.10820  Biso   1.000  C
  C175     1.0000 0.77190  0.99910  0.07170  Biso   1.000  C
  C176     1.0000 0.75150  0.95690  0.11070  Biso   1.000  C
  H162     1.0000 0.72450  0.97160  0.13190  Biso   1.000  H
  H163     1.0000 0.77960  0.94550  0.13250  Biso   1.000  H
  H164     1.0000 0.73790  0.92780  0.09160  Biso   1.000  H
  C177     1.0000 0.81440  0.98410  0.03540  Biso   1.000  C
  C178     1.0000 0.82150  0.93070  0.02220  Biso   1.000  C
  H165     1.0000 0.79910  0.90520  0.03460  Biso   1.000  H
  C179     1.0000 0.86260  0.91800  0.99040  Biso   1.000  C
  H166     1.0000 0.86810  0.88330  0.98190  Biso   1.000  H
  C180     1.0000 0.89450  0.95370  0.97150  Biso   1.000  C
  C181     1.0000 0.88590  0.00750  0.98500  Biso   1.000  C
  H167     1.0000 0.90800  0.03320  0.97210  Biso   1.000  H
  C182     1.0000 0.84750  0.02020  0.01520  Biso   1.000  C
  H168     1.0000 0.84230  0.05510  0.02320  Biso   1.000  H
  N43      1.0000 0.69990  0.86610  0.43680  Biso   1.000  N
  N44      1.0000 0.71924  0.94106  0.39220  Biso   1.000  N
  H169     1.0000 0.71160  0.96320  0.36830  Biso   1.000  H
  N45      1.0000 0.75400  0.95420  0.42903  Biso   1.000  N
  C183     1.0000 0.67550  0.81920  0.43820  Biso   1.000  C
  H170     1.0000 0.67910  0.79850  0.46770  Biso   1.000  H
  C184     1.0000 0.64530  0.80120  0.39730  Biso   1.000  C
  H171     1.0000 0.62650  0.77040  0.40060  Biso   1.000  H
  C185     1.0000 0.64360  0.82890  0.35250  Biso   1.000  C
  H172     1.0000 0.62690  0.81540  0.32340  Biso   1.000  H
  C186     1.0000 0.66670  0.87710  0.35040  Biso   1.000  C
  H173     1.0000 0.66230  0.89770  0.32090  Biso   1.000  H
  C187     1.0000 0.69680  0.89560  0.39180  Biso   1.000  C
  C188     1.0000 0.77190  0.00090  0.42830  Biso   1.000  C
  C189     1.0000 0.75150  0.04310  0.38930  Biso   1.000  C
  H174     1.0000 0.72450  0.02840  0.36810  Biso   1.000  H
  H175     1.0000 0.77960  0.05450  0.36750  Biso   1.000  H
  H176     1.0000 0.73790  0.07220  0.40840  Biso   1.000  H
  C190     1.0000 0.81440  0.01590  0.46460  Biso   1.000  C
  C191     1.0000 0.82150  0.06930  0.47780  Biso   1.000  C
  H177     1.0000 0.79910  0.09480  0.46540  Biso   1.000  H
  C192     1.0000 0.86260  0.08200  0.50960  Biso   1.000  C
  H178     1.0000 0.86810  0.11670  0.51810  Biso   1.000  H
  C193     1.0000 0.89450  0.04630  0.52850  Biso   1.000  C
  C194     1.0000 0.88590  0.99250  0.51500  Biso   1.000  C
  H179     1.0000 0.90800  0.96680  0.52790  Biso   1.000  H
  C195     1.0000 0.84750  0.97980  0.48480  Biso   1.000  C
  H180     1.0000 0.84230  0.94490  0.47680  Biso   1.000  H
  N46      1.0000 0.19990  0.36610  0.93680  Biso   1.000  N
  N47      1.0000 0.21924  0.44106  0.89220  Biso   1.000  N
  H181     1.0000 0.21160  0.46320  0.86830  Biso   1.000  H
  N48      1.0000 0.25400  0.45420  0.92903  Biso   1.000  N
  C196     1.0000 0.17550  0.31920  0.93820  Biso   1.000  C
  H182     1.0000 0.17910  0.29850  0.96770  Biso   1.000  H
  C197     1.0000 0.14530  0.30120  0.89730  Biso   1.000  C
  H183     1.0000 0.12650  0.27040  0.90060  Biso   1.000  H
  C198     1.0000 0.14360  0.32890  0.85250  Biso   1.000  C
  H184     1.0000 0.12690  0.31540  0.82340  Biso   1.000  H
  C199     1.0000 0.16670  0.37710  0.85040  Biso   1.000  C
  H185     1.0000 0.16230  0.39770  0.82090  Biso   1.000  H
  C200     1.0000 0.19680  0.39560  0.89180  Biso   1.000  C
  C201     1.0000 0.27190  0.50090  0.92830  Biso   1.000  C
  C202     1.0000 0.25150  0.54310  0.88930  Biso   1.000  C
  H186     1.0000 0.22450  0.52840  0.86810  Biso   1.000  H
  H187     1.0000 0.27960  0.55450  0.86750  Biso   1.000  H
  H188     1.0000 0.23790  0.57220  0.90840  Biso   1.000  H
  C203     1.0000 0.31440  0.51590  0.96460  Biso   1.000  C
  C204     1.0000 0.32150  0.56930  0.97780  Biso   1.000  C
  H189     1.0000 0.29910  0.59480  0.96540  Biso   1.000  H
  C205     1.0000 0.36260  0.58200  0.00960  Biso   1.000  C
  H190     1.0000 0.36810  0.61670  0.01810  Biso   1.000  H
  C206     1.0000 0.39450  0.54630  0.02850  Biso   1.000  C
  C207     1.0000 0.38590  0.49250  0.01500  Biso   1.000  C
  H191     1.0000 0.40800  0.46680  0.02790  Biso   1.000  H
  C208     1.0000 0.34750  0.47980  0.98480  Biso   1.000  C
  H192     1.0000 0.34230  0.44490  0.97680  Biso   1.000  H
  N49      1.0000 0.06320  0.30010  0.36610  Biso   1.000  N
  N50      1.0000 0.10780  0.28076  0.44106  Biso   1.000  N
  H193     1.0000 0.13170  0.28840  0.46320  Biso   1.000  H
  N51      1.0000 0.07097  0.24600  0.45420  Biso   1.000  N
  C209     1.0000 0.06180  0.32450  0.31920  Biso   1.000  C
  H194     1.0000 0.03230  0.32090  0.29850  Biso   1.000  H
  C210     1.0000 0.10270  0.35470  0.30120  Biso   1.000  C
  H195     1.0000 0.09940  0.37350  0.27040  Biso   1.000  H
  C211     1.0000 0.14750  0.35640  0.32890  Biso   1.000  C
  H196     1.0000 0.17660  0.37310  0.31540  Biso   1.000  H
  C212     1.0000 0.14960  0.33330  0.37710  Biso   1.000  C
  H197     1.0000 0.17910  0.33770  0.39770  Biso   1.000  H
  C213     1.0000 0.10820  0.30320  0.39560  Biso   1.000  C
  C214     1.0000 0.07170  0.22810  0.50090  Biso   1.000  C
  C215     1.0000 0.11070  0.24850  0.54310  Biso   1.000  C
  H198     1.0000 0.13190  0.27550  0.52840  Biso   1.000  H
  H199     1.0000 0.13250  0.22040  0.55450  Biso   1.000  H
  H200     1.0000 0.09160  0.26210  0.57220  Biso   1.000  H
  C216     1.0000 0.03540  0.18560  0.51590  Biso   1.000  C
  C217     1.0000 0.02220  0.17850  0.56930  Biso   1.000  C
  H201     1.0000 0.03460  0.20090  0.59480  Biso   1.000  H
  C218     1.0000 0.99040  0.13740  0.58200  Biso   1.000  C
  H202     1.0000 0.98190  0.13190  0.61670  Biso   1.000  H
  C219     1.0000 0.97150  0.10550  0.54630  Biso   1.000  C
  C220     1.0000 0.98500  0.11410  0.49250  Biso   1.000  C
  H203     1.0000 0.97210  0.09200  0.46680  Biso   1.000  H
  C221     1.0000 0.01520  0.15250  0.47980  Biso   1.000  C
  H204     1.0000 0.02320  0.15770  0.44490  Biso   1.000  H
  N52      1.0000 0.56320  0.80010  0.86610  Biso   1.000  N
  N53      1.0000 0.60780  0.78076  0.94106  Biso   1.000  N
  H205     1.0000 0.63170  0.78840  0.96320  Biso   1.000  H
  N54      1.0000 0.57097  0.74600  0.95420  Biso   1.000  N
  C222     1.0000 0.56180  0.82450  0.81920  Biso   1.000  C
  H206     1.0000 0.53230  0.82090  0.79850  Biso   1.000  H
  C223     1.0000 0.60270  0.85470  0.80120  Biso   1.000  C
  H207     1.0000 0.59940  0.87350  0.77040  Biso   1.000  H
  C224     1.0000 0.64750  0.85640  0.82890  Biso   1.000  C
  H208     1.0000 0.67660  0.87310  0.81540  Biso   1.000  H
  C225     1.0000 0.64960  0.83330  0.87710  Biso   1.000  C
  H209     1.0000 0.67910  0.83770  0.89770  Biso   1.000  H
  C226     1.0000 0.60820  0.80320  0.89560  Biso   1.000  C
  C227     1.0000 0.57170  0.72810  0.00090  Biso   1.000  C
  C228     1.0000 0.61070  0.74850  0.04310  Biso   1.000  C
  H210     1.0000 0.63190  0.77550  0.02840  Biso   1.000  H
  H211     1.0000 0.63250  0.72040  0.05450  Biso   1.000  H
  H212     1.0000 0.59160  0.76210  0.07220  Biso   1.000  H
  C229     1.0000 0.53540  0.68560  0.01590  Biso   1.000  C
  C230     1.0000 0.52220  0.67850  0.06930  Biso   1.000  C
  H213     1.0000 0.53460  0.70090  0.09480  Biso   1.000  H
  C231     1.0000 0.49040  0.63740  0.08200  Biso   1.000  C
  H214     1.0000 0.48190  0.63190  0.11670  Biso   1.000  H
  C232     1.0000 0.47150  0.60550  0.04630  Biso   1.000  C
  C233     1.0000 0.48500  0.61410  0.99250  Biso   1.000  C
  H215     1.0000 0.47210  0.59200  0.96680  Biso   1.000  H
  C234     1.0000 0.51520  0.65250  0.97980  Biso   1.000  C
  H216     1.0000 0.52320  0.65770  0.94490  Biso   1.000  H
  N55      1.0000 0.93680  0.80010  0.13390  Biso   1.000  N
  N56      1.0000 0.89220  0.78076  0.05894  Biso   1.000  N
  H217     1.0000 0.86830  0.78840  0.03680  Biso   1.000  H
  N57      1.0000 0.92903  0.74600  0.04580  Biso   1.000  N
  C235     1.0000 0.93820  0.82450  0.18080  Biso   1.000  C
  H218     1.0000 0.96770  0.82090  0.20150  Biso   1.000  H
  C236     1.0000 0.89730  0.85470  0.19880  Biso   1.000  C
  H219     1.0000 0.90060  0.87350  0.22960  Biso   1.000  H
  C237     1.0000 0.85250  0.85640  0.17110  Biso   1.000  C
  H220     1.0000 0.82340  0.87310  0.18460  Biso   1.000  H
  C238     1.0000 0.85040  0.83330  0.12290  Biso   1.000  C
  H221     1.0000 0.82090  0.83770  0.10230  Biso   1.000  H
  C239     1.0000 0.89180  0.80320  0.10440  Biso   1.000  C
  C240     1.0000 0.92830  0.72810  0.99910  Biso   1.000  C
  C241     1.0000 0.88930  0.74850  0.95690  Biso   1.000  C
  H222     1.0000 0.86810  0.77550  0.97160  Biso   1.000  H
  H223     1.0000 0.86750  0.72040  0.94550  Biso   1.000  H
  H224     1.0000 0.90840  0.76210  0.92780  Biso   1.000  H
  C242     1.0000 0.96460  0.68560  0.98410  Biso   1.000  C
  C243     1.0000 0.97780  0.67850  0.93070  Biso   1.000  C
  H225     1.0000 0.96540  0.70090  0.90520  Biso   1.000  H
  C244     1.0000 0.00960  0.63740  0.91800  Biso   1.000  C
  H226     1.0000 0.01810  0.63190  0.88330  Biso   1.000  H
  C245     1.0000 0.02850  0.60550  0.95370  Biso   1.000  C
  C246     1.0000 0.01500  0.61410  0.00750  Biso   1.000  C
  H227     1.0000 0.02790  0.59200  0.03320  Biso   1.000  H
  C247     1.0000 0.98480  0.65250  0.02020  Biso   1.000  C
  H228     1.0000 0.97680  0.65770  0.05510  Biso   1.000  H
  N58      1.0000 0.43680  0.30010  0.63390  Biso   1.000  N
  N59      1.0000 0.39220  0.28076  0.55894  Biso   1.000  N
  H229     1.0000 0.36830  0.28840  0.53680  Biso   1.000  H
  N60      1.0000 0.42903  0.24600  0.54580  Biso   1.000  N
  C248     1.0000 0.43820  0.32450  0.68080  Biso   1.000  C
  H230     1.0000 0.46770  0.32090  0.70150  Biso   1.000  H
  C249     1.0000 0.39730  0.35470  0.69880  Biso   1.000  C
  H231     1.0000 0.40060  0.37350  0.72960  Biso   1.000  H
  C250     1.0000 0.35250  0.35640  0.67110  Biso   1.000  C
  H232     1.0000 0.32340  0.37310  0.68460  Biso   1.000  H
  C251     1.0000 0.35040  0.33330  0.62290  Biso   1.000  C
  H233     1.0000 0.32090  0.33770  0.60230  Biso   1.000  H
  C252     1.0000 0.39180  0.30320  0.60440  Biso   1.000  C
  C253     1.0000 0.42830  0.22810  0.49910  Biso   1.000  C
  C254     1.0000 0.38930  0.24850  0.45690  Biso   1.000  C
  H234     1.0000 0.36810  0.27550  0.47160  Biso   1.000  H
  H235     1.0000 0.36750  0.22040  0.44550  Biso   1.000  H
  H236     1.0000 0.40840  0.26210  0.42780  Biso   1.000  H
  C255     1.0000 0.46460  0.18560  0.48410  Biso   1.000  C
  C256     1.0000 0.47780  0.17850  0.43070  Biso   1.000  C
  H237     1.0000 0.46540  0.20090  0.40520  Biso   1.000  H
  C257     1.0000 0.50960  0.13740  0.41800  Biso   1.000  C
  H238     1.0000 0.51810  0.13190  0.38330  Biso   1.000  H
  C258     1.0000 0.52850  0.10550  0.45370  Biso   1.000  C
  C259     1.0000 0.51500  0.11410  0.50750  Biso   1.000  C
  H239     1.0000 0.52790  0.09200  0.53320  Biso   1.000  H
  C260     1.0000 0.48480  0.15250  0.52020  Biso   1.000  C
  H240     1.0000 0.47680  0.15770  0.55510  Biso   1.000  H
  N61      1.0000 0.56320  0.19990  0.63390  Biso   1.000  N
  N62      1.0000 0.60780  0.21924  0.55894  Biso   1.000  N
  H241     1.0000 0.63170  0.21160  0.53680  Biso   1.000  H
  N63      1.0000 0.57097  0.25400  0.54580  Biso   1.000  N
  C261     1.0000 0.56180  0.17550  0.68080  Biso   1.000  C
  H242     1.0000 0.53230  0.17910  0.70150  Biso   1.000  H
  C262     1.0000 0.60270  0.14530  0.69880  Biso   1.000  C
  H243     1.0000 0.59940  0.12650  0.72960  Biso   1.000  H
  C263     1.0000 0.64750  0.14360  0.67110  Biso   1.000  C
  H244     1.0000 0.67660  0.12690  0.68460  Biso   1.000  H
  C264     1.0000 0.64960  0.16670  0.62290  Biso   1.000  C
  H245     1.0000 0.67910  0.16230  0.60230  Biso   1.000  H
  C265     1.0000 0.60820  0.19680  0.60440  Biso   1.000  C
  C266     1.0000 0.57170  0.27190  0.49910  Biso   1.000  C
  C267     1.0000 0.61070  0.25150  0.45690  Biso   1.000  C
  H246     1.0000 0.63190  0.22450  0.47160  Biso   1.000  H
  H247     1.0000 0.63250  0.27960  0.44550  Biso   1.000  H
  H248     1.0000 0.59160  0.23790  0.42780  Biso   1.000  H
  C268     1.0000 0.53540  0.31440  0.48410  Biso   1.000  C
  C269     1.0000 0.52220  0.32150  0.43070  Biso   1.000  C
  H249     1.0000 0.53460  0.29910  0.40520  Biso   1.000  H
  C270     1.0000 0.49040  0.36260  0.41800  Biso   1.000  C
  H250     1.0000 0.48190  0.36810  0.38330  Biso   1.000  H
  C271     1.0000 0.47150  0.39450  0.45370  Biso   1.000  C
  C272     1.0000 0.48500  0.38590  0.50750  Biso   1.000  C
  H251     1.0000 0.47210  0.40800  0.53320  Biso   1.000  H
  C273     1.0000 0.51520  0.34750  0.52020  Biso   1.000  C
  H252     1.0000 0.52320  0.34230  0.55510  Biso   1.000  H
  N64      1.0000 0.06320  0.69990  0.13390  Biso   1.000  N
  N65      1.0000 0.10780  0.71924  0.05894  Biso   1.000  N
  H253     1.0000 0.13170  0.71160  0.03680  Biso   1.000  H
  N66      1.0000 0.07097  0.75400  0.04580  Biso   1.000  N
  C274     1.0000 0.06180  0.67550  0.18080  Biso   1.000  C
  H254     1.0000 0.03230  0.67910  0.20150  Biso   1.000  H
  C275     1.0000 0.10270  0.64530  0.19880  Biso   1.000  C
  H255     1.0000 0.09940  0.62650  0.22960  Biso   1.000  H
  C276     1.0000 0.14750  0.64360  0.17110  Biso   1.000  C
  H256     1.0000 0.17660  0.62690  0.18460  Biso   1.000  H
  C277     1.0000 0.14960  0.66670  0.12290  Biso   1.000  C
  H257     1.0000 0.17910  0.66230  0.10230  Biso   1.000  H
  C278     1.0000 0.10820  0.69680  0.10440  Biso   1.000  C
  C279     1.0000 0.07170  0.77190  0.99910  Biso   1.000  C
  C280     1.0000 0.11070  0.75150  0.95690  Biso   1.000  C
  H258     1.0000 0.13190  0.72450  0.97160  Biso   1.000  H
  H259     1.0000 0.13250  0.77960  0.94550  Biso   1.000  H
  H260     1.0000 0.09160  0.73790  0.92780  Biso   1.000  H
  C281     1.0000 0.03540  0.81440  0.98410  Biso   1.000  C
  C282     1.0000 0.02220  0.82150  0.93070  Biso   1.000  C
  H261     1.0000 0.03460  0.79910  0.90520  Biso   1.000  H
  C283     1.0000 0.99040  0.86260  0.91800  Biso   1.000  C
  H262     1.0000 0.98190  0.86810  0.88330  Biso   1.000  H
  C284     1.0000 0.97150  0.89450  0.95370  Biso   1.000  C
  C285     1.0000 0.98500  0.88590  0.00750  Biso   1.000  C
  H263     1.0000 0.97210  0.90800  0.03320  Biso   1.000  H
  C286     1.0000 0.01520  0.84750  0.02020  Biso   1.000  C
  H264     1.0000 0.02320  0.84230  0.05510  Biso   1.000  H
  N67      1.0000 0.43680  0.69990  0.86610  Biso   1.000  N
  N68      1.0000 0.39220  0.71924  0.94106  Biso   1.000  N
  H265     1.0000 0.36830  0.71160  0.96320  Biso   1.000  H
  N69      1.0000 0.42903  0.75400  0.95420  Biso   1.000  N
  C287     1.0000 0.43820  0.67550  0.81920  Biso   1.000  C
  H266     1.0000 0.46770  0.67910  0.79850  Biso   1.000  H
  C288     1.0000 0.39730  0.64530  0.80120  Biso   1.000  C
  H267     1.0000 0.40060  0.62650  0.77040  Biso   1.000  H
  C289     1.0000 0.35250  0.64360  0.82890  Biso   1.000  C
  H268     1.0000 0.32340  0.62690  0.81540  Biso   1.000  H
  C290     1.0000 0.35040  0.66670  0.87710  Biso   1.000  C
  H269     1.0000 0.32090  0.66230  0.89770  Biso   1.000  H
  C291     1.0000 0.39180  0.69680  0.89560  Biso   1.000  C
  C292     1.0000 0.42830  0.77190  0.00090  Biso   1.000  C
  C293     1.0000 0.38930  0.75150  0.04310  Biso   1.000  C
  H270     1.0000 0.36810  0.72450  0.02840  Biso   1.000  H
  H271     1.0000 0.36750  0.77960  0.05450  Biso   1.000  H
  H272     1.0000 0.40840  0.73790  0.07220  Biso   1.000  H
  C294     1.0000 0.46460  0.81440  0.01590  Biso   1.000  C
  C295     1.0000 0.47780  0.82150  0.06930  Biso   1.000  C
  H273     1.0000 0.46540  0.79910  0.09480  Biso   1.000  H
  C296     1.0000 0.50960  0.86260  0.08200  Biso   1.000  C
  H274     1.0000 0.51810  0.86810  0.11670  Biso   1.000  H
  C297     1.0000 0.52850  0.89450  0.04630  Biso   1.000  C
  C298     1.0000 0.51500  0.88590  0.99250  Biso   1.000  C
  H275     1.0000 0.52790  0.90800  0.96680  Biso   1.000  H
  C299     1.0000 0.48480  0.84750  0.97980  Biso   1.000  C
  H276     1.0000 0.47680  0.84230  0.94490  Biso   1.000  H
  N70      1.0000 0.93680  0.19990  0.36610  Biso   1.000  N
  N71      1.0000 0.89220  0.21924  0.44106  Biso   1.000  N
  H277     1.0000 0.86830  0.21160  0.46320  Biso   1.000  H
  N72      1.0000 0.92903  0.25400  0.45420  Biso   1.000  N
  C300     1.0000 0.93820  0.17550  0.31920  Biso   1.000  C
  H278     1.0000 0.96770  0.17910  0.29850  Biso   1.000  H
  C301     1.0000 0.89730  0.14530  0.30120  Biso   1.000  C
  H279     1.0000 0.90060  0.12650  0.27040  Biso   1.000  H
  C302     1.0000 0.85250  0.14360  0.32890  Biso   1.000  C
  H280     1.0000 0.82340  0.12690  0.31540  Biso   1.000  H
  C303     1.0000 0.85040  0.16670  0.37710  Biso   1.000  C
  H281     1.0000 0.82090  0.16230  0.39770  Biso   1.000  H
  C304     1.0000 0.89180  0.19680  0.39560  Biso   1.000  C
  C305     1.0000 0.92830  0.27190  0.50090  Biso   1.000  C
  C306     1.0000 0.88930  0.25150  0.54310  Biso   1.000  C
  H282     1.0000 0.86810  0.22450  0.52840  Biso   1.000  H
  H283     1.0000 0.86750  0.27960  0.55450  Biso   1.000  H
  H284     1.0000 0.90840  0.23790  0.57220  Biso   1.000  H
  C307     1.0000 0.96460  0.31440  0.51590  Biso   1.000  C
  C308     1.0000 0.97780  0.32150  0.56930  Biso   1.000  C
  H285     1.0000 0.96540  0.29910  0.59480  Biso   1.000  H
  C309     1.0000 0.00960  0.36260  0.58200  Biso   1.000  C
  H286     1.0000 0.01810  0.36810  0.61670  Biso   1.000  H
  C310     1.0000 0.02850  0.39450  0.54630  Biso   1.000  C
  C311     1.0000 0.01500  0.38590  0.49250  Biso   1.000  C
  H287     1.0000 0.02790  0.40800  0.46680  Biso   1.000  H
  C312     1.0000 0.98480  0.34750  0.47980  Biso   1.000  C
  H288     1.0000 0.97680  0.34230  0.44490  Biso   1.000  H
  Ag1      1.0000 0.39410  0.00000  0.25000  Biso   1.000  Ag
  Ag2      1.0000 0.10590  0.00000  0.75000  Biso   1.000  Ag
  Ag3      1.0000 0.60590  0.50000  0.25000  Biso   1.000  Ag
  Ag4      1.0000 0.89410  0.50000  0.75000  Biso   1.000  Ag
  Ag5      1.0000 0.25000  0.39410  0.00000  Biso   1.000  Ag
  Ag6      1.0000 0.75000  0.10590  0.00000  Biso   1.000  Ag
  Ag7      1.0000 0.25000  0.60590  0.50000  Biso   1.000  Ag
  Ag8      1.0000 0.75000  0.89410  0.50000  Biso   1.000  Ag
  Ag9      1.0000 0.00000  0.25000  0.39410  Biso   1.000  Ag
  Ag10     1.0000 0.00000  0.75000  0.10590  Biso   1.000  Ag
  Ag11     1.0000 0.50000  0.25000  0.60590  Biso   1.000  Ag
  Ag12     1.0000 0.50000  0.75000  0.89410  Biso   1.000  Ag
  N73      1.0000 0.56220  0.93780  0.06220  Biso   1.000  N
  N74      1.0000 0.06220  0.43780  0.56220  Biso   1.000  N
  N75      1.0000 0.93780  0.06220  0.56220  Biso   1.000  N
  N76      1.0000 0.43780  0.56220  0.06220  Biso   1.000  N
  N77      1.0000 0.43780  0.43780  0.43780  Biso   1.000  N
  N78      1.0000 0.93780  0.93780  0.93780  Biso   1.000  N
  N79      1.0000 0.06220  0.56220  0.93780  Biso   1.000  N
  N80      1.0000 0.56220  0.06220  0.43780  Biso   1.000  N
