data_image0
_cell_length_a       25.381
_cell_length_b       25.381
_cell_length_c       25.381
_cell_angle_alpha    90
_cell_angle_beta     90
_cell_angle_gamma    90

_symmetry_space_group_name_H-M    "P 1"
_symmetry_int_tables_number       1

loop_
  _symmetry_equiv_pos_as_xyz
  'x, y, z'

loop_
  _atom_site_label
  _atom_site_occupancy
  _atom_site_fract_x
  _atom_site_fract_y
  _atom_site_fract_z
  _atom_site_thermal_displace_type
  _atom_site_B_iso_or_equiv
  _atom_site_type_symbol
  N1       1.0000 0.63780  0.93700  0.69640  Biso   1.000  N
  N2       1.0000 0.56230  0.89200  0.71640  Biso   1.000  N
  H1       1.0000 0.53950  0.86800  0.70910  Biso   1.000  H
  N3       1.0000 0.55050  0.92810  0.75250  Biso   1.000  N
  C1       1.0000 0.68460  0.93790  0.67410  Biso   1.000  C
  H2       1.0000 0.70530  0.96770  0.67850  Biso   1.000  H
  C2       1.0000 0.70530  0.89540  0.64350  Biso   1.000  C
  H3       1.0000 0.73710  0.89830  0.62560  Biso   1.000  H
  C3       1.0000 0.67580  0.85020  0.64210  Biso   1.000  C
  H4       1.0000 0.68900  0.82030  0.62560  Biso   1.000  H
  C4       1.0000 0.62720  0.84920  0.66490  Biso   1.000  C
  H5       1.0000 0.60710  0.81880  0.66200  Biso   1.000  H
  C5       1.0000 0.60680  0.89180  0.69210  Biso   1.000  C
  C6       1.0000 0.50260  0.92640  0.76920  Biso   1.000  C
  C7       1.0000 0.46010  0.89200  0.74650  Biso   1.000  C
  H6       1.0000 0.47470  0.87030  0.71910  Biso   1.000  H
  H7       1.0000 0.43260  0.91370  0.73210  Biso   1.000  H
  H8       1.0000 0.44580  0.87000  0.77370  Biso   1.000  H
  C8       1.0000 0.48750  0.96000  0.81450  Biso   1.000  C
  C9       1.0000 0.43560  0.97730  0.82260  Biso   1.000  C
  H9       1.0000 0.41000  0.96740  0.79840  Biso   1.000  H
  C10      1.0000 0.42020  0.00870  0.86520  Biso   1.000  C
  H10      1.0000 0.38510  0.01690  0.87130  Biso   1.000  H
  C11      1.0000 0.45730  0.02580  0.89570  Biso   1.000  C
  C12      1.0000 0.51050  0.01310  0.88900  Biso   1.000  C
  H11      1.0000 0.53620  0.02580  0.91180  Biso   1.000  H
  C13      1.0000 0.52310  0.98180  0.84820  Biso   1.000  C
  H12      1.0000 0.55860  0.97460  0.84250  Biso   1.000  H
  N4       1.0000 0.13780  0.43700  0.19640  Biso   1.000  N
  N5       1.0000 0.06230  0.39200  0.21640  Biso   1.000  N
  H13      1.0000 0.03950  0.36800  0.20910  Biso   1.000  H
  N6       1.0000 0.05050  0.42810  0.25250  Biso   1.000  N
  C14      1.0000 0.18460  0.43790  0.17410  Biso   1.000  C
  H14      1.0000 0.20530  0.46770  0.17850  Biso   1.000  H
  C15      1.0000 0.20530  0.39540  0.14350  Biso   1.000  C
  H15      1.0000 0.23710  0.39830  0.12560  Biso   1.000  H
  C16      1.0000 0.17580  0.35020  0.14210  Biso   1.000  C
  H16      1.0000 0.18900  0.32030  0.12560  Biso   1.000  H
  C17      1.0000 0.12720  0.34920  0.16490  Biso   1.000  C
  H17      1.0000 0.10710  0.31880  0.16200  Biso   1.000  H
  C18      1.0000 0.10680  0.39180  0.19210  Biso   1.000  C
  C19      1.0000 0.00260  0.42640  0.26920  Biso   1.000  C
  C20      1.0000 0.96010  0.39200  0.24650  Biso   1.000  C
  H18      1.0000 0.97470  0.37030  0.21910  Biso   1.000  H
  H19      1.0000 0.93260  0.41370  0.23210  Biso   1.000  H
  H20      1.0000 0.94580  0.37000  0.27370  Biso   1.000  H
  C21      1.0000 0.98750  0.46000  0.31450  Biso   1.000  C
  C22      1.0000 0.93560  0.47730  0.32260  Biso   1.000  C
  H21      1.0000 0.91000  0.46740  0.29840  Biso   1.000  H
  C23      1.0000 0.92020  0.50870  0.36520  Biso   1.000  C
  H22      1.0000 0.88510  0.51690  0.37130  Biso   1.000  H
  C24      1.0000 0.95730  0.52580  0.39570  Biso   1.000  C
  C25      1.0000 0.01050  0.51310  0.38900  Biso   1.000  C
  H23      1.0000 0.03620  0.52580  0.41180  Biso   1.000  H
  C26      1.0000 0.02310  0.48180  0.34820  Biso   1.000  C
  H24      1.0000 0.05860  0.47460  0.34250  Biso   1.000  H
  N7       1.0000 0.86220  0.06300  0.19640  Biso   1.000  N
  N8       1.0000 0.93770  0.10800  0.21640  Biso   1.000  N
  H25      1.0000 0.96050  0.13200  0.20910  Biso   1.000  H
  N9       1.0000 0.94950  0.07190  0.25250  Biso   1.000  N
  C27      1.0000 0.81540  0.06210  0.17410  Biso   1.000  C
  H26      1.0000 0.79470  0.03230  0.17850  Biso   1.000  H
  C28      1.0000 0.79470  0.10460  0.14350  Biso   1.000  C
  H27      1.0000 0.76290  0.10170  0.12560  Biso   1.000  H
  C29      1.0000 0.82420  0.14980  0.14210  Biso   1.000  C
  H28      1.0000 0.81100  0.17970  0.12560  Biso   1.000  H
  C30      1.0000 0.87280  0.15080  0.16490  Biso   1.000  C
  H29      1.0000 0.89290  0.18120  0.16200  Biso   1.000  H
  C31      1.0000 0.89320  0.10820  0.19210  Biso   1.000  C
  C32      1.0000 0.99740  0.07360  0.26920  Biso   1.000  C
  C33      1.0000 0.03990  0.10800  0.24650  Biso   1.000  C
  H30      1.0000 0.02530  0.12970  0.21910  Biso   1.000  H
  H31      1.0000 0.06740  0.08630  0.23210  Biso   1.000  H
  H32      1.0000 0.05420  0.13000  0.27370  Biso   1.000  H
  C34      1.0000 0.01250  0.04000  0.31450  Biso   1.000  C
  C35      1.0000 0.06440  0.02270  0.32260  Biso   1.000  C
  H33      1.0000 0.09000  0.03260  0.29840  Biso   1.000  H
  C36      1.0000 0.07980  0.99130  0.36520  Biso   1.000  C
  H34      1.0000 0.11490  0.98310  0.37130  Biso   1.000  H
  C37      1.0000 0.04270  0.97420  0.39570  Biso   1.000  C
  C38      1.0000 0.98950  0.98690  0.38900  Biso   1.000  C
  H35      1.0000 0.96380  0.97420  0.41180  Biso   1.000  H
  C39      1.0000 0.97690  0.01820  0.34820  Biso   1.000  C
  H36      1.0000 0.94140  0.02540  0.34250  Biso   1.000  H
  N10      1.0000 0.36220  0.56300  0.69640  Biso   1.000  N
  N11      1.0000 0.43770  0.60800  0.71640  Biso   1.000  N
  H37      1.0000 0.46050  0.63200  0.70910  Biso   1.000  H
  N12      1.0000 0.44950  0.57190  0.75250  Biso   1.000  N
  C40      1.0000 0.31540  0.56210  0.67410  Biso   1.000  C
  H38      1.0000 0.29470  0.53230  0.67850  Biso   1.000  H
  C41      1.0000 0.29470  0.60460  0.64350  Biso   1.000  C
  H39      1.0000 0.26290  0.60170  0.62560  Biso   1.000  H
  C42      1.0000 0.32420  0.64980  0.64210  Biso   1.000  C
  H40      1.0000 0.31100  0.67970  0.62560  Biso   1.000  H
  C43      1.0000 0.37280  0.65080  0.66490  Biso   1.000  C
  H41      1.0000 0.39290  0.68120  0.66200  Biso   1.000  H
  C44      1.0000 0.39320  0.60820  0.69210  Biso   1.000  C
  C45      1.0000 0.49740  0.57360  0.76920  Biso   1.000  C
  C46      1.0000 0.53990  0.60800  0.74650  Biso   1.000  C
  H42      1.0000 0.52530  0.62970  0.71910  Biso   1.000  H
  H43      1.0000 0.56740  0.58630  0.73210  Biso   1.000  H
  H44      1.0000 0.55420  0.63000  0.77370  Biso   1.000  H
  C47      1.0000 0.51250  0.54000  0.81450  Biso   1.000  C
  C48      1.0000 0.56440  0.52270  0.82260  Biso   1.000  C
  H45      1.0000 0.59000  0.53260  0.79840  Biso   1.000  H
  C49      1.0000 0.57980  0.49130  0.86520  Biso   1.000  C
  H46      1.0000 0.61490  0.48310  0.87130  Biso   1.000  H
  C50      1.0000 0.54270  0.47420  0.89570  Biso   1.000  C
  C51      1.0000 0.48950  0.48690  0.88900  Biso   1.000  C
  H47      1.0000 0.46380  0.47420  0.91180  Biso   1.000  H
  C52      1.0000 0.47690  0.51820  0.84820  Biso   1.000  C
  H48      1.0000 0.44140  0.52540  0.84250  Biso   1.000  H
  N13      1.0000 0.36220  0.43700  0.80360  Biso   1.000  N
  N14      1.0000 0.43770  0.39200  0.78360  Biso   1.000  N
  H49      1.0000 0.46050  0.36800  0.79090  Biso   1.000  H
  N15      1.0000 0.44950  0.42810  0.74750  Biso   1.000  N
  C53      1.0000 0.31540  0.43790  0.82590  Biso   1.000  C
  H50      1.0000 0.29470  0.46770  0.82150  Biso   1.000  H
  C54      1.0000 0.29470  0.39540  0.85650  Biso   1.000  C
  H51      1.0000 0.26290  0.39830  0.87440  Biso   1.000  H
  C55      1.0000 0.32420  0.35020  0.85790  Biso   1.000  C
  H52      1.0000 0.31100  0.32030  0.87440  Biso   1.000  H
  C56      1.0000 0.37280  0.34920  0.83510  Biso   1.000  C
  H53      1.0000 0.39290  0.31880  0.83800  Biso   1.000  H
  C57      1.0000 0.39320  0.39180  0.80790  Biso   1.000  C
  C58      1.0000 0.49740  0.42640  0.73080  Biso   1.000  C
  C59      1.0000 0.53990  0.39200  0.75350  Biso   1.000  C
  H54      1.0000 0.52530  0.37030  0.78090  Biso   1.000  H
  H55      1.0000 0.56740  0.41370  0.76790  Biso   1.000  H
  H56      1.0000 0.55420  0.37000  0.72630  Biso   1.000  H
  C60      1.0000 0.51250  0.46000  0.68550  Biso   1.000  C
  C61      1.0000 0.56440  0.47730  0.67740  Biso   1.000  C
  H57      1.0000 0.59000  0.46740  0.70160  Biso   1.000  H
  C62      1.0000 0.57980  0.50870  0.63480  Biso   1.000  C
  H58      1.0000 0.61490  0.51690  0.62870  Biso   1.000  H
  C63      1.0000 0.54270  0.52580  0.60430  Biso   1.000  C
  C64      1.0000 0.48950  0.51310  0.61100  Biso   1.000  C
  H59      1.0000 0.46380  0.52580  0.58820  Biso   1.000  H
  C65      1.0000 0.47690  0.48180  0.65180  Biso   1.000  C
  H60      1.0000 0.44140  0.47460  0.65750  Biso   1.000  H
  N16      1.0000 0.86220  0.93700  0.30360  Biso   1.000  N
  N17      1.0000 0.93770  0.89200  0.28360  Biso   1.000  N
  H61      1.0000 0.96050  0.86800  0.29090  Biso   1.000  H
  N18      1.0000 0.94950  0.92810  0.24750  Biso   1.000  N
  C66      1.0000 0.81540  0.93790  0.32590  Biso   1.000  C
  H62      1.0000 0.79470  0.96770  0.32150  Biso   1.000  H
  C67      1.0000 0.79470  0.89540  0.35650  Biso   1.000  C
  H63      1.0000 0.76290  0.89830  0.37440  Biso   1.000  H
  C68      1.0000 0.82420  0.85020  0.35790  Biso   1.000  C
  H64      1.0000 0.81100  0.82030  0.37440  Biso   1.000  H
  C69      1.0000 0.87280  0.84920  0.33510  Biso   1.000  C
  H65      1.0000 0.89290  0.81880  0.33800  Biso   1.000  H
  C70      1.0000 0.89320  0.89180  0.30790  Biso   1.000  C
  C71      1.0000 0.99740  0.92640  0.23080  Biso   1.000  C
  C72      1.0000 0.03990  0.89200  0.25350  Biso   1.000  C
  H66      1.0000 0.02530  0.87030  0.28090  Biso   1.000  H
  H67      1.0000 0.06740  0.91370  0.26790  Biso   1.000  H
  H68      1.0000 0.05420  0.87000  0.22630  Biso   1.000  H
  C73      1.0000 0.01250  0.96000  0.18550  Biso   1.000  C
  C74      1.0000 0.06440  0.97730  0.17740  Biso   1.000  C
  H69      1.0000 0.09000  0.96740  0.20160  Biso   1.000  H
  C75      1.0000 0.07980  0.00870  0.13480  Biso   1.000  C
  H70      1.0000 0.11490  0.01690  0.12870  Biso   1.000  H
  C76      1.0000 0.04270  0.02580  0.10430  Biso   1.000  C
  C77      1.0000 0.98950  0.01310  0.11100  Biso   1.000  C
  H71      1.0000 0.96380  0.02580  0.08820  Biso   1.000  H
  C78      1.0000 0.97690  0.98180  0.15180  Biso   1.000  C
  H72      1.0000 0.94140  0.97460  0.15750  Biso   1.000  H
  N19      1.0000 0.13780  0.56300  0.30360  Biso   1.000  N
  N20      1.0000 0.06230  0.60800  0.28360  Biso   1.000  N
  H73      1.0000 0.03950  0.63200  0.29090  Biso   1.000  H
  N21      1.0000 0.05050  0.57190  0.24750  Biso   1.000  N
  C79      1.0000 0.18460  0.56210  0.32590  Biso   1.000  C
  H74      1.0000 0.20530  0.53230  0.32150  Biso   1.000  H
  C80      1.0000 0.20530  0.60460  0.35650  Biso   1.000  C
  H75      1.0000 0.23710  0.60170  0.37440  Biso   1.000  H
  C81      1.0000 0.17580  0.64980  0.35790  Biso   1.000  C
  H76      1.0000 0.18900  0.67970  0.37440  Biso   1.000  H
  C82      1.0000 0.12720  0.65080  0.33510  Biso   1.000  C
  H77      1.0000 0.10710  0.68120  0.33800  Biso   1.000  H
  C83      1.0000 0.10680  0.60820  0.30790  Biso   1.000  C
  C84      1.0000 0.00260  0.57360  0.23080  Biso   1.000  C
  C85      1.0000 0.96010  0.60800  0.25350  Biso   1.000  C
  H78      1.0000 0.97470  0.62970  0.28090  Biso   1.000  H
  H79      1.0000 0.93260  0.58630  0.26790  Biso   1.000  H
  H80      1.0000 0.94580  0.63000  0.22630  Biso   1.000  H
  C86      1.0000 0.98750  0.54000  0.18550  Biso   1.000  C
  C87      1.0000 0.93560  0.52270  0.17740  Biso   1.000  C
  H81      1.0000 0.91000  0.53260  0.20160  Biso   1.000  H
  C88      1.0000 0.92020  0.49130  0.13480  Biso   1.000  C
  H82      1.0000 0.88510  0.48310  0.12870  Biso   1.000  H
  C89      1.0000 0.95730  0.47420  0.10430  Biso   1.000  C
  C90      1.0000 0.01050  0.48690  0.11100  Biso   1.000  C
  H83      1.0000 0.03620  0.47420  0.08820  Biso   1.000  H
  C91      1.0000 0.02310  0.51820  0.15180  Biso   1.000  C
  H84      1.0000 0.05860  0.52540  0.15750  Biso   1.000  H
  N22      1.0000 0.63780  0.06300  0.80360  Biso   1.000  N
  N23      1.0000 0.56230  0.10800  0.78360  Biso   1.000  N
  H85      1.0000 0.53950  0.13200  0.79090  Biso   1.000  H
  N24      1.0000 0.55050  0.07190  0.74750  Biso   1.000  N
  C92      1.0000 0.68460  0.06210  0.82590  Biso   1.000  C
  H86      1.0000 0.70530  0.03230  0.82150  Biso   1.000  H
  C93      1.0000 0.70530  0.10460  0.85650  Biso   1.000  C
  H87      1.0000 0.73710  0.10170  0.87440  Biso   1.000  H
  C94      1.0000 0.67580  0.14980  0.85790  Biso   1.000  C
  H88      1.0000 0.68900  0.17970  0.87440  Biso   1.000  H
  C95      1.0000 0.62720  0.15080  0.83510  Biso   1.000  C
  H89      1.0000 0.60710  0.18120  0.83800  Biso   1.000  H
  C96      1.0000 0.60680  0.10820  0.80790  Biso   1.000  C
  C97      1.0000 0.50260  0.07360  0.73080  Biso   1.000  C
  C98      1.0000 0.46010  0.10800  0.75350  Biso   1.000  C
  H90      1.0000 0.47470  0.12970  0.78090  Biso   1.000  H
  H91      1.0000 0.43260  0.08630  0.76790  Biso   1.000  H
  H92      1.0000 0.44580  0.13000  0.72630  Biso   1.000  H
  C99      1.0000 0.48750  0.04000  0.68550  Biso   1.000  C
  C100     1.0000 0.43560  0.02270  0.67740  Biso   1.000  C
  H93      1.0000 0.41000  0.03260  0.70160  Biso   1.000  H
  C101     1.0000 0.42020  0.99130  0.63480  Biso   1.000  C
  H94      1.0000 0.38510  0.98310  0.62870  Biso   1.000  H
  C102     1.0000 0.45730  0.97420  0.60430  Biso   1.000  C
  C103     1.0000 0.51050  0.98690  0.61100  Biso   1.000  C
  H95      1.0000 0.53620  0.97420  0.58820  Biso   1.000  H
  C104     1.0000 0.52310  0.01820  0.65180  Biso   1.000  C
  H96      1.0000 0.55860  0.02540  0.65750  Biso   1.000  H
  N25      1.0000 0.69640  0.63780  0.93700  Biso   1.000  N
  N26      1.0000 0.71640  0.56230  0.89200  Biso   1.000  N
  H97      1.0000 0.70910  0.53950  0.86800  Biso   1.000  H
  N27      1.0000 0.75250  0.55050  0.92810  Biso   1.000  N
  C105     1.0000 0.67410  0.68460  0.93790  Biso   1.000  C
  H98      1.0000 0.67850  0.70530  0.96770  Biso   1.000  H
  C106     1.0000 0.64350  0.70530  0.89540  Biso   1.000  C
  H99      1.0000 0.62560  0.73710  0.89830  Biso   1.000  H
  C107     1.0000 0.64210  0.67580  0.85020  Biso   1.000  C
  H100     1.0000 0.62560  0.68900  0.82030  Biso   1.000  H
  C108     1.0000 0.66490  0.62720  0.84920  Biso   1.000  C
  H101     1.0000 0.66200  0.60710  0.81880  Biso   1.000  H
  C109     1.0000 0.69210  0.60680  0.89180  Biso   1.000  C
  C110     1.0000 0.76920  0.50260  0.92640  Biso   1.000  C
  C111     1.0000 0.74650  0.46010  0.89200  Biso   1.000  C
  H102     1.0000 0.71910  0.47470  0.87030  Biso   1.000  H
  H103     1.0000 0.73210  0.43260  0.91370  Biso   1.000  H
  H104     1.0000 0.77370  0.44580  0.87000  Biso   1.000  H
  C112     1.0000 0.81450  0.48750  0.96000  Biso   1.000  C
  C113     1.0000 0.82260  0.43560  0.97730  Biso   1.000  C
  H105     1.0000 0.79840  0.41000  0.96740  Biso   1.000  H
  C114     1.0000 0.86520  0.42020  0.00870  Biso   1.000  C
  H106     1.0000 0.87130  0.38510  0.01690  Biso   1.000  H
  C115     1.0000 0.89570  0.45730  0.02580  Biso   1.000  C
  C116     1.0000 0.88900  0.51050  0.01310  Biso   1.000  C
  H107     1.0000 0.91180  0.53620  0.02580  Biso   1.000  H
  C117     1.0000 0.84820  0.52310  0.98180  Biso   1.000  C
  H108     1.0000 0.84250  0.55860  0.97460  Biso   1.000  H
  N28      1.0000 0.19640  0.13780  0.43700  Biso   1.000  N
  N29      1.0000 0.21640  0.06230  0.39200  Biso   1.000  N
  H109     1.0000 0.20910  0.03950  0.36800  Biso   1.000  H
  N30      1.0000 0.25250  0.05050  0.42810  Biso   1.000  N
  C118     1.0000 0.17410  0.18460  0.43790  Biso   1.000  C
  H110     1.0000 0.17850  0.20530  0.46770  Biso   1.000  H
  C119     1.0000 0.14350  0.20530  0.39540  Biso   1.000  C
  H111     1.0000 0.12560  0.23710  0.39830  Biso   1.000  H
  C120     1.0000 0.14210  0.17580  0.35020  Biso   1.000  C
  H112     1.0000 0.12560  0.18900  0.32030  Biso   1.000  H
  C121     1.0000 0.16490  0.12720  0.34920  Biso   1.000  C
  H113     1.0000 0.16200  0.10710  0.31880  Biso   1.000  H
  C122     1.0000 0.19210  0.10680  0.39180  Biso   1.000  C
  C123     1.0000 0.26920  0.00260  0.42640  Biso   1.000  C
  C124     1.0000 0.24650  0.96010  0.39200  Biso   1.000  C
  H114     1.0000 0.21910  0.97470  0.37030  Biso   1.000  H
  H115     1.0000 0.23210  0.93260  0.41370  Biso   1.000  H
  H116     1.0000 0.27370  0.94580  0.37000  Biso   1.000  H
  C125     1.0000 0.31450  0.98750  0.46000  Biso   1.000  C
  C126     1.0000 0.32260  0.93560  0.47730  Biso   1.000  C
  H117     1.0000 0.29840  0.91000  0.46740  Biso   1.000  H
  C127     1.0000 0.36520  0.92020  0.50870  Biso   1.000  C
  H118     1.0000 0.37130  0.88510  0.51690  Biso   1.000  H
  C128     1.0000 0.39570  0.95730  0.52580  Biso   1.000  C
  C129     1.0000 0.38900  0.01050  0.51310  Biso   1.000  C
  H119     1.0000 0.41180  0.03620  0.52580  Biso   1.000  H
  C130     1.0000 0.34820  0.02310  0.48180  Biso   1.000  C
  H120     1.0000 0.34250  0.05860  0.47460  Biso   1.000  H
  N31      1.0000 0.19640  0.86220  0.06300  Biso   1.000  N
  N32      1.0000 0.21640  0.93770  0.10800  Biso   1.000  N
  H121     1.0000 0.20910  0.96050  0.13200  Biso   1.000  H
  N33      1.0000 0.25250  0.94950  0.07190  Biso   1.000  N
  C131     1.0000 0.17410  0.81540  0.06210  Biso   1.000  C
  H122     1.0000 0.17850  0.79470  0.03230  Biso   1.000  H
  C132     1.0000 0.14350  0.79470  0.10460  Biso   1.000  C
  H123     1.0000 0.12560  0.76290  0.10170  Biso   1.000  H
  C133     1.0000 0.14210  0.82420  0.14980  Biso   1.000  C
  H124     1.0000 0.12560  0.81100  0.17970  Biso   1.000  H
  C134     1.0000 0.16490  0.87280  0.15080  Biso   1.000  C
  H125     1.0000 0.16200  0.89290  0.18120  Biso   1.000  H
  C135     1.0000 0.19210  0.89320  0.10820  Biso   1.000  C
  C136     1.0000 0.26920  0.99740  0.07360  Biso   1.000  C
  C137     1.0000 0.24650  0.03990  0.10800  Biso   1.000  C
  H126     1.0000 0.21910  0.02530  0.12970  Biso   1.000  H
  H127     1.0000 0.23210  0.06740  0.08630  Biso   1.000  H
  H128     1.0000 0.27370  0.05420  0.13000  Biso   1.000  H
  C138     1.0000 0.31450  0.01250  0.04000  Biso   1.000  C
  C139     1.0000 0.32260  0.06440  0.02270  Biso   1.000  C
  H129     1.0000 0.29840  0.09000  0.03260  Biso   1.000  H
  C140     1.0000 0.36520  0.07980  0.99130  Biso   1.000  C
  H130     1.0000 0.37130  0.11490  0.98310  Biso   1.000  H
  C141     1.0000 0.39570  0.04270  0.97420  Biso   1.000  C
  C142     1.0000 0.38900  0.98950  0.98690  Biso   1.000  C
  H131     1.0000 0.41180  0.96380  0.97420  Biso   1.000  H
  C143     1.0000 0.34820  0.97690  0.01820  Biso   1.000  C
  H132     1.0000 0.34250  0.94140  0.02540  Biso   1.000  H
  N34      1.0000 0.69640  0.36220  0.56300  Biso   1.000  N
  N35      1.0000 0.71640  0.43770  0.60800  Biso   1.000  N
  H133     1.0000 0.70910  0.46050  0.63200  Biso   1.000  H
  N36      1.0000 0.75250  0.44950  0.57190  Biso   1.000  N
  C144     1.0000 0.67410  0.31540  0.56210  Biso   1.000  C
  H134     1.0000 0.67850  0.29470  0.53230  Biso   1.000  H
  C145     1.0000 0.64350  0.29470  0.60460  Biso   1.000  C
  H135     1.0000 0.62560  0.26290  0.60170  Biso   1.000  H
  C146     1.0000 0.64210  0.32420  0.64980  Biso   1.000  C
  H136     1.0000 0.62560  0.31100  0.67970  Biso   1.000  H
  C147     1.0000 0.66490  0.37280  0.65080  Biso   1.000  C
  H137     1.0000 0.66200  0.39290  0.68120  Biso   1.000  H
  C148     1.0000 0.69210  0.39320  0.60820  Biso   1.000  C
  C149     1.0000 0.76920  0.49740  0.57360  Biso   1.000  C
  C150     1.0000 0.74650  0.53990  0.60800  Biso   1.000  C
  H138     1.0000 0.71910  0.52530  0.62970  Biso   1.000  H
  H139     1.0000 0.73210  0.56740  0.58630  Biso   1.000  H
  H140     1.0000 0.77370  0.55420  0.63000  Biso   1.000  H
  C151     1.0000 0.81450  0.51250  0.54000  Biso   1.000  C
  C152     1.0000 0.82260  0.56440  0.52270  Biso   1.000  C
  H141     1.0000 0.79840  0.59000  0.53260  Biso   1.000  H
  C153     1.0000 0.86520  0.57980  0.49130  Biso   1.000  C
  H142     1.0000 0.87130  0.61490  0.48310  Biso   1.000  H
  C154     1.0000 0.89570  0.54270  0.47420  Biso   1.000  C
  C155     1.0000 0.88900  0.48950  0.48690  Biso   1.000  C
  H143     1.0000 0.91180  0.46380  0.47420  Biso   1.000  H
  C156     1.0000 0.84820  0.47690  0.51820  Biso   1.000  C
  H144     1.0000 0.84250  0.44140  0.52540  Biso   1.000  H
  N37      1.0000 0.80360  0.36220  0.43700  Biso   1.000  N
  N38      1.0000 0.78360  0.43770  0.39200  Biso   1.000  N
  H145     1.0000 0.79090  0.46050  0.36800  Biso   1.000  H
  N39      1.0000 0.74750  0.44950  0.42810  Biso   1.000  N
  C157     1.0000 0.82590  0.31540  0.43790  Biso   1.000  C
  H146     1.0000 0.82150  0.29470  0.46770  Biso   1.000  H
  C158     1.0000 0.85650  0.29470  0.39540  Biso   1.000  C
  H147     1.0000 0.87440  0.26290  0.39830  Biso   1.000  H
  C159     1.0000 0.85790  0.32420  0.35020  Biso   1.000  C
  H148     1.0000 0.87440  0.31100  0.32030  Biso   1.000  H
  C160     1.0000 0.83510  0.37280  0.34920  Biso   1.000  C
  H149     1.0000 0.83800  0.39290  0.31880  Biso   1.000  H
  C161     1.0000 0.80790  0.39320  0.39180  Biso   1.000  C
  C162     1.0000 0.73080  0.49740  0.42640  Biso   1.000  C
  C163     1.0000 0.75350  0.53990  0.39200  Biso   1.000  C
  H150     1.0000 0.78090  0.52530  0.37030  Biso   1.000  H
  H151     1.0000 0.76790  0.56740  0.41370  Biso   1.000  H
  H152     1.0000 0.72630  0.55420  0.37000  Biso   1.000  H
  C164     1.0000 0.68550  0.51250  0.46000  Biso   1.000  C
  C165     1.0000 0.67740  0.56440  0.47730  Biso   1.000  C
  H153     1.0000 0.70160  0.59000  0.46740  Biso   1.000  H
  C166     1.0000 0.63480  0.57980  0.50870  Biso   1.000  C
  H154     1.0000 0.62870  0.61490  0.51690  Biso   1.000  H
  C167     1.0000 0.60430  0.54270  0.52580  Biso   1.000  C
  C168     1.0000 0.61100  0.48950  0.51310  Biso   1.000  C
  H155     1.0000 0.58820  0.46380  0.52580  Biso   1.000  H
  C169     1.0000 0.65180  0.47690  0.48180  Biso   1.000  C
  H156     1.0000 0.65750  0.44140  0.47460  Biso   1.000  H
  N40      1.0000 0.30360  0.86220  0.93700  Biso   1.000  N
  N41      1.0000 0.28360  0.93770  0.89200  Biso   1.000  N
  H157     1.0000 0.29090  0.96050  0.86800  Biso   1.000  H
  N42      1.0000 0.24750  0.94950  0.92810  Biso   1.000  N
  C170     1.0000 0.32590  0.81540  0.93790  Biso   1.000  C
  H158     1.0000 0.32150  0.79470  0.96770  Biso   1.000  H
  C171     1.0000 0.35650  0.79470  0.89540  Biso   1.000  C
  H159     1.0000 0.37440  0.76290  0.89830  Biso   1.000  H
  C172     1.0000 0.35790  0.82420  0.85020  Biso   1.000  C
  H160     1.0000 0.37440  0.81100  0.82030  Biso   1.000  H
  C173     1.0000 0.33510  0.87280  0.84920  Biso   1.000  C
  H161     1.0000 0.33800  0.89290  0.81880  Biso   1.000  H
  C174     1.0000 0.30790  0.89320  0.89180  Biso   1.000  C
  C175     1.0000 0.23080  0.99740  0.92640  Biso   1.000  C
  C176     1.0000 0.25350  0.03990  0.89200  Biso   1.000  C
  H162     1.0000 0.28090  0.02530  0.87030  Biso   1.000  H
  H163     1.0000 0.26790  0.06740  0.91370  Biso   1.000  H
  H164     1.0000 0.22630  0.05420  0.87000  Biso   1.000  H
  C177     1.0000 0.18550  0.01250  0.96000  Biso   1.000  C
  C178     1.0000 0.17740  0.06440  0.97730  Biso   1.000  C
  H165     1.0000 0.20160  0.09000  0.96740  Biso   1.000  H
  C179     1.0000 0.13480  0.07980  0.00870  Biso   1.000  C
  H166     1.0000 0.12870  0.11490  0.01690  Biso   1.000  H
  C180     1.0000 0.10430  0.04270  0.02580  Biso   1.000  C
  C181     1.0000 0.11100  0.98950  0.01310  Biso   1.000  C
  H167     1.0000 0.08820  0.96380  0.02580  Biso   1.000  H
  C182     1.0000 0.15180  0.97690  0.98180  Biso   1.000  C
  H168     1.0000 0.15750  0.94140  0.97460  Biso   1.000  H
  N43      1.0000 0.30360  0.13780  0.56300  Biso   1.000  N
  N44      1.0000 0.28360  0.06230  0.60800  Biso   1.000  N
  H169     1.0000 0.29090  0.03950  0.63200  Biso   1.000  H
  N45      1.0000 0.24750  0.05050  0.57190  Biso   1.000  N
  C183     1.0000 0.32590  0.18460  0.56210  Biso   1.000  C
  H170     1.0000 0.32150  0.20530  0.53230  Biso   1.000  H
  C184     1.0000 0.35650  0.20530  0.60460  Biso   1.000  C
  H171     1.0000 0.37440  0.23710  0.60170  Biso   1.000  H
  C185     1.0000 0.35790  0.17580  0.64980  Biso   1.000  C
  H172     1.0000 0.37440  0.18900  0.67970  Biso   1.000  H
  C186     1.0000 0.33510  0.12720  0.65080  Biso   1.000  C
  H173     1.0000 0.33800  0.10710  0.68120  Biso   1.000  H
  C187     1.0000 0.30790  0.10680  0.60820  Biso   1.000  C
  C188     1.0000 0.23080  0.00260  0.57360  Biso   1.000  C
  C189     1.0000 0.25350  0.96010  0.60800  Biso   1.000  C
  H174     1.0000 0.28090  0.97470  0.62970  Biso   1.000  H
  H175     1.0000 0.26790  0.93260  0.58630  Biso   1.000  H
  H176     1.0000 0.22630  0.94580  0.63000  Biso   1.000  H
  C190     1.0000 0.18550  0.98750  0.54000  Biso   1.000  C
  C191     1.0000 0.17740  0.93560  0.52270  Biso   1.000  C
  H177     1.0000 0.20160  0.91000  0.53260  Biso   1.000  H
  C192     1.0000 0.13480  0.92020  0.49130  Biso   1.000  C
  H178     1.0000 0.12870  0.88510  0.48310  Biso   1.000  H
  C193     1.0000 0.10430  0.95730  0.47420  Biso   1.000  C
  C194     1.0000 0.11100  0.01050  0.48690  Biso   1.000  C
  H179     1.0000 0.08820  0.03620  0.47420  Biso   1.000  H
  C195     1.0000 0.15180  0.02310  0.51820  Biso   1.000  C
  H180     1.0000 0.15750  0.05860  0.52540  Biso   1.000  H
  N46      1.0000 0.80360  0.63780  0.06300  Biso   1.000  N
  N47      1.0000 0.78360  0.56230  0.10800  Biso   1.000  N
  H181     1.0000 0.79090  0.53950  0.13200  Biso   1.000  H
  N48      1.0000 0.74750  0.55050  0.07190  Biso   1.000  N
  C196     1.0000 0.82590  0.68460  0.06210  Biso   1.000  C
  H182     1.0000 0.82150  0.70530  0.03230  Biso   1.000  H
  C197     1.0000 0.85650  0.70530  0.10460  Biso   1.000  C
  H183     1.0000 0.87440  0.73710  0.10170  Biso   1.000  H
  C198     1.0000 0.85790  0.67580  0.14980  Biso   1.000  C
  H184     1.0000 0.87440  0.68900  0.17970  Biso   1.000  H
  C199     1.0000 0.83510  0.62720  0.15080  Biso   1.000  C
  H185     1.0000 0.83800  0.60710  0.18120  Biso   1.000  H
  C200     1.0000 0.80790  0.60680  0.10820  Biso   1.000  C
  C201     1.0000 0.73080  0.50260  0.07360  Biso   1.000  C
  C202     1.0000 0.75350  0.46010  0.10800  Biso   1.000  C
  H186     1.0000 0.78090  0.47470  0.12970  Biso   1.000  H
  H187     1.0000 0.76790  0.43260  0.08630  Biso   1.000  H
  H188     1.0000 0.72630  0.44580  0.13000  Biso   1.000  H
  C203     1.0000 0.68550  0.48750  0.04000  Biso   1.000  C
  C204     1.0000 0.67740  0.43560  0.02270  Biso   1.000  C
  H189     1.0000 0.70160  0.41000  0.03260  Biso   1.000  H
  C205     1.0000 0.63480  0.42020  0.99130  Biso   1.000  C
  H190     1.0000 0.62870  0.38510  0.98310  Biso   1.000  H
  C206     1.0000 0.60430  0.45730  0.97420  Biso   1.000  C
  C207     1.0000 0.61100  0.51050  0.98690  Biso   1.000  C
  H191     1.0000 0.58820  0.53620  0.97420  Biso   1.000  H
  C208     1.0000 0.65180  0.52310  0.01820  Biso   1.000  C
  H192     1.0000 0.65750  0.55860  0.02540  Biso   1.000  H
  N49      1.0000 0.93700  0.69640  0.63780  Biso   1.000  N
  N50      1.0000 0.89200  0.71640  0.56230  Biso   1.000  N
  H193     1.0000 0.86800  0.70910  0.53950  Biso   1.000  H
  N51      1.0000 0.92810  0.75250  0.55050  Biso   1.000  N
  C209     1.0000 0.93790  0.67410  0.68460  Biso   1.000  C
  H194     1.0000 0.96770  0.67850  0.70530  Biso   1.000  H
  C210     1.0000 0.89540  0.64350  0.70530  Biso   1.000  C
  H195     1.0000 0.89830  0.62560  0.73710  Biso   1.000  H
  C211     1.0000 0.85020  0.64210  0.67580  Biso   1.000  C
  H196     1.0000 0.82030  0.62560  0.68900  Biso   1.000  H
  C212     1.0000 0.84920  0.66490  0.62720  Biso   1.000  C
  H197     1.0000 0.81880  0.66200  0.60710  Biso   1.000  H
  C213     1.0000 0.89180  0.69210  0.60680  Biso   1.000  C
  C214     1.0000 0.92640  0.76920  0.50260  Biso   1.000  C
  C215     1.0000 0.89200  0.74650  0.46010  Biso   1.000  C
  H198     1.0000 0.87030  0.71910  0.47470  Biso   1.000  H
  H199     1.0000 0.91370  0.73210  0.43260  Biso   1.000  H
  H200     1.0000 0.87000  0.77370  0.44580  Biso   1.000  H
  C216     1.0000 0.96000  0.81450  0.48750  Biso   1.000  C
  C217     1.0000 0.97730  0.82260  0.43560  Biso   1.000  C
  H201     1.0000 0.96740  0.79840  0.41000  Biso   1.000  H
  C218     1.0000 0.00870  0.86520  0.42020  Biso   1.000  C
  H202     1.0000 0.01690  0.87130  0.38510  Biso   1.000  H
  C219     1.0000 0.02580  0.89570  0.45730  Biso   1.000  C
  C220     1.0000 0.01310  0.88900  0.51050  Biso   1.000  C
  H203     1.0000 0.02580  0.91180  0.53620  Biso   1.000  H
  C221     1.0000 0.98180  0.84820  0.52310  Biso   1.000  C
  H204     1.0000 0.97460  0.84250  0.55860  Biso   1.000  H
  N52      1.0000 0.43700  0.19640  0.13780  Biso   1.000  N
  N53      1.0000 0.39200  0.21640  0.06230  Biso   1.000  N
  H205     1.0000 0.36800  0.20910  0.03950  Biso   1.000  H
  N54      1.0000 0.42810  0.25250  0.05050  Biso   1.000  N
  C222     1.0000 0.43790  0.17410  0.18460  Biso   1.000  C
  H206     1.0000 0.46770  0.17850  0.20530  Biso   1.000  H
  C223     1.0000 0.39540  0.14350  0.20530  Biso   1.000  C
  H207     1.0000 0.39830  0.12560  0.23710  Biso   1.000  H
  C224     1.0000 0.35020  0.14210  0.17580  Biso   1.000  C
  H208     1.0000 0.32030  0.12560  0.18900  Biso   1.000  H
  C225     1.0000 0.34920  0.16490  0.12720  Biso   1.000  C
  H209     1.0000 0.31880  0.16200  0.10710  Biso   1.000  H
  C226     1.0000 0.39180  0.19210  0.10680  Biso   1.000  C
  C227     1.0000 0.42640  0.26920  0.00260  Biso   1.000  C
  C228     1.0000 0.39200  0.24650  0.96010  Biso   1.000  C
  H210     1.0000 0.37030  0.21910  0.97470  Biso   1.000  H
  H211     1.0000 0.41370  0.23210  0.93260  Biso   1.000  H
  H212     1.0000 0.37000  0.27370  0.94580  Biso   1.000  H
  C229     1.0000 0.46000  0.31450  0.98750  Biso   1.000  C
  C230     1.0000 0.47730  0.32260  0.93560  Biso   1.000  C
  H213     1.0000 0.46740  0.29840  0.91000  Biso   1.000  H
  C231     1.0000 0.50870  0.36520  0.92020  Biso   1.000  C
  H214     1.0000 0.51690  0.37130  0.88510  Biso   1.000  H
  C232     1.0000 0.52580  0.39570  0.95730  Biso   1.000  C
  C233     1.0000 0.51310  0.38900  0.01050  Biso   1.000  C
  H215     1.0000 0.52580  0.41180  0.03620  Biso   1.000  H
  C234     1.0000 0.48180  0.34820  0.02310  Biso   1.000  C
  H216     1.0000 0.47460  0.34250  0.05860  Biso   1.000  H
  N55      1.0000 0.06300  0.19640  0.86220  Biso   1.000  N
  N56      1.0000 0.10800  0.21640  0.93770  Biso   1.000  N
  H217     1.0000 0.13200  0.20910  0.96050  Biso   1.000  H
  N57      1.0000 0.07190  0.25250  0.94950  Biso   1.000  N
  C235     1.0000 0.06210  0.17410  0.81540  Biso   1.000  C
  H218     1.0000 0.03230  0.17850  0.79470  Biso   1.000  H
  C236     1.0000 0.10460  0.14350  0.79470  Biso   1.000  C
  H219     1.0000 0.10170  0.12560  0.76290  Biso   1.000  H
  C237     1.0000 0.14980  0.14210  0.82420  Biso   1.000  C
  H220     1.0000 0.17970  0.12560  0.81100  Biso   1.000  H
  C238     1.0000 0.15080  0.16490  0.87280  Biso   1.000  C
  H221     1.0000 0.18120  0.16200  0.89290  Biso   1.000  H
  C239     1.0000 0.10820  0.19210  0.89320  Biso   1.000  C
  C240     1.0000 0.07360  0.26920  0.99740  Biso   1.000  C
  C241     1.0000 0.10800  0.24650  0.03990  Biso   1.000  C
  H222     1.0000 0.12970  0.21910  0.02530  Biso   1.000  H
  H223     1.0000 0.08630  0.23210  0.06740  Biso   1.000  H
  H224     1.0000 0.13000  0.27370  0.05420  Biso   1.000  H
  C242     1.0000 0.04000  0.31450  0.01250  Biso   1.000  C
  C243     1.0000 0.02270  0.32260  0.06440  Biso   1.000  C
  H225     1.0000 0.03260  0.29840  0.09000  Biso   1.000  H
  C244     1.0000 0.99130  0.36520  0.07980  Biso   1.000  C
  H226     1.0000 0.98310  0.37130  0.11490  Biso   1.000  H
  C245     1.0000 0.97420  0.39570  0.04270  Biso   1.000  C
  C246     1.0000 0.98690  0.38900  0.98950  Biso   1.000  C
  H227     1.0000 0.97420  0.41180  0.96380  Biso   1.000  H
  C247     1.0000 0.01820  0.34820  0.97690  Biso   1.000  C
  H228     1.0000 0.02540  0.34250  0.94140  Biso   1.000  H
  N58      1.0000 0.56300  0.69640  0.36220  Biso   1.000  N
  N59      1.0000 0.60800  0.71640  0.43770  Biso   1.000  N
  H229     1.0000 0.63200  0.70910  0.46050  Biso   1.000  H
  N60      1.0000 0.57190  0.75250  0.44950  Biso   1.000  N
  C248     1.0000 0.56210  0.67410  0.31540  Biso   1.000  C
  H230     1.0000 0.53230  0.67850  0.29470  Biso   1.000  H
  C249     1.0000 0.60460  0.64350  0.29470  Biso   1.000  C
  H231     1.0000 0.60170  0.62560  0.26290  Biso   1.000  H
  C250     1.0000 0.64980  0.64210  0.32420  Biso   1.000  C
  H232     1.0000 0.67970  0.62560  0.31100  Biso   1.000  H
  C251     1.0000 0.65080  0.66490  0.37280  Biso   1.000  C
  H233     1.0000 0.68120  0.66200  0.39290  Biso   1.000  H
  C252     1.0000 0.60820  0.69210  0.39320  Biso   1.000  C
  C253     1.0000 0.57360  0.76920  0.49740  Biso   1.000  C
  C254     1.0000 0.60800  0.74650  0.53990  Biso   1.000  C
  H234     1.0000 0.62970  0.71910  0.52530  Biso   1.000  H
  H235     1.0000 0.58630  0.73210  0.56740  Biso   1.000  H
  H236     1.0000 0.63000  0.77370  0.55420  Biso   1.000  H
  C255     1.0000 0.54000  0.81450  0.51250  Biso   1.000  C
  C256     1.0000 0.52270  0.82260  0.56440  Biso   1.000  C
  H237     1.0000 0.53260  0.79840  0.59000  Biso   1.000  H
  C257     1.0000 0.49130  0.86520  0.57980  Biso   1.000  C
  H238     1.0000 0.48310  0.87130  0.61490  Biso   1.000  H
  C258     1.0000 0.47420  0.89570  0.54270  Biso   1.000  C
  C259     1.0000 0.48690  0.88900  0.48950  Biso   1.000  C
  H239     1.0000 0.47420  0.91180  0.46380  Biso   1.000  H
  C260     1.0000 0.51820  0.84820  0.47690  Biso   1.000  C
  H240     1.0000 0.52540  0.84250  0.44140  Biso   1.000  H
  N61      1.0000 0.43700  0.80360  0.36220  Biso   1.000  N
  N62      1.0000 0.39200  0.78360  0.43770  Biso   1.000  N
  H241     1.0000 0.36800  0.79090  0.46050  Biso   1.000  H
  N63      1.0000 0.42810  0.74750  0.44950  Biso   1.000  N
  C261     1.0000 0.43790  0.82590  0.31540  Biso   1.000  C
  H242     1.0000 0.46770  0.82150  0.29470  Biso   1.000  H
  C262     1.0000 0.39540  0.85650  0.29470  Biso   1.000  C
  H243     1.0000 0.39830  0.87440  0.26290  Biso   1.000  H
  C263     1.0000 0.35020  0.85790  0.32420  Biso   1.000  C
  H244     1.0000 0.32030  0.87440  0.31100  Biso   1.000  H
  C264     1.0000 0.34920  0.83510  0.37280  Biso   1.000  C
  H245     1.0000 0.31880  0.83800  0.39290  Biso   1.000  H
  C265     1.0000 0.39180  0.80790  0.39320  Biso   1.000  C
  C266     1.0000 0.42640  0.73080  0.49740  Biso   1.000  C
  C267     1.0000 0.39200  0.75350  0.53990  Biso   1.000  C
  H246     1.0000 0.37030  0.78090  0.52530  Biso   1.000  H
  H247     1.0000 0.41370  0.76790  0.56740  Biso   1.000  H
  H248     1.0000 0.37000  0.72630  0.55420  Biso   1.000  H
  C268     1.0000 0.46000  0.68550  0.51250  Biso   1.000  C
  C269     1.0000 0.47730  0.67740  0.56440  Biso   1.000  C
  H249     1.0000 0.46740  0.70160  0.59000  Biso   1.000  H
  C270     1.0000 0.50870  0.63480  0.57980  Biso   1.000  C
  H250     1.0000 0.51690  0.62870  0.61490  Biso   1.000  H
  C271     1.0000 0.52580  0.60430  0.54270  Biso   1.000  C
  C272     1.0000 0.51310  0.61100  0.48950  Biso   1.000  C
  H251     1.0000 0.52580  0.58820  0.46380  Biso   1.000  H
  C273     1.0000 0.48180  0.65180  0.47690  Biso   1.000  C
  H252     1.0000 0.47460  0.65750  0.44140  Biso   1.000  H
  N64      1.0000 0.93700  0.30360  0.86220  Biso   1.000  N
  N65      1.0000 0.89200  0.28360  0.93770  Biso   1.000  N
  H253     1.0000 0.86800  0.29090  0.96050  Biso   1.000  H
  N66      1.0000 0.92810  0.24750  0.94950  Biso   1.000  N
  C274     1.0000 0.93790  0.32590  0.81540  Biso   1.000  C
  H254     1.0000 0.96770  0.32150  0.79470  Biso   1.000  H
  C275     1.0000 0.89540  0.35650  0.79470  Biso   1.000  C
  H255     1.0000 0.89830  0.37440  0.76290  Biso   1.000  H
  C276     1.0000 0.85020  0.35790  0.82420  Biso   1.000  C
  H256     1.0000 0.82030  0.37440  0.81100  Biso   1.000  H
  C277     1.0000 0.84920  0.33510  0.87280  Biso   1.000  C
  H257     1.0000 0.81880  0.33800  0.89290  Biso   1.000  H
  C278     1.0000 0.89180  0.30790  0.89320  Biso   1.000  C
  C279     1.0000 0.92640  0.23080  0.99740  Biso   1.000  C
  C280     1.0000 0.89200  0.25350  0.03990  Biso   1.000  C
  H258     1.0000 0.87030  0.28090  0.02530  Biso   1.000  H
  H259     1.0000 0.91370  0.26790  0.06740  Biso   1.000  H
  H260     1.0000 0.87000  0.22630  0.05420  Biso   1.000  H
  C281     1.0000 0.96000  0.18550  0.01250  Biso   1.000  C
  C282     1.0000 0.97730  0.17740  0.06440  Biso   1.000  C
  H261     1.0000 0.96740  0.20160  0.09000  Biso   1.000  H
  C283     1.0000 0.00870  0.13480  0.07980  Biso   1.000  C
  H262     1.0000 0.01690  0.12870  0.11490  Biso   1.000  H
  C284     1.0000 0.02580  0.10430  0.04270  Biso   1.000  C
  C285     1.0000 0.01310  0.11100  0.98950  Biso   1.000  C
  H263     1.0000 0.02580  0.08820  0.96380  Biso   1.000  H
  C286     1.0000 0.98180  0.15180  0.97690  Biso   1.000  C
  H264     1.0000 0.97460  0.15750  0.94140  Biso   1.000  H
  N67      1.0000 0.56300  0.30360  0.13780  Biso   1.000  N
  N68      1.0000 0.60800  0.28360  0.06230  Biso   1.000  N
  H265     1.0000 0.63200  0.29090  0.03950  Biso   1.000  H
  N69      1.0000 0.57190  0.24750  0.05050  Biso   1.000  N
  C287     1.0000 0.56210  0.32590  0.18460  Biso   1.000  C
  H266     1.0000 0.53230  0.32150  0.20530  Biso   1.000  H
  C288     1.0000 0.60460  0.35650  0.20530  Biso   1.000  C
  H267     1.0000 0.60170  0.37440  0.23710  Biso   1.000  H
  C289     1.0000 0.64980  0.35790  0.17580  Biso   1.000  C
  H268     1.0000 0.67970  0.37440  0.18900  Biso   1.000  H
  C290     1.0000 0.65080  0.33510  0.12720  Biso   1.000  C
  H269     1.0000 0.68120  0.33800  0.10710  Biso   1.000  H
  C291     1.0000 0.60820  0.30790  0.10680  Biso   1.000  C
  C292     1.0000 0.57360  0.23080  0.00260  Biso   1.000  C
  C293     1.0000 0.60800  0.25350  0.96010  Biso   1.000  C
  H270     1.0000 0.62970  0.28090  0.97470  Biso   1.000  H
  H271     1.0000 0.58630  0.26790  0.93260  Biso   1.000  H
  H272     1.0000 0.63000  0.22630  0.94580  Biso   1.000  H
  C294     1.0000 0.54000  0.18550  0.98750  Biso   1.000  C
  C295     1.0000 0.52270  0.17740  0.93560  Biso   1.000  C
  H273     1.0000 0.53260  0.20160  0.91000  Biso   1.000  H
  C296     1.0000 0.49130  0.13480  0.92020  Biso   1.000  C
  H274     1.0000 0.48310  0.12870  0.88510  Biso   1.000  H
  C297     1.0000 0.47420  0.10430  0.95730  Biso   1.000  C
  C298     1.0000 0.48690  0.11100  0.01050  Biso   1.000  C
  H275     1.0000 0.47420  0.08820  0.03620  Biso   1.000  H
  C299     1.0000 0.51820  0.15180  0.02310  Biso   1.000  C
  H276     1.0000 0.52540  0.15750  0.05860  Biso   1.000  H
  N70      1.0000 0.06300  0.80360  0.63780  Biso   1.000  N
  N71      1.0000 0.10800  0.78360  0.56230  Biso   1.000  N
  H277     1.0000 0.13200  0.79090  0.53950  Biso   1.000  H
  N72      1.0000 0.07190  0.74750  0.55050  Biso   1.000  N
  C300     1.0000 0.06210  0.82590  0.68460  Biso   1.000  C
  H278     1.0000 0.03230  0.82150  0.70530  Biso   1.000  H
  C301     1.0000 0.10460  0.85650  0.70530  Biso   1.000  C
  H279     1.0000 0.10170  0.87440  0.73710  Biso   1.000  H
  C302     1.0000 0.14980  0.85790  0.67580  Biso   1.000  C
  H280     1.0000 0.17970  0.87440  0.68900  Biso   1.000  H
  C303     1.0000 0.15080  0.83510  0.62720  Biso   1.000  C
  H281     1.0000 0.18120  0.83800  0.60710  Biso   1.000  H
  C304     1.0000 0.10820  0.80790  0.60680  Biso   1.000  C
  C305     1.0000 0.07360  0.73080  0.50260  Biso   1.000  C
  C306     1.0000 0.10800  0.75350  0.46010  Biso   1.000  C
  H282     1.0000 0.12970  0.78090  0.47470  Biso   1.000  H
  H283     1.0000 0.08630  0.76790  0.43260  Biso   1.000  H
  H284     1.0000 0.13000  0.72630  0.44580  Biso   1.000  H
  C307     1.0000 0.04000  0.68550  0.48750  Biso   1.000  C
  C308     1.0000 0.02270  0.67740  0.43560  Biso   1.000  C
  H285     1.0000 0.03260  0.70160  0.41000  Biso   1.000  H
  C309     1.0000 0.99130  0.63480  0.42020  Biso   1.000  C
  H286     1.0000 0.98310  0.62870  0.38510  Biso   1.000  H
  C310     1.0000 0.97420  0.60430  0.45730  Biso   1.000  C
  C311     1.0000 0.98690  0.61100  0.51050  Biso   1.000  C
  H287     1.0000 0.97420  0.58820  0.53620  Biso   1.000  H
  C312     1.0000 0.01820  0.65180  0.52310  Biso   1.000  C
  H288     1.0000 0.02540  0.65750  0.55860  Biso   1.000  H
  Ag1      1.0000 0.61225  0.00000  0.75000  Biso   1.000  Ag
  Ag2      1.0000 0.88775  0.00000  0.25000  Biso   1.000  Ag
  Ag3      1.0000 0.38775  0.50000  0.75000  Biso   1.000  Ag
  Ag4      1.0000 0.11225  0.50000  0.25000  Biso   1.000  Ag
  Ag5      1.0000 0.75000  0.61225  0.00000  Biso   1.000  Ag
  Ag6      1.0000 0.25000  0.88775  0.00000  Biso   1.000  Ag
  Ag7      1.0000 0.75000  0.38775  0.50000  Biso   1.000  Ag
  Ag8      1.0000 0.25000  0.11225  0.50000  Biso   1.000  Ag
  Ag9      1.0000 0.00000  0.75000  0.61225  Biso   1.000  Ag
  Ag10     1.0000 0.00000  0.25000  0.88775  Biso   1.000  Ag
  Ag11     1.0000 0.50000  0.75000  0.38775  Biso   1.000  Ag
  Ag12     1.0000 0.50000  0.25000  0.11225  Biso   1.000  Ag
  N73      1.0000 0.44350  0.05650  0.94350  Biso   1.000  N
  N74      1.0000 0.94350  0.55650  0.44350  Biso   1.000  N
  N75      1.0000 0.05650  0.94350  0.44350  Biso   1.000  N
  N76      1.0000 0.55650  0.44350  0.94350  Biso   1.000  N
  N77      1.0000 0.55650  0.55650  0.55650  Biso   1.000  N
  N78      1.0000 0.05650  0.05650  0.05650  Biso   1.000  N
  N79      1.0000 0.94350  0.44350  0.05650  Biso   1.000  N
  N80      1.0000 0.44350  0.94350  0.55650  Biso   1.000  N
