data_image0
_cell_length_a       25.369
_cell_length_b       25.369
_cell_length_c       25.369
_cell_angle_alpha    90
_cell_angle_beta     90
_cell_angle_gamma    90

_symmetry_space_group_name_H-M    "P 1"
_symmetry_int_tables_number       1

loop_
  _symmetry_equiv_pos_as_xyz
  'x, y, z'

loop_
  _atom_site_label
  _atom_site_occupancy
  _atom_site_fract_x
  _atom_site_fract_y
  _atom_site_fract_z
  _atom_site_thermal_displace_type
  _atom_site_B_iso_or_equiv
  _atom_site_type_symbol
  N1       1.0000 0.36140  0.06390  0.30510  Biso   1.000  N
  N2       1.0000 0.43690  0.10800  0.28490  Biso   1.000  N
  H1       1.0000 0.45970  0.13200  0.29230  Biso   1.000  H
  N3       1.0000 0.44930  0.07220  0.24790  Biso   1.000  N
  C1       1.0000 0.31290  0.06300  0.32650  Biso   1.000  C
  H2       1.0000 0.29100  0.03430  0.31970  Biso   1.000  H
  C2       1.0000 0.29430  0.10350  0.35850  Biso   1.000  C
  H3       1.0000 0.26290  0.10030  0.37710  Biso   1.000  H
  C3       1.0000 0.32530  0.14980  0.36130  Biso   1.000  C
  H4       1.0000 0.31260  0.17990  0.37790  Biso   1.000  H
  C4       1.0000 0.37310  0.14930  0.33970  Biso   1.000  C
  H5       1.0000 0.39480  0.17840  0.34500  Biso   1.000  H
  C5       1.0000 0.39220  0.10830  0.31020  Biso   1.000  C
  C6       1.0000 0.49940  0.07150  0.22980  Biso   1.000  C
  C7       1.0000 0.53860  0.10830  0.25460  Biso   1.000  C
  H6       1.0000 0.52150  0.12860  0.28160  Biso   1.000  H
  H7       1.0000 0.55240  0.13160  0.22820  Biso   1.000  H
  H8       1.0000 0.56680  0.08830  0.26990  Biso   1.000  H
  C8       1.0000 0.51270  0.03830  0.18660  Biso   1.000  C
  C9       1.0000 0.56380  0.02330  0.17750  Biso   1.000  C
  H9       1.0000 0.59000  0.03350  0.20110  Biso   1.000  H
  C10      1.0000 0.57750  0.99320  0.13380  Biso   1.000  C
  H10      1.0000 0.61260  0.98510  0.12690  Biso   1.000  H
  C11      1.0000 0.53990  0.97630  0.10250  Biso   1.000  C
  C12      1.0000 0.48720  0.98850  0.11160  Biso   1.000  C
  H11      1.0000 0.46090  0.97620  0.08920  Biso   1.000  H
  C13      1.0000 0.47590  0.01760  0.15230  Biso   1.000  C
  H12      1.0000 0.44060  0.02500  0.15880  Biso   1.000  H
  N4       1.0000 0.86140  0.56390  0.80510  Biso   1.000  N
  N5       1.0000 0.93690  0.60800  0.78490  Biso   1.000  N
  H13      1.0000 0.95970  0.63200  0.79230  Biso   1.000  H
  N6       1.0000 0.94930  0.57220  0.74790  Biso   1.000  N
  C14      1.0000 0.81290  0.56300  0.82650  Biso   1.000  C
  H14      1.0000 0.79100  0.53430  0.81970  Biso   1.000  H
  C15      1.0000 0.79430  0.60350  0.85850  Biso   1.000  C
  H15      1.0000 0.76290  0.60030  0.87710  Biso   1.000  H
  C16      1.0000 0.82530  0.64980  0.86130  Biso   1.000  C
  H16      1.0000 0.81260  0.67990  0.87790  Biso   1.000  H
  C17      1.0000 0.87310  0.64930  0.83970  Biso   1.000  C
  H17      1.0000 0.89480  0.67840  0.84500  Biso   1.000  H
  C18      1.0000 0.89220  0.60830  0.81020  Biso   1.000  C
  C19      1.0000 0.99940  0.57150  0.72980  Biso   1.000  C
  C20      1.0000 0.03860  0.60830  0.75460  Biso   1.000  C
  H18      1.0000 0.02150  0.62860  0.78160  Biso   1.000  H
  H19      1.0000 0.05240  0.63160  0.72820  Biso   1.000  H
  H20      1.0000 0.06680  0.58830  0.76990  Biso   1.000  H
  C21      1.0000 0.01270  0.53830  0.68660  Biso   1.000  C
  C22      1.0000 0.06380  0.52330  0.67750  Biso   1.000  C
  H21      1.0000 0.09000  0.53350  0.70110  Biso   1.000  H
  C23      1.0000 0.07750  0.49320  0.63380  Biso   1.000  C
  H22      1.0000 0.11260  0.48510  0.62690  Biso   1.000  H
  C24      1.0000 0.03990  0.47630  0.60250  Biso   1.000  C
  C25      1.0000 0.98720  0.48850  0.61160  Biso   1.000  C
  H23      1.0000 0.96090  0.47620  0.58920  Biso   1.000  H
  C26      1.0000 0.97590  0.51760  0.65230  Biso   1.000  C
  H24      1.0000 0.94060  0.52500  0.65880  Biso   1.000  H
  N7       1.0000 0.13860  0.93610  0.80510  Biso   1.000  N
  N8       1.0000 0.06310  0.89200  0.78490  Biso   1.000  N
  H25      1.0000 0.04030  0.86800  0.79230  Biso   1.000  H
  N9       1.0000 0.05070  0.92780  0.74790  Biso   1.000  N
  C27      1.0000 0.18710  0.93700  0.82650  Biso   1.000  C
  H26      1.0000 0.20900  0.96570  0.81970  Biso   1.000  H
  C28      1.0000 0.20570  0.89650  0.85850  Biso   1.000  C
  H27      1.0000 0.23710  0.89970  0.87710  Biso   1.000  H
  C29      1.0000 0.17470  0.85020  0.86130  Biso   1.000  C
  H28      1.0000 0.18740  0.82010  0.87790  Biso   1.000  H
  C30      1.0000 0.12690  0.85070  0.83970  Biso   1.000  C
  H29      1.0000 0.10520  0.82160  0.84500  Biso   1.000  H
  C31      1.0000 0.10780  0.89170  0.81020  Biso   1.000  C
  C32      1.0000 0.00060  0.92850  0.72980  Biso   1.000  C
  C33      1.0000 0.96140  0.89170  0.75460  Biso   1.000  C
  H30      1.0000 0.97850  0.87140  0.78160  Biso   1.000  H
  H31      1.0000 0.94760  0.86840  0.72820  Biso   1.000  H
  H32      1.0000 0.93320  0.91170  0.76990  Biso   1.000  H
  C34      1.0000 0.98730  0.96170  0.68660  Biso   1.000  C
  C35      1.0000 0.93620  0.97670  0.67750  Biso   1.000  C
  H33      1.0000 0.91000  0.96650  0.70110  Biso   1.000  H
  C36      1.0000 0.92250  0.00680  0.63380  Biso   1.000  C
  H34      1.0000 0.88740  0.01490  0.62690  Biso   1.000  H
  C37      1.0000 0.96010  0.02370  0.60250  Biso   1.000  C
  C38      1.0000 0.01280  0.01150  0.61160  Biso   1.000  C
  H35      1.0000 0.03910  0.02380  0.58920  Biso   1.000  H
  C39      1.0000 0.02410  0.98240  0.65230  Biso   1.000  C
  H36      1.0000 0.05940  0.97500  0.65880  Biso   1.000  H
  N10      1.0000 0.63860  0.43610  0.30510  Biso   1.000  N
  N11      1.0000 0.56310  0.39200  0.28490  Biso   1.000  N
  H37      1.0000 0.54030  0.36800  0.29230  Biso   1.000  H
  N12      1.0000 0.55070  0.42780  0.24790  Biso   1.000  N
  C40      1.0000 0.68710  0.43700  0.32650  Biso   1.000  C
  H38      1.0000 0.70900  0.46570  0.31970  Biso   1.000  H
  C41      1.0000 0.70570  0.39650  0.35850  Biso   1.000  C
  H39      1.0000 0.73710  0.39970  0.37710  Biso   1.000  H
  C42      1.0000 0.67470  0.35020  0.36130  Biso   1.000  C
  H40      1.0000 0.68740  0.32010  0.37790  Biso   1.000  H
  C43      1.0000 0.62690  0.35070  0.33970  Biso   1.000  C
  H41      1.0000 0.60520  0.32160  0.34500  Biso   1.000  H
  C44      1.0000 0.60780  0.39170  0.31020  Biso   1.000  C
  C45      1.0000 0.50060  0.42850  0.22980  Biso   1.000  C
  C46      1.0000 0.46140  0.39170  0.25460  Biso   1.000  C
  H42      1.0000 0.47850  0.37140  0.28160  Biso   1.000  H
  H43      1.0000 0.44760  0.36840  0.22820  Biso   1.000  H
  H44      1.0000 0.43320  0.41170  0.26990  Biso   1.000  H
  C47      1.0000 0.48730  0.46170  0.18660  Biso   1.000  C
  C48      1.0000 0.43620  0.47670  0.17750  Biso   1.000  C
  H45      1.0000 0.41000  0.46650  0.20110  Biso   1.000  H
  C49      1.0000 0.42250  0.50680  0.13380  Biso   1.000  C
  H46      1.0000 0.38740  0.51490  0.12690  Biso   1.000  H
  C50      1.0000 0.46010  0.52370  0.10250  Biso   1.000  C
  C51      1.0000 0.51280  0.51150  0.11160  Biso   1.000  C
  H47      1.0000 0.53910  0.52380  0.08920  Biso   1.000  H
  C52      1.0000 0.52410  0.48240  0.15230  Biso   1.000  C
  H48      1.0000 0.55940  0.47500  0.15880  Biso   1.000  H
  N13      1.0000 0.63860  0.56390  0.19490  Biso   1.000  N
  N14      1.0000 0.56310  0.60800  0.21510  Biso   1.000  N
  H49      1.0000 0.54030  0.63200  0.20770  Biso   1.000  H
  N15      1.0000 0.55070  0.57220  0.25210  Biso   1.000  N
  C53      1.0000 0.68710  0.56300  0.17350  Biso   1.000  C
  H50      1.0000 0.70900  0.53430  0.18030  Biso   1.000  H
  C54      1.0000 0.70570  0.60350  0.14150  Biso   1.000  C
  H51      1.0000 0.73710  0.60030  0.12290  Biso   1.000  H
  C55      1.0000 0.67470  0.64980  0.13870  Biso   1.000  C
  H52      1.0000 0.68740  0.67990  0.12210  Biso   1.000  H
  C56      1.0000 0.62690  0.64930  0.16030  Biso   1.000  C
  H53      1.0000 0.60520  0.67840  0.15500  Biso   1.000  H
  C57      1.0000 0.60780  0.60830  0.18980  Biso   1.000  C
  C58      1.0000 0.50060  0.57150  0.27020  Biso   1.000  C
  C59      1.0000 0.46140  0.60830  0.24540  Biso   1.000  C
  H54      1.0000 0.47850  0.62860  0.21840  Biso   1.000  H
  H55      1.0000 0.44760  0.63160  0.27180  Biso   1.000  H
  H56      1.0000 0.43320  0.58830  0.23010  Biso   1.000  H
  C60      1.0000 0.48730  0.53830  0.31340  Biso   1.000  C
  C61      1.0000 0.43620  0.52330  0.32250  Biso   1.000  C
  H57      1.0000 0.41000  0.53350  0.29890  Biso   1.000  H
  C62      1.0000 0.42250  0.49320  0.36620  Biso   1.000  C
  H58      1.0000 0.38740  0.48510  0.37310  Biso   1.000  H
  C63      1.0000 0.46010  0.47630  0.39750  Biso   1.000  C
  C64      1.0000 0.51280  0.48850  0.38840  Biso   1.000  C
  H59      1.0000 0.53910  0.47620  0.41080  Biso   1.000  H
  C65      1.0000 0.52410  0.51760  0.34770  Biso   1.000  C
  H60      1.0000 0.55940  0.52500  0.34120  Biso   1.000  H
  N16      1.0000 0.13860  0.06390  0.69490  Biso   1.000  N
  N17      1.0000 0.06310  0.10800  0.71510  Biso   1.000  N
  H61      1.0000 0.04030  0.13200  0.70770  Biso   1.000  H
  N18      1.0000 0.05070  0.07220  0.75210  Biso   1.000  N
  C66      1.0000 0.18710  0.06300  0.67350  Biso   1.000  C
  H62      1.0000 0.20900  0.03430  0.68030  Biso   1.000  H
  C67      1.0000 0.20570  0.10350  0.64150  Biso   1.000  C
  H63      1.0000 0.23710  0.10030  0.62290  Biso   1.000  H
  C68      1.0000 0.17470  0.14980  0.63870  Biso   1.000  C
  H64      1.0000 0.18740  0.17990  0.62210  Biso   1.000  H
  C69      1.0000 0.12690  0.14930  0.66030  Biso   1.000  C
  H65      1.0000 0.10520  0.17840  0.65500  Biso   1.000  H
  C70      1.0000 0.10780  0.10830  0.68980  Biso   1.000  C
  C71      1.0000 0.00060  0.07150  0.77020  Biso   1.000  C
  C72      1.0000 0.96140  0.10830  0.74540  Biso   1.000  C
  H66      1.0000 0.97850  0.12860  0.71840  Biso   1.000  H
  H67      1.0000 0.94760  0.13160  0.77180  Biso   1.000  H
  H68      1.0000 0.93320  0.08830  0.73010  Biso   1.000  H
  C73      1.0000 0.98730  0.03830  0.81340  Biso   1.000  C
  C74      1.0000 0.93620  0.02330  0.82250  Biso   1.000  C
  H69      1.0000 0.91000  0.03350  0.79890  Biso   1.000  H
  C75      1.0000 0.92250  0.99320  0.86620  Biso   1.000  C
  H70      1.0000 0.88740  0.98510  0.87310  Biso   1.000  H
  C76      1.0000 0.96010  0.97630  0.89750  Biso   1.000  C
  C77      1.0000 0.01280  0.98850  0.88840  Biso   1.000  C
  H71      1.0000 0.03910  0.97620  0.91080  Biso   1.000  H
  C78      1.0000 0.02410  0.01760  0.84770  Biso   1.000  C
  H72      1.0000 0.05940  0.02500  0.84120  Biso   1.000  H
  N19      1.0000 0.86140  0.43610  0.69490  Biso   1.000  N
  N20      1.0000 0.93690  0.39200  0.71510  Biso   1.000  N
  H73      1.0000 0.95970  0.36800  0.70770  Biso   1.000  H
  N21      1.0000 0.94930  0.42780  0.75210  Biso   1.000  N
  C79      1.0000 0.81290  0.43700  0.67350  Biso   1.000  C
  H74      1.0000 0.79100  0.46570  0.68030  Biso   1.000  H
  C80      1.0000 0.79430  0.39650  0.64150  Biso   1.000  C
  H75      1.0000 0.76290  0.39970  0.62290  Biso   1.000  H
  C81      1.0000 0.82530  0.35020  0.63870  Biso   1.000  C
  H76      1.0000 0.81260  0.32010  0.62210  Biso   1.000  H
  C82      1.0000 0.87310  0.35070  0.66030  Biso   1.000  C
  H77      1.0000 0.89480  0.32160  0.65500  Biso   1.000  H
  C83      1.0000 0.89220  0.39170  0.68980  Biso   1.000  C
  C84      1.0000 0.99940  0.42850  0.77020  Biso   1.000  C
  C85      1.0000 0.03860  0.39170  0.74540  Biso   1.000  C
  H78      1.0000 0.02150  0.37140  0.71840  Biso   1.000  H
  H79      1.0000 0.05240  0.36840  0.77180  Biso   1.000  H
  H80      1.0000 0.06680  0.41170  0.73010  Biso   1.000  H
  C86      1.0000 0.01270  0.46170  0.81340  Biso   1.000  C
  C87      1.0000 0.06380  0.47670  0.82250  Biso   1.000  C
  H81      1.0000 0.09000  0.46650  0.79890  Biso   1.000  H
  C88      1.0000 0.07750  0.50680  0.86620  Biso   1.000  C
  H82      1.0000 0.11260  0.51490  0.87310  Biso   1.000  H
  C89      1.0000 0.03990  0.52370  0.89750  Biso   1.000  C
  C90      1.0000 0.98720  0.51150  0.88840  Biso   1.000  C
  H83      1.0000 0.96090  0.52380  0.91080  Biso   1.000  H
  C91      1.0000 0.97590  0.48240  0.84770  Biso   1.000  C
  H84      1.0000 0.94060  0.47500  0.84120  Biso   1.000  H
  N22      1.0000 0.36140  0.93610  0.19490  Biso   1.000  N
  N23      1.0000 0.43690  0.89200  0.21510  Biso   1.000  N
  H85      1.0000 0.45970  0.86800  0.20770  Biso   1.000  H
  N24      1.0000 0.44930  0.92780  0.25210  Biso   1.000  N
  C92      1.0000 0.31290  0.93700  0.17350  Biso   1.000  C
  H86      1.0000 0.29100  0.96570  0.18030  Biso   1.000  H
  C93      1.0000 0.29430  0.89650  0.14150  Biso   1.000  C
  H87      1.0000 0.26290  0.89970  0.12290  Biso   1.000  H
  C94      1.0000 0.32530  0.85020  0.13870  Biso   1.000  C
  H88      1.0000 0.31260  0.82010  0.12210  Biso   1.000  H
  C95      1.0000 0.37310  0.85070  0.16030  Biso   1.000  C
  H89      1.0000 0.39480  0.82160  0.15500  Biso   1.000  H
  C96      1.0000 0.39220  0.89170  0.18980  Biso   1.000  C
  C97      1.0000 0.49940  0.92850  0.27020  Biso   1.000  C
  C98      1.0000 0.53860  0.89170  0.24540  Biso   1.000  C
  H90      1.0000 0.52150  0.87140  0.21840  Biso   1.000  H
  H91      1.0000 0.55240  0.86840  0.27180  Biso   1.000  H
  H92      1.0000 0.56680  0.91170  0.23010  Biso   1.000  H
  C99      1.0000 0.51270  0.96170  0.31340  Biso   1.000  C
  C100     1.0000 0.56380  0.97670  0.32250  Biso   1.000  C
  H93      1.0000 0.59000  0.96650  0.29890  Biso   1.000  H
  C101     1.0000 0.57750  0.00680  0.36620  Biso   1.000  C
  H94      1.0000 0.61260  0.01490  0.37310  Biso   1.000  H
  C102     1.0000 0.53990  0.02370  0.39750  Biso   1.000  C
  C103     1.0000 0.48720  0.01150  0.38840  Biso   1.000  C
  H95      1.0000 0.46090  0.02380  0.41080  Biso   1.000  H
  C104     1.0000 0.47590  0.98240  0.34770  Biso   1.000  C
  H96      1.0000 0.44060  0.97500  0.34120  Biso   1.000  H
  N25      1.0000 0.30510  0.36140  0.06390  Biso   1.000  N
  N26      1.0000 0.28490  0.43690  0.10800  Biso   1.000  N
  H97      1.0000 0.29230  0.45970  0.13200  Biso   1.000  H
  N27      1.0000 0.24790  0.44930  0.07220  Biso   1.000  N
  C105     1.0000 0.32650  0.31290  0.06300  Biso   1.000  C
  H98      1.0000 0.31970  0.29100  0.03430  Biso   1.000  H
  C106     1.0000 0.35850  0.29430  0.10350  Biso   1.000  C
  H99      1.0000 0.37710  0.26290  0.10030  Biso   1.000  H
  C107     1.0000 0.36130  0.32530  0.14980  Biso   1.000  C
  H100     1.0000 0.37790  0.31260  0.17990  Biso   1.000  H
  C108     1.0000 0.33970  0.37310  0.14930  Biso   1.000  C
  H101     1.0000 0.34500  0.39480  0.17840  Biso   1.000  H
  C109     1.0000 0.31020  0.39220  0.10830  Biso   1.000  C
  C110     1.0000 0.22980  0.49940  0.07150  Biso   1.000  C
  C111     1.0000 0.25460  0.53860  0.10830  Biso   1.000  C
  H102     1.0000 0.28160  0.52150  0.12860  Biso   1.000  H
  H103     1.0000 0.22820  0.55240  0.13160  Biso   1.000  H
  H104     1.0000 0.26990  0.56680  0.08830  Biso   1.000  H
  C112     1.0000 0.18660  0.51270  0.03830  Biso   1.000  C
  C113     1.0000 0.17750  0.56380  0.02330  Biso   1.000  C
  H105     1.0000 0.20110  0.59000  0.03350  Biso   1.000  H
  C114     1.0000 0.13380  0.57750  0.99320  Biso   1.000  C
  H106     1.0000 0.12690  0.61260  0.98510  Biso   1.000  H
  C115     1.0000 0.10250  0.53990  0.97630  Biso   1.000  C
  C116     1.0000 0.11160  0.48720  0.98850  Biso   1.000  C
  H107     1.0000 0.08920  0.46090  0.97620  Biso   1.000  H
  C117     1.0000 0.15230  0.47590  0.01760  Biso   1.000  C
  H108     1.0000 0.15880  0.44060  0.02500  Biso   1.000  H
  N28      1.0000 0.80510  0.86140  0.56390  Biso   1.000  N
  N29      1.0000 0.78490  0.93690  0.60800  Biso   1.000  N
  H109     1.0000 0.79230  0.95970  0.63200  Biso   1.000  H
  N30      1.0000 0.74790  0.94930  0.57220  Biso   1.000  N
  C118     1.0000 0.82650  0.81290  0.56300  Biso   1.000  C
  H110     1.0000 0.81970  0.79100  0.53430  Biso   1.000  H
  C119     1.0000 0.85850  0.79430  0.60350  Biso   1.000  C
  H111     1.0000 0.87710  0.76290  0.60030  Biso   1.000  H
  C120     1.0000 0.86130  0.82530  0.64980  Biso   1.000  C
  H112     1.0000 0.87790  0.81260  0.67990  Biso   1.000  H
  C121     1.0000 0.83970  0.87310  0.64930  Biso   1.000  C
  H113     1.0000 0.84500  0.89480  0.67840  Biso   1.000  H
  C122     1.0000 0.81020  0.89220  0.60830  Biso   1.000  C
  C123     1.0000 0.72980  0.99940  0.57150  Biso   1.000  C
  C124     1.0000 0.75460  0.03860  0.60830  Biso   1.000  C
  H114     1.0000 0.78160  0.02150  0.62860  Biso   1.000  H
  H115     1.0000 0.72820  0.05240  0.63160  Biso   1.000  H
  H116     1.0000 0.76990  0.06680  0.58830  Biso   1.000  H
  C125     1.0000 0.68660  0.01270  0.53830  Biso   1.000  C
  C126     1.0000 0.67750  0.06380  0.52330  Biso   1.000  C
  H117     1.0000 0.70110  0.09000  0.53350  Biso   1.000  H
  C127     1.0000 0.63380  0.07750  0.49320  Biso   1.000  C
  H118     1.0000 0.62690  0.11260  0.48510  Biso   1.000  H
  C128     1.0000 0.60250  0.03990  0.47630  Biso   1.000  C
  C129     1.0000 0.61160  0.98720  0.48850  Biso   1.000  C
  H119     1.0000 0.58920  0.96090  0.47620  Biso   1.000  H
  C130     1.0000 0.65230  0.97590  0.51760  Biso   1.000  C
  H120     1.0000 0.65880  0.94060  0.52500  Biso   1.000  H
  N31      1.0000 0.80510  0.13860  0.93610  Biso   1.000  N
  N32      1.0000 0.78490  0.06310  0.89200  Biso   1.000  N
  H121     1.0000 0.79230  0.04030  0.86800  Biso   1.000  H
  N33      1.0000 0.74790  0.05070  0.92780  Biso   1.000  N
  C131     1.0000 0.82650  0.18710  0.93700  Biso   1.000  C
  H122     1.0000 0.81970  0.20900  0.96570  Biso   1.000  H
  C132     1.0000 0.85850  0.20570  0.89650  Biso   1.000  C
  H123     1.0000 0.87710  0.23710  0.89970  Biso   1.000  H
  C133     1.0000 0.86130  0.17470  0.85020  Biso   1.000  C
  H124     1.0000 0.87790  0.18740  0.82010  Biso   1.000  H
  C134     1.0000 0.83970  0.12690  0.85070  Biso   1.000  C
  H125     1.0000 0.84500  0.10520  0.82160  Biso   1.000  H
  C135     1.0000 0.81020  0.10780  0.89170  Biso   1.000  C
  C136     1.0000 0.72980  0.00060  0.92850  Biso   1.000  C
  C137     1.0000 0.75460  0.96140  0.89170  Biso   1.000  C
  H126     1.0000 0.78160  0.97850  0.87140  Biso   1.000  H
  H127     1.0000 0.72820  0.94760  0.86840  Biso   1.000  H
  H128     1.0000 0.76990  0.93320  0.91170  Biso   1.000  H
  C138     1.0000 0.68660  0.98730  0.96170  Biso   1.000  C
  C139     1.0000 0.67750  0.93620  0.97670  Biso   1.000  C
  H129     1.0000 0.70110  0.91000  0.96650  Biso   1.000  H
  C140     1.0000 0.63380  0.92250  0.00680  Biso   1.000  C
  H130     1.0000 0.62690  0.88740  0.01490  Biso   1.000  H
  C141     1.0000 0.60250  0.96010  0.02370  Biso   1.000  C
  C142     1.0000 0.61160  0.01280  0.01150  Biso   1.000  C
  H131     1.0000 0.58920  0.03910  0.02380  Biso   1.000  H
  C143     1.0000 0.65230  0.02410  0.98240  Biso   1.000  C
  H132     1.0000 0.65880  0.05940  0.97500  Biso   1.000  H
  N34      1.0000 0.30510  0.63860  0.43610  Biso   1.000  N
  N35      1.0000 0.28490  0.56310  0.39200  Biso   1.000  N
  H133     1.0000 0.29230  0.54030  0.36800  Biso   1.000  H
  N36      1.0000 0.24790  0.55070  0.42780  Biso   1.000  N
  C144     1.0000 0.32650  0.68710  0.43700  Biso   1.000  C
  H134     1.0000 0.31970  0.70900  0.46570  Biso   1.000  H
  C145     1.0000 0.35850  0.70570  0.39650  Biso   1.000  C
  H135     1.0000 0.37710  0.73710  0.39970  Biso   1.000  H
  C146     1.0000 0.36130  0.67470  0.35020  Biso   1.000  C
  H136     1.0000 0.37790  0.68740  0.32010  Biso   1.000  H
  C147     1.0000 0.33970  0.62690  0.35070  Biso   1.000  C
  H137     1.0000 0.34500  0.60520  0.32160  Biso   1.000  H
  C148     1.0000 0.31020  0.60780  0.39170  Biso   1.000  C
  C149     1.0000 0.22980  0.50060  0.42850  Biso   1.000  C
  C150     1.0000 0.25460  0.46140  0.39170  Biso   1.000  C
  H138     1.0000 0.28160  0.47850  0.37140  Biso   1.000  H
  H139     1.0000 0.22820  0.44760  0.36840  Biso   1.000  H
  H140     1.0000 0.26990  0.43320  0.41170  Biso   1.000  H
  C151     1.0000 0.18660  0.48730  0.46170  Biso   1.000  C
  C152     1.0000 0.17750  0.43620  0.47670  Biso   1.000  C
  H141     1.0000 0.20110  0.41000  0.46650  Biso   1.000  H
  C153     1.0000 0.13380  0.42250  0.50680  Biso   1.000  C
  H142     1.0000 0.12690  0.38740  0.51490  Biso   1.000  H
  C154     1.0000 0.10250  0.46010  0.52370  Biso   1.000  C
  C155     1.0000 0.11160  0.51280  0.51150  Biso   1.000  C
  H143     1.0000 0.08920  0.53910  0.52380  Biso   1.000  H
  C156     1.0000 0.15230  0.52410  0.48240  Biso   1.000  C
  H144     1.0000 0.15880  0.55940  0.47500  Biso   1.000  H
  N37      1.0000 0.19490  0.63860  0.56390  Biso   1.000  N
  N38      1.0000 0.21510  0.56310  0.60800  Biso   1.000  N
  H145     1.0000 0.20770  0.54030  0.63200  Biso   1.000  H
  N39      1.0000 0.25210  0.55070  0.57220  Biso   1.000  N
  C157     1.0000 0.17350  0.68710  0.56300  Biso   1.000  C
  H146     1.0000 0.18030  0.70900  0.53430  Biso   1.000  H
  C158     1.0000 0.14150  0.70570  0.60350  Biso   1.000  C
  H147     1.0000 0.12290  0.73710  0.60030  Biso   1.000  H
  C159     1.0000 0.13870  0.67470  0.64980  Biso   1.000  C
  H148     1.0000 0.12210  0.68740  0.67990  Biso   1.000  H
  C160     1.0000 0.16030  0.62690  0.64930  Biso   1.000  C
  H149     1.0000 0.15500  0.60520  0.67840  Biso   1.000  H
  C161     1.0000 0.18980  0.60780  0.60830  Biso   1.000  C
  C162     1.0000 0.27020  0.50060  0.57150  Biso   1.000  C
  C163     1.0000 0.24540  0.46140  0.60830  Biso   1.000  C
  H150     1.0000 0.21840  0.47850  0.62860  Biso   1.000  H
  H151     1.0000 0.27180  0.44760  0.63160  Biso   1.000  H
  H152     1.0000 0.23010  0.43320  0.58830  Biso   1.000  H
  C164     1.0000 0.31340  0.48730  0.53830  Biso   1.000  C
  C165     1.0000 0.32250  0.43620  0.52330  Biso   1.000  C
  H153     1.0000 0.29890  0.41000  0.53350  Biso   1.000  H
  C166     1.0000 0.36620  0.42250  0.49320  Biso   1.000  C
  H154     1.0000 0.37310  0.38740  0.48510  Biso   1.000  H
  C167     1.0000 0.39750  0.46010  0.47630  Biso   1.000  C
  C168     1.0000 0.38840  0.51280  0.48850  Biso   1.000  C
  H155     1.0000 0.41080  0.53910  0.47620  Biso   1.000  H
  C169     1.0000 0.34770  0.52410  0.51760  Biso   1.000  C
  H156     1.0000 0.34120  0.55940  0.52500  Biso   1.000  H
  N40      1.0000 0.69490  0.13860  0.06390  Biso   1.000  N
  N41      1.0000 0.71510  0.06310  0.10800  Biso   1.000  N
  H157     1.0000 0.70770  0.04030  0.13200  Biso   1.000  H
  N42      1.0000 0.75210  0.05070  0.07220  Biso   1.000  N
  C170     1.0000 0.67350  0.18710  0.06300  Biso   1.000  C
  H158     1.0000 0.68030  0.20900  0.03430  Biso   1.000  H
  C171     1.0000 0.64150  0.20570  0.10350  Biso   1.000  C
  H159     1.0000 0.62290  0.23710  0.10030  Biso   1.000  H
  C172     1.0000 0.63870  0.17470  0.14980  Biso   1.000  C
  H160     1.0000 0.62210  0.18740  0.17990  Biso   1.000  H
  C173     1.0000 0.66030  0.12690  0.14930  Biso   1.000  C
  H161     1.0000 0.65500  0.10520  0.17840  Biso   1.000  H
  C174     1.0000 0.68980  0.10780  0.10830  Biso   1.000  C
  C175     1.0000 0.77020  0.00060  0.07150  Biso   1.000  C
  C176     1.0000 0.74540  0.96140  0.10830  Biso   1.000  C
  H162     1.0000 0.71840  0.97850  0.12860  Biso   1.000  H
  H163     1.0000 0.77180  0.94760  0.13160  Biso   1.000  H
  H164     1.0000 0.73010  0.93320  0.08830  Biso   1.000  H
  C177     1.0000 0.81340  0.98730  0.03830  Biso   1.000  C
  C178     1.0000 0.82250  0.93620  0.02330  Biso   1.000  C
  H165     1.0000 0.79890  0.91000  0.03350  Biso   1.000  H
  C179     1.0000 0.86620  0.92250  0.99320  Biso   1.000  C
  H166     1.0000 0.87310  0.88740  0.98510  Biso   1.000  H
  C180     1.0000 0.89750  0.96010  0.97630  Biso   1.000  C
  C181     1.0000 0.88840  0.01280  0.98850  Biso   1.000  C
  H167     1.0000 0.91080  0.03910  0.97620  Biso   1.000  H
  C182     1.0000 0.84770  0.02410  0.01760  Biso   1.000  C
  H168     1.0000 0.84120  0.05940  0.02500  Biso   1.000  H
  N43      1.0000 0.69490  0.86140  0.43610  Biso   1.000  N
  N44      1.0000 0.71510  0.93690  0.39200  Biso   1.000  N
  H169     1.0000 0.70770  0.95970  0.36800  Biso   1.000  H
  N45      1.0000 0.75210  0.94930  0.42780  Biso   1.000  N
  C183     1.0000 0.67350  0.81290  0.43700  Biso   1.000  C
  H170     1.0000 0.68030  0.79100  0.46570  Biso   1.000  H
  C184     1.0000 0.64150  0.79430  0.39650  Biso   1.000  C
  H171     1.0000 0.62290  0.76290  0.39970  Biso   1.000  H
  C185     1.0000 0.63870  0.82530  0.35020  Biso   1.000  C
  H172     1.0000 0.62210  0.81260  0.32010  Biso   1.000  H
  C186     1.0000 0.66030  0.87310  0.35070  Biso   1.000  C
  H173     1.0000 0.65500  0.89480  0.32160  Biso   1.000  H
  C187     1.0000 0.68980  0.89220  0.39170  Biso   1.000  C
  C188     1.0000 0.77020  0.99940  0.42850  Biso   1.000  C
  C189     1.0000 0.74540  0.03860  0.39170  Biso   1.000  C
  H174     1.0000 0.71840  0.02150  0.37140  Biso   1.000  H
  H175     1.0000 0.77180  0.05240  0.36840  Biso   1.000  H
  H176     1.0000 0.73010  0.06680  0.41170  Biso   1.000  H
  C190     1.0000 0.81340  0.01270  0.46170  Biso   1.000  C
  C191     1.0000 0.82250  0.06380  0.47670  Biso   1.000  C
  H177     1.0000 0.79890  0.09000  0.46650  Biso   1.000  H
  C192     1.0000 0.86620  0.07750  0.50680  Biso   1.000  C
  H178     1.0000 0.87310  0.11260  0.51490  Biso   1.000  H
  C193     1.0000 0.89750  0.03990  0.52370  Biso   1.000  C
  C194     1.0000 0.88840  0.98720  0.51150  Biso   1.000  C
  H179     1.0000 0.91080  0.96090  0.52380  Biso   1.000  H
  C195     1.0000 0.84770  0.97590  0.48240  Biso   1.000  C
  H180     1.0000 0.84120  0.94060  0.47500  Biso   1.000  H
  N46      1.0000 0.19490  0.36140  0.93610  Biso   1.000  N
  N47      1.0000 0.21510  0.43690  0.89200  Biso   1.000  N
  H181     1.0000 0.20770  0.45970  0.86800  Biso   1.000  H
  N48      1.0000 0.25210  0.44930  0.92780  Biso   1.000  N
  C196     1.0000 0.17350  0.31290  0.93700  Biso   1.000  C
  H182     1.0000 0.18030  0.29100  0.96570  Biso   1.000  H
  C197     1.0000 0.14150  0.29430  0.89650  Biso   1.000  C
  H183     1.0000 0.12290  0.26290  0.89970  Biso   1.000  H
  C198     1.0000 0.13870  0.32530  0.85020  Biso   1.000  C
  H184     1.0000 0.12210  0.31260  0.82010  Biso   1.000  H
  C199     1.0000 0.16030  0.37310  0.85070  Biso   1.000  C
  H185     1.0000 0.15500  0.39480  0.82160  Biso   1.000  H
  C200     1.0000 0.18980  0.39220  0.89170  Biso   1.000  C
  C201     1.0000 0.27020  0.49940  0.92850  Biso   1.000  C
  C202     1.0000 0.24540  0.53860  0.89170  Biso   1.000  C
  H186     1.0000 0.21840  0.52150  0.87140  Biso   1.000  H
  H187     1.0000 0.27180  0.55240  0.86840  Biso   1.000  H
  H188     1.0000 0.23010  0.56680  0.91170  Biso   1.000  H
  C203     1.0000 0.31340  0.51270  0.96170  Biso   1.000  C
  C204     1.0000 0.32250  0.56380  0.97670  Biso   1.000  C
  H189     1.0000 0.29890  0.59000  0.96650  Biso   1.000  H
  C205     1.0000 0.36620  0.57750  0.00680  Biso   1.000  C
  H190     1.0000 0.37310  0.61260  0.01490  Biso   1.000  H
  C206     1.0000 0.39750  0.53990  0.02370  Biso   1.000  C
  C207     1.0000 0.38840  0.48720  0.01150  Biso   1.000  C
  H191     1.0000 0.41080  0.46090  0.02380  Biso   1.000  H
  C208     1.0000 0.34770  0.47590  0.98240  Biso   1.000  C
  H192     1.0000 0.34120  0.44060  0.97500  Biso   1.000  H
  N49      1.0000 0.06390  0.30510  0.36140  Biso   1.000  N
  N50      1.0000 0.10800  0.28490  0.43690  Biso   1.000  N
  H193     1.0000 0.13200  0.29230  0.45970  Biso   1.000  H
  N51      1.0000 0.07220  0.24790  0.44930  Biso   1.000  N
  C209     1.0000 0.06300  0.32650  0.31290  Biso   1.000  C
  H194     1.0000 0.03430  0.31970  0.29100  Biso   1.000  H
  C210     1.0000 0.10350  0.35850  0.29430  Biso   1.000  C
  H195     1.0000 0.10030  0.37710  0.26290  Biso   1.000  H
  C211     1.0000 0.14980  0.36130  0.32530  Biso   1.000  C
  H196     1.0000 0.17990  0.37790  0.31260  Biso   1.000  H
  C212     1.0000 0.14930  0.33970  0.37310  Biso   1.000  C
  H197     1.0000 0.17840  0.34500  0.39480  Biso   1.000  H
  C213     1.0000 0.10830  0.31020  0.39220  Biso   1.000  C
  C214     1.0000 0.07150  0.22980  0.49940  Biso   1.000  C
  C215     1.0000 0.10830  0.25460  0.53860  Biso   1.000  C
  H198     1.0000 0.12860  0.28160  0.52150  Biso   1.000  H
  H199     1.0000 0.13160  0.22820  0.55240  Biso   1.000  H
  H200     1.0000 0.08830  0.26990  0.56680  Biso   1.000  H
  C216     1.0000 0.03830  0.18660  0.51270  Biso   1.000  C
  C217     1.0000 0.02330  0.17750  0.56380  Biso   1.000  C
  H201     1.0000 0.03350  0.20110  0.59000  Biso   1.000  H
  C218     1.0000 0.99320  0.13380  0.57750  Biso   1.000  C
  H202     1.0000 0.98510  0.12690  0.61260  Biso   1.000  H
  C219     1.0000 0.97630  0.10250  0.53990  Biso   1.000  C
  C220     1.0000 0.98850  0.11160  0.48720  Biso   1.000  C
  H203     1.0000 0.97620  0.08920  0.46090  Biso   1.000  H
  C221     1.0000 0.01760  0.15230  0.47590  Biso   1.000  C
  H204     1.0000 0.02500  0.15880  0.44060  Biso   1.000  H
  N52      1.0000 0.56390  0.80510  0.86140  Biso   1.000  N
  N53      1.0000 0.60800  0.78490  0.93690  Biso   1.000  N
  H205     1.0000 0.63200  0.79230  0.95970  Biso   1.000  H
  N54      1.0000 0.57220  0.74790  0.94930  Biso   1.000  N
  C222     1.0000 0.56300  0.82650  0.81290  Biso   1.000  C
  H206     1.0000 0.53430  0.81970  0.79100  Biso   1.000  H
  C223     1.0000 0.60350  0.85850  0.79430  Biso   1.000  C
  H207     1.0000 0.60030  0.87710  0.76290  Biso   1.000  H
  C224     1.0000 0.64980  0.86130  0.82530  Biso   1.000  C
  H208     1.0000 0.67990  0.87790  0.81260  Biso   1.000  H
  C225     1.0000 0.64930  0.83970  0.87310  Biso   1.000  C
  H209     1.0000 0.67840  0.84500  0.89480  Biso   1.000  H
  C226     1.0000 0.60830  0.81020  0.89220  Biso   1.000  C
  C227     1.0000 0.57150  0.72980  0.99940  Biso   1.000  C
  C228     1.0000 0.60830  0.75460  0.03860  Biso   1.000  C
  H210     1.0000 0.62860  0.78160  0.02150  Biso   1.000  H
  H211     1.0000 0.63160  0.72820  0.05240  Biso   1.000  H
  H212     1.0000 0.58830  0.76990  0.06680  Biso   1.000  H
  C229     1.0000 0.53830  0.68660  0.01270  Biso   1.000  C
  C230     1.0000 0.52330  0.67750  0.06380  Biso   1.000  C
  H213     1.0000 0.53350  0.70110  0.09000  Biso   1.000  H
  C231     1.0000 0.49320  0.63380  0.07750  Biso   1.000  C
  H214     1.0000 0.48510  0.62690  0.11260  Biso   1.000  H
  C232     1.0000 0.47630  0.60250  0.03990  Biso   1.000  C
  C233     1.0000 0.48850  0.61160  0.98720  Biso   1.000  C
  H215     1.0000 0.47620  0.58920  0.96090  Biso   1.000  H
  C234     1.0000 0.51760  0.65230  0.97590  Biso   1.000  C
  H216     1.0000 0.52500  0.65880  0.94060  Biso   1.000  H
  N55      1.0000 0.93610  0.80510  0.13860  Biso   1.000  N
  N56      1.0000 0.89200  0.78490  0.06310  Biso   1.000  N
  H217     1.0000 0.86800  0.79230  0.04030  Biso   1.000  H
  N57      1.0000 0.92780  0.74790  0.05070  Biso   1.000  N
  C235     1.0000 0.93700  0.82650  0.18710  Biso   1.000  C
  H218     1.0000 0.96570  0.81970  0.20900  Biso   1.000  H
  C236     1.0000 0.89650  0.85850  0.20570  Biso   1.000  C
  H219     1.0000 0.89970  0.87710  0.23710  Biso   1.000  H
  C237     1.0000 0.85020  0.86130  0.17470  Biso   1.000  C
  H220     1.0000 0.82010  0.87790  0.18740  Biso   1.000  H
  C238     1.0000 0.85070  0.83970  0.12690  Biso   1.000  C
  H221     1.0000 0.82160  0.84500  0.10520  Biso   1.000  H
  C239     1.0000 0.89170  0.81020  0.10780  Biso   1.000  C
  C240     1.0000 0.92850  0.72980  0.00060  Biso   1.000  C
  C241     1.0000 0.89170  0.75460  0.96140  Biso   1.000  C
  H222     1.0000 0.87140  0.78160  0.97850  Biso   1.000  H
  H223     1.0000 0.86840  0.72820  0.94760  Biso   1.000  H
  H224     1.0000 0.91170  0.76990  0.93320  Biso   1.000  H
  C242     1.0000 0.96170  0.68660  0.98730  Biso   1.000  C
  C243     1.0000 0.97670  0.67750  0.93620  Biso   1.000  C
  H225     1.0000 0.96650  0.70110  0.91000  Biso   1.000  H
  C244     1.0000 0.00680  0.63380  0.92250  Biso   1.000  C
  H226     1.0000 0.01490  0.62690  0.88740  Biso   1.000  H
  C245     1.0000 0.02370  0.60250  0.96010  Biso   1.000  C
  C246     1.0000 0.01150  0.61160  0.01280  Biso   1.000  C
  H227     1.0000 0.02380  0.58920  0.03910  Biso   1.000  H
  C247     1.0000 0.98240  0.65230  0.02410  Biso   1.000  C
  H228     1.0000 0.97500  0.65880  0.05940  Biso   1.000  H
  N58      1.0000 0.43610  0.30510  0.63860  Biso   1.000  N
  N59      1.0000 0.39200  0.28490  0.56310  Biso   1.000  N
  H229     1.0000 0.36800  0.29230  0.54030  Biso   1.000  H
  N60      1.0000 0.42780  0.24790  0.55070  Biso   1.000  N
  C248     1.0000 0.43700  0.32650  0.68710  Biso   1.000  C
  H230     1.0000 0.46570  0.31970  0.70900  Biso   1.000  H
  C249     1.0000 0.39650  0.35850  0.70570  Biso   1.000  C
  H231     1.0000 0.39970  0.37710  0.73710  Biso   1.000  H
  C250     1.0000 0.35020  0.36130  0.67470  Biso   1.000  C
  H232     1.0000 0.32010  0.37790  0.68740  Biso   1.000  H
  C251     1.0000 0.35070  0.33970  0.62690  Biso   1.000  C
  H233     1.0000 0.32160  0.34500  0.60520  Biso   1.000  H
  C252     1.0000 0.39170  0.31020  0.60780  Biso   1.000  C
  C253     1.0000 0.42850  0.22980  0.50060  Biso   1.000  C
  C254     1.0000 0.39170  0.25460  0.46140  Biso   1.000  C
  H234     1.0000 0.37140  0.28160  0.47850  Biso   1.000  H
  H235     1.0000 0.36840  0.22820  0.44760  Biso   1.000  H
  H236     1.0000 0.41170  0.26990  0.43320  Biso   1.000  H
  C255     1.0000 0.46170  0.18660  0.48730  Biso   1.000  C
  C256     1.0000 0.47670  0.17750  0.43620  Biso   1.000  C
  H237     1.0000 0.46650  0.20110  0.41000  Biso   1.000  H
  C257     1.0000 0.50680  0.13380  0.42250  Biso   1.000  C
  H238     1.0000 0.51490  0.12690  0.38740  Biso   1.000  H
  C258     1.0000 0.52370  0.10250  0.46010  Biso   1.000  C
  C259     1.0000 0.51150  0.11160  0.51280  Biso   1.000  C
  H239     1.0000 0.52380  0.08920  0.53910  Biso   1.000  H
  C260     1.0000 0.48240  0.15230  0.52410  Biso   1.000  C
  H240     1.0000 0.47500  0.15880  0.55940  Biso   1.000  H
  N61      1.0000 0.56390  0.19490  0.63860  Biso   1.000  N
  N62      1.0000 0.60800  0.21510  0.56310  Biso   1.000  N
  H241     1.0000 0.63200  0.20770  0.54030  Biso   1.000  H
  N63      1.0000 0.57220  0.25210  0.55070  Biso   1.000  N
  C261     1.0000 0.56300  0.17350  0.68710  Biso   1.000  C
  H242     1.0000 0.53430  0.18030  0.70900  Biso   1.000  H
  C262     1.0000 0.60350  0.14150  0.70570  Biso   1.000  C
  H243     1.0000 0.60030  0.12290  0.73710  Biso   1.000  H
  C263     1.0000 0.64980  0.13870  0.67470  Biso   1.000  C
  H244     1.0000 0.67990  0.12210  0.68740  Biso   1.000  H
  C264     1.0000 0.64930  0.16030  0.62690  Biso   1.000  C
  H245     1.0000 0.67840  0.15500  0.60520  Biso   1.000  H
  C265     1.0000 0.60830  0.18980  0.60780  Biso   1.000  C
  C266     1.0000 0.57150  0.27020  0.50060  Biso   1.000  C
  C267     1.0000 0.60830  0.24540  0.46140  Biso   1.000  C
  H246     1.0000 0.62860  0.21840  0.47850  Biso   1.000  H
  H247     1.0000 0.63160  0.27180  0.44760  Biso   1.000  H
  H248     1.0000 0.58830  0.23010  0.43320  Biso   1.000  H
  C268     1.0000 0.53830  0.31340  0.48730  Biso   1.000  C
  C269     1.0000 0.52330  0.32250  0.43620  Biso   1.000  C
  H249     1.0000 0.53350  0.29890  0.41000  Biso   1.000  H
  C270     1.0000 0.49320  0.36620  0.42250  Biso   1.000  C
  H250     1.0000 0.48510  0.37310  0.38740  Biso   1.000  H
  C271     1.0000 0.47630  0.39750  0.46010  Biso   1.000  C
  C272     1.0000 0.48850  0.38840  0.51280  Biso   1.000  C
  H251     1.0000 0.47620  0.41080  0.53910  Biso   1.000  H
  C273     1.0000 0.51760  0.34770  0.52410  Biso   1.000  C
  H252     1.0000 0.52500  0.34120  0.55940  Biso   1.000  H
  N64      1.0000 0.06390  0.69490  0.13860  Biso   1.000  N
  N65      1.0000 0.10800  0.71510  0.06310  Biso   1.000  N
  H253     1.0000 0.13200  0.70770  0.04030  Biso   1.000  H
  N66      1.0000 0.07220  0.75210  0.05070  Biso   1.000  N
  C274     1.0000 0.06300  0.67350  0.18710  Biso   1.000  C
  H254     1.0000 0.03430  0.68030  0.20900  Biso   1.000  H
  C275     1.0000 0.10350  0.64150  0.20570  Biso   1.000  C
  H255     1.0000 0.10030  0.62290  0.23710  Biso   1.000  H
  C276     1.0000 0.14980  0.63870  0.17470  Biso   1.000  C
  H256     1.0000 0.17990  0.62210  0.18740  Biso   1.000  H
  C277     1.0000 0.14930  0.66030  0.12690  Biso   1.000  C
  H257     1.0000 0.17840  0.65500  0.10520  Biso   1.000  H
  C278     1.0000 0.10830  0.68980  0.10780  Biso   1.000  C
  C279     1.0000 0.07150  0.77020  0.00060  Biso   1.000  C
  C280     1.0000 0.10830  0.74540  0.96140  Biso   1.000  C
  H258     1.0000 0.12860  0.71840  0.97850  Biso   1.000  H
  H259     1.0000 0.13160  0.77180  0.94760  Biso   1.000  H
  H260     1.0000 0.08830  0.73010  0.93320  Biso   1.000  H
  C281     1.0000 0.03830  0.81340  0.98730  Biso   1.000  C
  C282     1.0000 0.02330  0.82250  0.93620  Biso   1.000  C
  H261     1.0000 0.03350  0.79890  0.91000  Biso   1.000  H
  C283     1.0000 0.99320  0.86620  0.92250  Biso   1.000  C
  H262     1.0000 0.98510  0.87310  0.88740  Biso   1.000  H
  C284     1.0000 0.97630  0.89750  0.96010  Biso   1.000  C
  C285     1.0000 0.98850  0.88840  0.01280  Biso   1.000  C
  H263     1.0000 0.97620  0.91080  0.03910  Biso   1.000  H
  C286     1.0000 0.01760  0.84770  0.02410  Biso   1.000  C
  H264     1.0000 0.02500  0.84120  0.05940  Biso   1.000  H
  N67      1.0000 0.43610  0.69490  0.86140  Biso   1.000  N
  N68      1.0000 0.39200  0.71510  0.93690  Biso   1.000  N
  H265     1.0000 0.36800  0.70770  0.95970  Biso   1.000  H
  N69      1.0000 0.42780  0.75210  0.94930  Biso   1.000  N
  C287     1.0000 0.43700  0.67350  0.81290  Biso   1.000  C
  H266     1.0000 0.46570  0.68030  0.79100  Biso   1.000  H
  C288     1.0000 0.39650  0.64150  0.79430  Biso   1.000  C
  H267     1.0000 0.39970  0.62290  0.76290  Biso   1.000  H
  C289     1.0000 0.35020  0.63870  0.82530  Biso   1.000  C
  H268     1.0000 0.32010  0.62210  0.81260  Biso   1.000  H
  C290     1.0000 0.35070  0.66030  0.87310  Biso   1.000  C
  H269     1.0000 0.32160  0.65500  0.89480  Biso   1.000  H
  C291     1.0000 0.39170  0.68980  0.89220  Biso   1.000  C
  C292     1.0000 0.42850  0.77020  0.99940  Biso   1.000  C
  C293     1.0000 0.39170  0.74540  0.03860  Biso   1.000  C
  H270     1.0000 0.37140  0.71840  0.02150  Biso   1.000  H
  H271     1.0000 0.36840  0.77180  0.05240  Biso   1.000  H
  H272     1.0000 0.41170  0.73010  0.06680  Biso   1.000  H
  C294     1.0000 0.46170  0.81340  0.01270  Biso   1.000  C
  C295     1.0000 0.47670  0.82250  0.06380  Biso   1.000  C
  H273     1.0000 0.46650  0.79890  0.09000  Biso   1.000  H
  C296     1.0000 0.50680  0.86620  0.07750  Biso   1.000  C
  H274     1.0000 0.51490  0.87310  0.11260  Biso   1.000  H
  C297     1.0000 0.52370  0.89750  0.03990  Biso   1.000  C
  C298     1.0000 0.51150  0.88840  0.98720  Biso   1.000  C
  H275     1.0000 0.52380  0.91080  0.96090  Biso   1.000  H
  C299     1.0000 0.48240  0.84770  0.97590  Biso   1.000  C
  H276     1.0000 0.47500  0.84120  0.94060  Biso   1.000  H
  N70      1.0000 0.93610  0.19490  0.36140  Biso   1.000  N
  N71      1.0000 0.89200  0.21510  0.43690  Biso   1.000  N
  H277     1.0000 0.86800  0.20770  0.45970  Biso   1.000  H
  N72      1.0000 0.92780  0.25210  0.44930  Biso   1.000  N
  C300     1.0000 0.93700  0.17350  0.31290  Biso   1.000  C
  H278     1.0000 0.96570  0.18030  0.29100  Biso   1.000  H
  C301     1.0000 0.89650  0.14150  0.29430  Biso   1.000  C
  H279     1.0000 0.89970  0.12290  0.26290  Biso   1.000  H
  C302     1.0000 0.85020  0.13870  0.32530  Biso   1.000  C
  H280     1.0000 0.82010  0.12210  0.31260  Biso   1.000  H
  C303     1.0000 0.85070  0.16030  0.37310  Biso   1.000  C
  H281     1.0000 0.82160  0.15500  0.39480  Biso   1.000  H
  C304     1.0000 0.89170  0.18980  0.39220  Biso   1.000  C
  C305     1.0000 0.92850  0.27020  0.49940  Biso   1.000  C
  C306     1.0000 0.89170  0.24540  0.53860  Biso   1.000  C
  H282     1.0000 0.87140  0.21840  0.52150  Biso   1.000  H
  H283     1.0000 0.86840  0.27180  0.55240  Biso   1.000  H
  H284     1.0000 0.91170  0.23010  0.56680  Biso   1.000  H
  C307     1.0000 0.96170  0.31340  0.51270  Biso   1.000  C
  C308     1.0000 0.97670  0.32250  0.56380  Biso   1.000  C
  H285     1.0000 0.96650  0.29890  0.59000  Biso   1.000  H
  C309     1.0000 0.00680  0.36620  0.57750  Biso   1.000  C
  H286     1.0000 0.01490  0.37310  0.61260  Biso   1.000  H
  C310     1.0000 0.02370  0.39750  0.53990  Biso   1.000  C
  C311     1.0000 0.01150  0.38840  0.48720  Biso   1.000  C
  H287     1.0000 0.02380  0.41080  0.46090  Biso   1.000  H
  C312     1.0000 0.98240  0.34770  0.47590  Biso   1.000  C
  H288     1.0000 0.97500  0.34120  0.44060  Biso   1.000  H
  Ag1      1.0000 0.38700  0.00000  0.25000  Biso   1.000  Ag
  Ag2      1.0000 0.11300  0.00000  0.75000  Biso   1.000  Ag
  Ag3      1.0000 0.61300  0.50000  0.25000  Biso   1.000  Ag
  Ag4      1.0000 0.88700  0.50000  0.75000  Biso   1.000  Ag
  Ag5      1.0000 0.25000  0.38700  0.00000  Biso   1.000  Ag
  Ag6      1.0000 0.75000  0.11300  0.00000  Biso   1.000  Ag
  Ag7      1.0000 0.25000  0.61300  0.50000  Biso   1.000  Ag
  Ag8      1.0000 0.75000  0.88700  0.50000  Biso   1.000  Ag
  Ag9      1.0000 0.00000  0.25000  0.38700  Biso   1.000  Ag
  Ag10     1.0000 0.00000  0.75000  0.11300  Biso   1.000  Ag
  Ag11     1.0000 0.50000  0.25000  0.61300  Biso   1.000  Ag
  Ag12     1.0000 0.50000  0.75000  0.88700  Biso   1.000  Ag
  N73      1.0000 0.55600  0.94400  0.05600  Biso   1.000  N
  N74      1.0000 0.05600  0.44400  0.55600  Biso   1.000  N
  N75      1.0000 0.94400  0.05600  0.55600  Biso   1.000  N
  N76      1.0000 0.44400  0.55600  0.05600  Biso   1.000  N
  N77      1.0000 0.44400  0.44400  0.44400  Biso   1.000  N
  N78      1.0000 0.94400  0.94400  0.94400  Biso   1.000  N
  N79      1.0000 0.05600  0.55600  0.94400  Biso   1.000  N
  N80      1.0000 0.55600  0.05600  0.44400  Biso   1.000  N
