data_image0
_cell_length_a       26.3336
_cell_length_b       26.3336
_cell_length_c       26.3336
_cell_angle_alpha    90
_cell_angle_beta     90
_cell_angle_gamma    90

_symmetry_space_group_name_H-M    "P 1"
_symmetry_int_tables_number       1

loop_
  _symmetry_equiv_pos_as_xyz
  'x, y, z'

loop_
  _atom_site_label
  _atom_site_occupancy
  _atom_site_fract_x
  _atom_site_fract_y
  _atom_site_fract_z
  _atom_site_thermal_displace_type
  _atom_site_B_iso_or_equiv
  _atom_site_type_symbol
  O1       1.0000 0.31660  0.94770  0.24310  Biso   1.000  O
  H1       1.0000 0.24340  0.87610  0.08390  Biso   1.000  H
  O2       1.0000 0.31660  0.44770  0.74310  Biso   1.000  O
  H2       1.0000 0.24340  0.37610  0.58390  Biso   1.000  H
  O3       1.0000 0.81660  0.94770  0.74310  Biso   1.000  O
  H3       1.0000 0.74340  0.87610  0.58390  Biso   1.000  H
  O4       1.0000 0.81660  0.44770  0.24310  Biso   1.000  O
  H4       1.0000 0.74340  0.37610  0.08390  Biso   1.000  H
  O5       1.0000 0.68340  0.05230  0.24310  Biso   1.000  O
  H5       1.0000 0.75660  0.12390  0.08390  Biso   1.000  H
  O6       1.0000 0.68340  0.55230  0.74310  Biso   1.000  O
  H6       1.0000 0.75660  0.62390  0.58390  Biso   1.000  H
  O7       1.0000 0.18340  0.05230  0.74310  Biso   1.000  O
  H7       1.0000 0.25660  0.12390  0.58390  Biso   1.000  H
  O8       1.0000 0.18340  0.55230  0.24310  Biso   1.000  O
  H8       1.0000 0.25660  0.62390  0.08390  Biso   1.000  H
  O9       1.0000 0.68340  0.94770  0.75690  Biso   1.000  O
  H9       1.0000 0.75660  0.87610  0.91610  Biso   1.000  H
  O10      1.0000 0.68340  0.44770  0.25690  Biso   1.000  O
  H10      1.0000 0.75660  0.37610  0.41610  Biso   1.000  H
  O11      1.0000 0.18340  0.94770  0.25690  Biso   1.000  O
  H11      1.0000 0.25660  0.87610  0.41610  Biso   1.000  H
  O12      1.0000 0.18340  0.44770  0.75690  Biso   1.000  O
  H12      1.0000 0.25660  0.37610  0.91610  Biso   1.000  H
  O13      1.0000 0.31660  0.05230  0.75690  Biso   1.000  O
  H13      1.0000 0.24340  0.12390  0.91610  Biso   1.000  H
  O14      1.0000 0.31660  0.55230  0.25690  Biso   1.000  O
  H14      1.0000 0.24340  0.62390  0.41610  Biso   1.000  H
  O15      1.0000 0.81660  0.05230  0.25690  Biso   1.000  O
  H15      1.0000 0.74340  0.12390  0.41610  Biso   1.000  H
  O16      1.0000 0.81660  0.55230  0.75690  Biso   1.000  O
  H16      1.0000 0.74340  0.62390  0.91610  Biso   1.000  H
  O17      1.0000 0.24310  0.31660  0.94770  Biso   1.000  O
  H17      1.0000 0.08390  0.24340  0.87610  Biso   1.000  H
  O18      1.0000 0.24310  0.81660  0.44770  Biso   1.000  O
  H18      1.0000 0.08390  0.74340  0.37610  Biso   1.000  H
  O19      1.0000 0.74310  0.31660  0.44770  Biso   1.000  O
  H19      1.0000 0.58390  0.24340  0.37610  Biso   1.000  H
  O20      1.0000 0.74310  0.81660  0.94770  Biso   1.000  O
  H20      1.0000 0.58390  0.74340  0.87610  Biso   1.000  H
  O21      1.0000 0.24310  0.68340  0.05230  Biso   1.000  O
  H21      1.0000 0.08390  0.75660  0.12390  Biso   1.000  H
  O22      1.0000 0.24310  0.18340  0.55230  Biso   1.000  O
  H22      1.0000 0.08390  0.25660  0.62390  Biso   1.000  H
  O23      1.0000 0.74310  0.68340  0.55230  Biso   1.000  O
  H23      1.0000 0.58390  0.75660  0.62390  Biso   1.000  H
  O24      1.0000 0.74310  0.18340  0.05230  Biso   1.000  O
  H24      1.0000 0.58390  0.25660  0.12390  Biso   1.000  H
  O25      1.0000 0.75690  0.68340  0.94770  Biso   1.000  O
  H25      1.0000 0.91610  0.75660  0.87610  Biso   1.000  H
  O26      1.0000 0.75690  0.18340  0.44770  Biso   1.000  O
  H26      1.0000 0.91610  0.25660  0.37610  Biso   1.000  H
  O27      1.0000 0.25690  0.68340  0.44770  Biso   1.000  O
  H27      1.0000 0.41610  0.75660  0.37610  Biso   1.000  H
  O28      1.0000 0.25690  0.18340  0.94770  Biso   1.000  O
  H28      1.0000 0.41610  0.25660  0.87610  Biso   1.000  H
  O29      1.0000 0.75690  0.31660  0.05230  Biso   1.000  O
  H29      1.0000 0.91610  0.24340  0.12390  Biso   1.000  H
  O30      1.0000 0.75690  0.81660  0.55230  Biso   1.000  O
  H30      1.0000 0.91610  0.74340  0.62390  Biso   1.000  H
  O31      1.0000 0.25690  0.31660  0.55230  Biso   1.000  O
  H31      1.0000 0.41610  0.24340  0.62390  Biso   1.000  H
  O32      1.0000 0.25690  0.81660  0.05230  Biso   1.000  O
  H32      1.0000 0.41610  0.74340  0.12390  Biso   1.000  H
  O33      1.0000 0.94770  0.24310  0.31660  Biso   1.000  O
  H33      1.0000 0.87610  0.08390  0.24340  Biso   1.000  H
  O34      1.0000 0.94770  0.74310  0.81660  Biso   1.000  O
  H34      1.0000 0.87610  0.58390  0.74340  Biso   1.000  H
  O35      1.0000 0.44770  0.24310  0.81660  Biso   1.000  O
  H35      1.0000 0.37610  0.08390  0.74340  Biso   1.000  H
  O36      1.0000 0.44770  0.74310  0.31660  Biso   1.000  O
  H36      1.0000 0.37610  0.58390  0.24340  Biso   1.000  H
  O37      1.0000 0.05230  0.24310  0.68340  Biso   1.000  O
  H37      1.0000 0.12390  0.08390  0.75660  Biso   1.000  H
  O38      1.0000 0.05230  0.74310  0.18340  Biso   1.000  O
  H38      1.0000 0.12390  0.58390  0.25660  Biso   1.000  H
  O39      1.0000 0.55230  0.24310  0.18340  Biso   1.000  O
  H39      1.0000 0.62390  0.08390  0.25660  Biso   1.000  H
  O40      1.0000 0.55230  0.74310  0.68340  Biso   1.000  O
  H40      1.0000 0.62390  0.58390  0.75660  Biso   1.000  H
  O41      1.0000 0.94770  0.75690  0.68340  Biso   1.000  O
  H41      1.0000 0.87610  0.91610  0.75660  Biso   1.000  H
  O42      1.0000 0.94770  0.25690  0.18340  Biso   1.000  O
  H42      1.0000 0.87610  0.41610  0.25660  Biso   1.000  H
  O43      1.0000 0.44770  0.75690  0.18340  Biso   1.000  O
  H43      1.0000 0.37610  0.91610  0.25660  Biso   1.000  H
  O44      1.0000 0.44770  0.25690  0.68340  Biso   1.000  O
  H44      1.0000 0.37610  0.41610  0.75660  Biso   1.000  H
  O45      1.0000 0.05230  0.75690  0.31660  Biso   1.000  O
  H45      1.0000 0.12390  0.91610  0.24340  Biso   1.000  H
  O46      1.0000 0.05230  0.25690  0.81660  Biso   1.000  O
  H46      1.0000 0.12390  0.41610  0.74340  Biso   1.000  H
  O47      1.0000 0.55230  0.75690  0.81660  Biso   1.000  O
  H47      1.0000 0.62390  0.91610  0.74340  Biso   1.000  H
  O48      1.0000 0.55230  0.25690  0.31660  Biso   1.000  O
  H48      1.0000 0.62390  0.41610  0.24340  Biso   1.000  H
  O49      1.0000 0.94770  0.31660  0.75690  Biso   1.000  O
  H49      1.0000 0.87610  0.24340  0.91610  Biso   1.000  H
  O50      1.0000 0.94770  0.81660  0.25690  Biso   1.000  O
  H50      1.0000 0.87610  0.74340  0.41610  Biso   1.000  H
  O51      1.0000 0.44770  0.31660  0.25690  Biso   1.000  O
  H51      1.0000 0.37610  0.24340  0.41610  Biso   1.000  H
  O52      1.0000 0.44770  0.81660  0.75690  Biso   1.000  O
  H52      1.0000 0.37610  0.74340  0.91610  Biso   1.000  H
  O53      1.0000 0.05230  0.68340  0.75690  Biso   1.000  O
  H53      1.0000 0.12390  0.75660  0.91610  Biso   1.000  H
  O54      1.0000 0.05230  0.18340  0.25690  Biso   1.000  O
  H54      1.0000 0.12390  0.25660  0.41610  Biso   1.000  H
  O55      1.0000 0.55230  0.68340  0.25690  Biso   1.000  O
  H55      1.0000 0.62390  0.75660  0.41610  Biso   1.000  H
  O56      1.0000 0.55230  0.18340  0.75690  Biso   1.000  O
  H56      1.0000 0.62390  0.25660  0.91610  Biso   1.000  H
  O57      1.0000 0.94770  0.68340  0.24310  Biso   1.000  O
  H57      1.0000 0.87610  0.75660  0.08390  Biso   1.000  H
  O58      1.0000 0.94770  0.18340  0.74310  Biso   1.000  O
  H58      1.0000 0.87610  0.25660  0.58390  Biso   1.000  H
  O59      1.0000 0.44770  0.68340  0.74310  Biso   1.000  O
  H59      1.0000 0.37610  0.75660  0.58390  Biso   1.000  H
  O60      1.0000 0.44770  0.18340  0.24310  Biso   1.000  O
  H60      1.0000 0.37610  0.25660  0.08390  Biso   1.000  H
  O61      1.0000 0.05230  0.31660  0.24310  Biso   1.000  O
  H61      1.0000 0.12390  0.24340  0.08390  Biso   1.000  H
  O62      1.0000 0.05230  0.81660  0.74310  Biso   1.000  O
  H62      1.0000 0.12390  0.74340  0.58390  Biso   1.000  H
  O63      1.0000 0.55230  0.31660  0.74310  Biso   1.000  O
  H63      1.0000 0.62390  0.24340  0.58390  Biso   1.000  H
  O64      1.0000 0.55230  0.81660  0.24310  Biso   1.000  O
  H64      1.0000 0.62390  0.74340  0.08390  Biso   1.000  H
  O65      1.0000 0.31660  0.24310  0.05230  Biso   1.000  O
  H65      1.0000 0.24340  0.08390  0.12390  Biso   1.000  H
  O66      1.0000 0.31660  0.74310  0.55230  Biso   1.000  O
  H66      1.0000 0.24340  0.58390  0.62390  Biso   1.000  H
  O67      1.0000 0.81660  0.24310  0.55230  Biso   1.000  O
  H67      1.0000 0.74340  0.08390  0.62390  Biso   1.000  H
  O68      1.0000 0.81660  0.74310  0.05230  Biso   1.000  O
  H68      1.0000 0.74340  0.58390  0.12390  Biso   1.000  H
  O69      1.0000 0.68340  0.24310  0.94770  Biso   1.000  O
  H69      1.0000 0.75660  0.08390  0.87610  Biso   1.000  H
  O70      1.0000 0.68340  0.74310  0.44770  Biso   1.000  O
  H70      1.0000 0.75660  0.58390  0.37610  Biso   1.000  H
  O71      1.0000 0.18340  0.24310  0.44770  Biso   1.000  O
  H71      1.0000 0.25660  0.08390  0.37610  Biso   1.000  H
  O72      1.0000 0.18340  0.74310  0.94770  Biso   1.000  O
  H72      1.0000 0.25660  0.58390  0.87610  Biso   1.000  H
  O73      1.0000 0.68340  0.75690  0.05230  Biso   1.000  O
  H73      1.0000 0.75660  0.91610  0.12390  Biso   1.000  H
  O74      1.0000 0.68340  0.25690  0.55230  Biso   1.000  O
  H74      1.0000 0.75660  0.41610  0.62390  Biso   1.000  H
  O75      1.0000 0.18340  0.75690  0.55230  Biso   1.000  O
  H75      1.0000 0.25660  0.91610  0.62390  Biso   1.000  H
  O76      1.0000 0.18340  0.25690  0.05230  Biso   1.000  O
  H76      1.0000 0.25660  0.41610  0.12390  Biso   1.000  H
  O77      1.0000 0.31660  0.75690  0.94770  Biso   1.000  O
  H77      1.0000 0.24340  0.91610  0.87610  Biso   1.000  H
  O78      1.0000 0.31660  0.25690  0.44770  Biso   1.000  O
  H78      1.0000 0.24340  0.41610  0.37610  Biso   1.000  H
  O79      1.0000 0.81660  0.75690  0.44770  Biso   1.000  O
  H79      1.0000 0.74340  0.91610  0.37610  Biso   1.000  H
  O80      1.0000 0.81660  0.25690  0.94770  Biso   1.000  O
  H80      1.0000 0.74340  0.41610  0.87610  Biso   1.000  H
  O81      1.0000 0.24310  0.94770  0.68340  Biso   1.000  O
  H81      1.0000 0.08390  0.87610  0.75660  Biso   1.000  H
  O82      1.0000 0.24310  0.44770  0.18340  Biso   1.000  O
  H82      1.0000 0.08390  0.37610  0.25660  Biso   1.000  H
  O83      1.0000 0.74310  0.94770  0.18340  Biso   1.000  O
  H83      1.0000 0.58390  0.87610  0.25660  Biso   1.000  H
  O84      1.0000 0.74310  0.44770  0.68340  Biso   1.000  O
  H84      1.0000 0.58390  0.37610  0.75660  Biso   1.000  H
  O85      1.0000 0.24310  0.05230  0.31660  Biso   1.000  O
  H85      1.0000 0.08390  0.12390  0.24340  Biso   1.000  H
  O86      1.0000 0.24310  0.55230  0.81660  Biso   1.000  O
  H86      1.0000 0.08390  0.62390  0.74340  Biso   1.000  H
  O87      1.0000 0.74310  0.05230  0.81660  Biso   1.000  O
  H87      1.0000 0.58390  0.12390  0.74340  Biso   1.000  H
  O88      1.0000 0.74310  0.55230  0.31660  Biso   1.000  O
  H88      1.0000 0.58390  0.62390  0.24340  Biso   1.000  H
  O89      1.0000 0.75690  0.94770  0.31660  Biso   1.000  O
  H89      1.0000 0.91610  0.87610  0.24340  Biso   1.000  H
  O90      1.0000 0.75690  0.44770  0.81660  Biso   1.000  O
  H90      1.0000 0.91610  0.37610  0.74340  Biso   1.000  H
  O91      1.0000 0.25690  0.94770  0.81660  Biso   1.000  O
  H91      1.0000 0.41610  0.87610  0.74340  Biso   1.000  H
  O92      1.0000 0.25690  0.44770  0.31660  Biso   1.000  O
  H92      1.0000 0.41610  0.37610  0.24340  Biso   1.000  H
  O93      1.0000 0.75690  0.05230  0.68340  Biso   1.000  O
  H93      1.0000 0.91610  0.12390  0.75660  Biso   1.000  H
  O94      1.0000 0.75690  0.55230  0.18340  Biso   1.000  O
  H94      1.0000 0.91610  0.62390  0.25660  Biso   1.000  H
  O95      1.0000 0.25690  0.05230  0.18340  Biso   1.000  O
  H95      1.0000 0.41610  0.12390  0.25660  Biso   1.000  H
  O96      1.0000 0.25690  0.55230  0.68340  Biso   1.000  O
  H96      1.0000 0.41610  0.62390  0.75660  Biso   1.000  H
  O97      1.0000 0.68340  0.05230  0.75690  Biso   1.000  O
  H97      1.0000 0.75660  0.12390  0.91610  Biso   1.000  H
  O98      1.0000 0.68340  0.55230  0.25690  Biso   1.000  O
  H98      1.0000 0.75660  0.62390  0.41610  Biso   1.000  H
  O99      1.0000 0.18340  0.05230  0.25690  Biso   1.000  O
  H99      1.0000 0.25660  0.12390  0.41610  Biso   1.000  H
  O100     1.0000 0.18340  0.55230  0.75690  Biso   1.000  O
  H100     1.0000 0.25660  0.62390  0.91610  Biso   1.000  H
  O101     1.0000 0.31660  0.94770  0.75690  Biso   1.000  O
  H101     1.0000 0.24340  0.87610  0.91610  Biso   1.000  H
  O102     1.0000 0.31660  0.44770  0.25690  Biso   1.000  O
  H102     1.0000 0.24340  0.37610  0.41610  Biso   1.000  H
  O103     1.0000 0.81660  0.94770  0.25690  Biso   1.000  O
  H103     1.0000 0.74340  0.87610  0.41610  Biso   1.000  H
  O104     1.0000 0.81660  0.44770  0.75690  Biso   1.000  O
  H104     1.0000 0.74340  0.37610  0.91610  Biso   1.000  H
  O105     1.0000 0.31660  0.05230  0.24310  Biso   1.000  O
  H105     1.0000 0.24340  0.12390  0.08390  Biso   1.000  H
  O106     1.0000 0.31660  0.55230  0.74310  Biso   1.000  O
  H106     1.0000 0.24340  0.62390  0.58390  Biso   1.000  H
  O107     1.0000 0.81660  0.05230  0.74310  Biso   1.000  O
  H107     1.0000 0.74340  0.12390  0.58390  Biso   1.000  H
  O108     1.0000 0.81660  0.55230  0.24310  Biso   1.000  O
  H108     1.0000 0.74340  0.62390  0.08390  Biso   1.000  H
  O109     1.0000 0.68340  0.94770  0.24310  Biso   1.000  O
  H109     1.0000 0.75660  0.87610  0.08390  Biso   1.000  H
  O110     1.0000 0.68340  0.44770  0.74310  Biso   1.000  O
  H110     1.0000 0.75660  0.37610  0.58390  Biso   1.000  H
  O111     1.0000 0.18340  0.94770  0.74310  Biso   1.000  O
  H111     1.0000 0.25660  0.87610  0.58390  Biso   1.000  H
  O112     1.0000 0.18340  0.44770  0.24310  Biso   1.000  O
  H112     1.0000 0.25660  0.37610  0.08390  Biso   1.000  H
  O113     1.0000 0.75690  0.68340  0.05230  Biso   1.000  O
  H113     1.0000 0.91610  0.75660  0.12390  Biso   1.000  H
  O114     1.0000 0.75690  0.18340  0.55230  Biso   1.000  O
  H114     1.0000 0.91610  0.25660  0.62390  Biso   1.000  H
  O115     1.0000 0.25690  0.68340  0.55230  Biso   1.000  O
  H115     1.0000 0.41610  0.75660  0.62390  Biso   1.000  H
  O116     1.0000 0.25690  0.18340  0.05230  Biso   1.000  O
  H116     1.0000 0.41610  0.25660  0.12390  Biso   1.000  H
  O117     1.0000 0.75690  0.31660  0.94770  Biso   1.000  O
  H117     1.0000 0.91610  0.24340  0.87610  Biso   1.000  H
  O118     1.0000 0.75690  0.81660  0.44770  Biso   1.000  O
  H118     1.0000 0.91610  0.74340  0.37610  Biso   1.000  H
  O119     1.0000 0.25690  0.31660  0.44770  Biso   1.000  O
  H119     1.0000 0.41610  0.24340  0.37610  Biso   1.000  H
  O120     1.0000 0.25690  0.81660  0.94770  Biso   1.000  O
  H120     1.0000 0.41610  0.74340  0.87610  Biso   1.000  H
  O121     1.0000 0.24310  0.31660  0.05230  Biso   1.000  O
  H121     1.0000 0.08390  0.24340  0.12390  Biso   1.000  H
  O122     1.0000 0.24310  0.81660  0.55230  Biso   1.000  O
  H122     1.0000 0.08390  0.74340  0.62390  Biso   1.000  H
  O123     1.0000 0.74310  0.31660  0.55230  Biso   1.000  O
  H123     1.0000 0.58390  0.24340  0.62390  Biso   1.000  H
  O124     1.0000 0.74310  0.81660  0.05230  Biso   1.000  O
  H124     1.0000 0.58390  0.74340  0.12390  Biso   1.000  H
  O125     1.0000 0.24310  0.68340  0.94770  Biso   1.000  O
  H125     1.0000 0.08390  0.75660  0.87610  Biso   1.000  H
  O126     1.0000 0.24310  0.18340  0.44770  Biso   1.000  O
  H126     1.0000 0.08390  0.25660  0.37610  Biso   1.000  H
  O127     1.0000 0.74310  0.68340  0.44770  Biso   1.000  O
  H127     1.0000 0.58390  0.75660  0.37610  Biso   1.000  H
  O128     1.0000 0.74310  0.18340  0.94770  Biso   1.000  O
  H128     1.0000 0.58390  0.25660  0.87610  Biso   1.000  H
  O129     1.0000 0.05230  0.75690  0.68340  Biso   1.000  O
  H129     1.0000 0.12390  0.91610  0.75660  Biso   1.000  H
  O130     1.0000 0.05230  0.25690  0.18340  Biso   1.000  O
  H130     1.0000 0.12390  0.41610  0.25660  Biso   1.000  H
  O131     1.0000 0.55230  0.75690  0.18340  Biso   1.000  O
  H131     1.0000 0.62390  0.91610  0.25660  Biso   1.000  H
  O132     1.0000 0.55230  0.25690  0.68340  Biso   1.000  O
  H132     1.0000 0.62390  0.41610  0.75660  Biso   1.000  H
  O133     1.0000 0.94770  0.75690  0.31660  Biso   1.000  O
  H133     1.0000 0.87610  0.91610  0.24340  Biso   1.000  H
  O134     1.0000 0.94770  0.25690  0.81660  Biso   1.000  O
  H134     1.0000 0.87610  0.41610  0.74340  Biso   1.000  H
  O135     1.0000 0.44770  0.75690  0.81660  Biso   1.000  O
  H135     1.0000 0.37610  0.91610  0.74340  Biso   1.000  H
  O136     1.0000 0.44770  0.25690  0.31660  Biso   1.000  O
  H136     1.0000 0.37610  0.41610  0.24340  Biso   1.000  H
  O137     1.0000 0.05230  0.24310  0.31660  Biso   1.000  O
  H137     1.0000 0.12390  0.08390  0.24340  Biso   1.000  H
  O138     1.0000 0.05230  0.74310  0.81660  Biso   1.000  O
  H138     1.0000 0.12390  0.58390  0.74340  Biso   1.000  H
  O139     1.0000 0.55230  0.24310  0.81660  Biso   1.000  O
  H139     1.0000 0.62390  0.08390  0.74340  Biso   1.000  H
  O140     1.0000 0.55230  0.74310  0.31660  Biso   1.000  O
  H140     1.0000 0.62390  0.58390  0.24340  Biso   1.000  H
  O141     1.0000 0.94770  0.24310  0.68340  Biso   1.000  O
  H141     1.0000 0.87610  0.08390  0.75660  Biso   1.000  H
  O142     1.0000 0.94770  0.74310  0.18340  Biso   1.000  O
  H142     1.0000 0.87610  0.58390  0.25660  Biso   1.000  H
  O143     1.0000 0.44770  0.24310  0.18340  Biso   1.000  O
  H143     1.0000 0.37610  0.08390  0.25660  Biso   1.000  H
  O144     1.0000 0.44770  0.74310  0.68340  Biso   1.000  O
  H144     1.0000 0.37610  0.58390  0.75660  Biso   1.000  H
  O145     1.0000 0.05230  0.68340  0.24310  Biso   1.000  O
  H145     1.0000 0.12390  0.75660  0.08390  Biso   1.000  H
  O146     1.0000 0.05230  0.18340  0.74310  Biso   1.000  O
  H146     1.0000 0.12390  0.25660  0.58390  Biso   1.000  H
  O147     1.0000 0.55230  0.68340  0.74310  Biso   1.000  O
  H147     1.0000 0.62390  0.75660  0.58390  Biso   1.000  H
  O148     1.0000 0.55230  0.18340  0.24310  Biso   1.000  O
  H148     1.0000 0.62390  0.25660  0.08390  Biso   1.000  H
  O149     1.0000 0.94770  0.31660  0.24310  Biso   1.000  O
  H149     1.0000 0.87610  0.24340  0.08390  Biso   1.000  H
  O150     1.0000 0.94770  0.81660  0.74310  Biso   1.000  O
  H150     1.0000 0.87610  0.74340  0.58390  Biso   1.000  H
  O151     1.0000 0.44770  0.31660  0.74310  Biso   1.000  O
  H151     1.0000 0.37610  0.24340  0.58390  Biso   1.000  H
  O152     1.0000 0.44770  0.81660  0.24310  Biso   1.000  O
  H152     1.0000 0.37610  0.74340  0.08390  Biso   1.000  H
  O153     1.0000 0.05230  0.31660  0.75690  Biso   1.000  O
  H153     1.0000 0.12390  0.24340  0.91610  Biso   1.000  H
  O154     1.0000 0.05230  0.81660  0.25690  Biso   1.000  O
  H154     1.0000 0.12390  0.74340  0.41610  Biso   1.000  H
  O155     1.0000 0.55230  0.31660  0.25690  Biso   1.000  O
  H155     1.0000 0.62390  0.24340  0.41610  Biso   1.000  H
  O156     1.0000 0.55230  0.81660  0.75690  Biso   1.000  O
  H156     1.0000 0.62390  0.74340  0.91610  Biso   1.000  H
  O157     1.0000 0.94770  0.68340  0.75690  Biso   1.000  O
  H157     1.0000 0.87610  0.75660  0.91610  Biso   1.000  H
  O158     1.0000 0.94770  0.18340  0.25690  Biso   1.000  O
  H158     1.0000 0.87610  0.25660  0.41610  Biso   1.000  H
  O159     1.0000 0.44770  0.68340  0.25690  Biso   1.000  O
  H159     1.0000 0.37610  0.75660  0.41610  Biso   1.000  H
  O160     1.0000 0.44770  0.18340  0.75690  Biso   1.000  O
  H160     1.0000 0.37610  0.25660  0.91610  Biso   1.000  H
  O161     1.0000 0.68340  0.75690  0.94770  Biso   1.000  O
  H161     1.0000 0.75660  0.91610  0.87610  Biso   1.000  H
  O162     1.0000 0.68340  0.25690  0.44770  Biso   1.000  O
  H162     1.0000 0.75660  0.41610  0.37610  Biso   1.000  H
  O163     1.0000 0.18340  0.75690  0.44770  Biso   1.000  O
  H163     1.0000 0.25660  0.91610  0.37610  Biso   1.000  H
  O164     1.0000 0.18340  0.25690  0.94770  Biso   1.000  O
  H164     1.0000 0.25660  0.41610  0.87610  Biso   1.000  H
  O165     1.0000 0.31660  0.75690  0.05230  Biso   1.000  O
  H165     1.0000 0.24340  0.91610  0.12390  Biso   1.000  H
  O166     1.0000 0.31660  0.25690  0.55230  Biso   1.000  O
  H166     1.0000 0.24340  0.41610  0.62390  Biso   1.000  H
  O167     1.0000 0.81660  0.75690  0.55230  Biso   1.000  O
  H167     1.0000 0.74340  0.91610  0.62390  Biso   1.000  H
  O168     1.0000 0.81660  0.25690  0.05230  Biso   1.000  O
  H168     1.0000 0.74340  0.41610  0.12390  Biso   1.000  H
  O169     1.0000 0.31660  0.24310  0.94770  Biso   1.000  O
  H169     1.0000 0.24340  0.08390  0.87610  Biso   1.000  H
  O170     1.0000 0.31660  0.74310  0.44770  Biso   1.000  O
  H170     1.0000 0.24340  0.58390  0.37610  Biso   1.000  H
  O171     1.0000 0.81660  0.24310  0.44770  Biso   1.000  O
  H171     1.0000 0.74340  0.08390  0.37610  Biso   1.000  H
  O172     1.0000 0.81660  0.74310  0.94770  Biso   1.000  O
  H172     1.0000 0.74340  0.58390  0.87610  Biso   1.000  H
  O173     1.0000 0.68340  0.24310  0.05230  Biso   1.000  O
  H173     1.0000 0.75660  0.08390  0.12390  Biso   1.000  H
  O174     1.0000 0.68340  0.74310  0.55230  Biso   1.000  O
  H174     1.0000 0.75660  0.58390  0.62390  Biso   1.000  H
  O175     1.0000 0.18340  0.24310  0.55230  Biso   1.000  O
  H175     1.0000 0.25660  0.08390  0.62390  Biso   1.000  H
  O176     1.0000 0.18340  0.74310  0.05230  Biso   1.000  O
  H176     1.0000 0.25660  0.58390  0.12390  Biso   1.000  H
  O177     1.0000 0.75690  0.05230  0.31660  Biso   1.000  O
  H177     1.0000 0.91610  0.12390  0.24340  Biso   1.000  H
  O178     1.0000 0.75690  0.55230  0.81660  Biso   1.000  O
  H178     1.0000 0.91610  0.62390  0.74340  Biso   1.000  H
  O179     1.0000 0.25690  0.05230  0.81660  Biso   1.000  O
  H179     1.0000 0.41610  0.12390  0.74340  Biso   1.000  H
  O180     1.0000 0.25690  0.55230  0.31660  Biso   1.000  O
  H180     1.0000 0.41610  0.62390  0.24340  Biso   1.000  H
  O181     1.0000 0.75690  0.94770  0.68340  Biso   1.000  O
  H181     1.0000 0.91610  0.87610  0.75660  Biso   1.000  H
  O182     1.0000 0.75690  0.44770  0.18340  Biso   1.000  O
  H182     1.0000 0.91610  0.37610  0.25660  Biso   1.000  H
  O183     1.0000 0.25690  0.94770  0.18340  Biso   1.000  O
  H183     1.0000 0.41610  0.87610  0.25660  Biso   1.000  H
  O184     1.0000 0.25690  0.44770  0.68340  Biso   1.000  O
  H184     1.0000 0.41610  0.37610  0.75660  Biso   1.000  H
  O185     1.0000 0.24310  0.05230  0.68340  Biso   1.000  O
  H185     1.0000 0.08390  0.12390  0.75660  Biso   1.000  H
  O186     1.0000 0.24310  0.55230  0.18340  Biso   1.000  O
  H186     1.0000 0.08390  0.62390  0.25660  Biso   1.000  H
  O187     1.0000 0.74310  0.05230  0.18340  Biso   1.000  O
  H187     1.0000 0.58390  0.12390  0.25660  Biso   1.000  H
  O188     1.0000 0.74310  0.55230  0.68340  Biso   1.000  O
  H188     1.0000 0.58390  0.62390  0.75660  Biso   1.000  H
  O189     1.0000 0.24310  0.94770  0.31660  Biso   1.000  O
  H189     1.0000 0.08390  0.87610  0.24340  Biso   1.000  H
  O190     1.0000 0.24310  0.44770  0.81660  Biso   1.000  O
  H190     1.0000 0.08390  0.37610  0.74340  Biso   1.000  H
  O191     1.0000 0.74310  0.94770  0.81660  Biso   1.000  O
  H191     1.0000 0.58390  0.87610  0.74340  Biso   1.000  H
  O192     1.0000 0.74310  0.44770  0.31660  Biso   1.000  O
  H192     1.0000 0.58390  0.37610  0.24340  Biso   1.000  H
  Cu1      1.0000 0.28530  0.00000  0.28530  Biso   1.000  Cu
  Cu2      1.0000 0.28530  0.50000  0.78530  Biso   1.000  Cu
  Cu3      1.0000 0.78530  0.00000  0.78530  Biso   1.000  Cu
  Cu4      1.0000 0.78530  0.50000  0.28530  Biso   1.000  Cu
  Cu5      1.0000 0.71470  0.00000  0.28530  Biso   1.000  Cu
  Cu6      1.0000 0.71470  0.50000  0.78530  Biso   1.000  Cu
  Cu7      1.0000 0.21470  0.00000  0.78530  Biso   1.000  Cu
  Cu8      1.0000 0.21470  0.50000  0.28530  Biso   1.000  Cu
  Cu9      1.0000 0.71470  0.00000  0.71470  Biso   1.000  Cu
  Cu10     1.0000 0.71470  0.50000  0.21470  Biso   1.000  Cu
  Cu11     1.0000 0.21470  0.00000  0.21470  Biso   1.000  Cu
  Cu12     1.0000 0.21470  0.50000  0.71470  Biso   1.000  Cu
  Cu13     1.0000 0.28530  0.00000  0.71470  Biso   1.000  Cu
  Cu14     1.0000 0.28530  0.50000  0.21470  Biso   1.000  Cu
  Cu15     1.0000 0.78530  0.00000  0.21470  Biso   1.000  Cu
  Cu16     1.0000 0.78530  0.50000  0.71470  Biso   1.000  Cu
  Cu17     1.0000 0.28530  0.28530  0.00000  Biso   1.000  Cu
  Cu18     1.0000 0.28530  0.78530  0.50000  Biso   1.000  Cu
  Cu19     1.0000 0.78530  0.28530  0.50000  Biso   1.000  Cu
  Cu20     1.0000 0.78530  0.78530  0.00000  Biso   1.000  Cu
  Cu21     1.0000 0.28530  0.71470  0.00000  Biso   1.000  Cu
  Cu22     1.0000 0.28530  0.21470  0.50000  Biso   1.000  Cu
  Cu23     1.0000 0.78530  0.71470  0.50000  Biso   1.000  Cu
  Cu24     1.0000 0.78530  0.21470  0.00000  Biso   1.000  Cu
  Cu25     1.0000 0.71470  0.71470  0.00000  Biso   1.000  Cu
  Cu26     1.0000 0.71470  0.21470  0.50000  Biso   1.000  Cu
  Cu27     1.0000 0.21470  0.71470  0.50000  Biso   1.000  Cu
  Cu28     1.0000 0.21470  0.21470  0.00000  Biso   1.000  Cu
  Cu29     1.0000 0.71470  0.28530  0.00000  Biso   1.000  Cu
  Cu30     1.0000 0.71470  0.78530  0.50000  Biso   1.000  Cu
  Cu31     1.0000 0.21470  0.28530  0.50000  Biso   1.000  Cu
  Cu32     1.0000 0.21470  0.78530  0.00000  Biso   1.000  Cu
  Cu33     1.0000 0.00000  0.28530  0.28530  Biso   1.000  Cu
  Cu34     1.0000 0.00000  0.78530  0.78530  Biso   1.000  Cu
  Cu35     1.0000 0.50000  0.28530  0.78530  Biso   1.000  Cu
  Cu36     1.0000 0.50000  0.78530  0.28530  Biso   1.000  Cu
  Cu37     1.0000 0.00000  0.28530  0.71470  Biso   1.000  Cu
  Cu38     1.0000 0.00000  0.78530  0.21470  Biso   1.000  Cu
  Cu39     1.0000 0.50000  0.28530  0.21470  Biso   1.000  Cu
  Cu40     1.0000 0.50000  0.78530  0.71470  Biso   1.000  Cu
  Cu41     1.0000 0.00000  0.71470  0.71470  Biso   1.000  Cu
  Cu42     1.0000 0.00000  0.21470  0.21470  Biso   1.000  Cu
  Cu43     1.0000 0.50000  0.71470  0.21470  Biso   1.000  Cu
  Cu44     1.0000 0.50000  0.21470  0.71470  Biso   1.000  Cu
  Cu45     1.0000 0.00000  0.71470  0.28530  Biso   1.000  Cu
  Cu46     1.0000 0.00000  0.21470  0.78530  Biso   1.000  Cu
  Cu47     1.0000 0.50000  0.71470  0.78530  Biso   1.000  Cu
  Cu48     1.0000 0.50000  0.21470  0.28530  Biso   1.000  Cu
  C1       1.0000 0.29680  0.93080  0.20320  Biso   1.000  C
  C2       1.0000 0.32260  0.88780  0.17740  Biso   1.000  C
  C3       1.0000 0.29680  0.43080  0.70320  Biso   1.000  C
  C4       1.0000 0.32260  0.38780  0.67740  Biso   1.000  C
  C5       1.0000 0.70320  0.06920  0.20320  Biso   1.000  C
  C6       1.0000 0.67740  0.11220  0.17740  Biso   1.000  C
  C7       1.0000 0.70320  0.56920  0.70320  Biso   1.000  C
  C8       1.0000 0.67740  0.61220  0.67740  Biso   1.000  C
  C9       1.0000 0.20320  0.56920  0.20320  Biso   1.000  C
  C10      1.0000 0.17740  0.61220  0.17740  Biso   1.000  C
  C11      1.0000 0.70320  0.93080  0.79680  Biso   1.000  C
  C12      1.0000 0.67740  0.88780  0.82260  Biso   1.000  C
  C13      1.0000 0.70320  0.43080  0.29680  Biso   1.000  C
  C14      1.0000 0.67740  0.38780  0.32260  Biso   1.000  C
  C15      1.0000 0.20320  0.93080  0.29680  Biso   1.000  C
  C16      1.0000 0.17740  0.88780  0.32260  Biso   1.000  C
  C17      1.0000 0.29680  0.06920  0.79680  Biso   1.000  C
  C18      1.0000 0.32260  0.11220  0.82260  Biso   1.000  C
  C19      1.0000 0.29680  0.56920  0.29680  Biso   1.000  C
  C20      1.0000 0.32260  0.61220  0.32260  Biso   1.000  C
  C21      1.0000 0.20320  0.29680  0.93080  Biso   1.000  C
  C22      1.0000 0.17740  0.32260  0.88780  Biso   1.000  C
  C23      1.0000 0.20320  0.79680  0.43080  Biso   1.000  C
  C24      1.0000 0.17740  0.82260  0.38780  Biso   1.000  C
  C25      1.0000 0.20320  0.70320  0.06920  Biso   1.000  C
  C26      1.0000 0.17740  0.67740  0.11220  Biso   1.000  C
  C27      1.0000 0.20320  0.20320  0.56920  Biso   1.000  C
  C28      1.0000 0.17740  0.17740  0.61220  Biso   1.000  C
  C29      1.0000 0.79680  0.70320  0.93080  Biso   1.000  C
  C30      1.0000 0.82260  0.67740  0.88780  Biso   1.000  C
  C31      1.0000 0.79680  0.20320  0.43080  Biso   1.000  C
  C32      1.0000 0.82260  0.17740  0.38780  Biso   1.000  C
  C33      1.0000 0.29680  0.20320  0.93080  Biso   1.000  C
  C34      1.0000 0.32260  0.17740  0.88780  Biso   1.000  C
  C35      1.0000 0.79680  0.29680  0.06920  Biso   1.000  C
  C36      1.0000 0.82260  0.32260  0.11220  Biso   1.000  C
  C37      1.0000 0.79680  0.79680  0.56920  Biso   1.000  C
  C38      1.0000 0.82260  0.82260  0.61220  Biso   1.000  C
  C39      1.0000 0.29680  0.29680  0.56920  Biso   1.000  C
  C40      1.0000 0.32260  0.32260  0.61220  Biso   1.000  C
  C41      1.0000 0.93080  0.20320  0.29680  Biso   1.000  C
  C42      1.0000 0.88780  0.17740  0.32260  Biso   1.000  C
  C43      1.0000 0.43080  0.20320  0.79680  Biso   1.000  C
  C44      1.0000 0.38780  0.17740  0.82260  Biso   1.000  C
  C45      1.0000 0.06920  0.20320  0.70320  Biso   1.000  C
  C46      1.0000 0.11220  0.17740  0.67740  Biso   1.000  C
  C47      1.0000 0.56920  0.20320  0.20320  Biso   1.000  C
  C48      1.0000 0.61220  0.17740  0.17740  Biso   1.000  C
  C49      1.0000 0.93080  0.79680  0.70320  Biso   1.000  C
  C50      1.0000 0.88780  0.82260  0.67740  Biso   1.000  C
  C51      1.0000 0.93080  0.29680  0.20320  Biso   1.000  C
  C52      1.0000 0.88780  0.32260  0.17740  Biso   1.000  C
  C53      1.0000 0.43080  0.79680  0.20320  Biso   1.000  C
  C54      1.0000 0.38780  0.82260  0.17740  Biso   1.000  C
  C55      1.0000 0.06920  0.79680  0.29680  Biso   1.000  C
  C56      1.0000 0.11220  0.82260  0.32260  Biso   1.000  C
  C57      1.0000 0.56920  0.79680  0.79680  Biso   1.000  C
  C58      1.0000 0.61220  0.82260  0.82260  Biso   1.000  C
  C59      1.0000 0.56920  0.29680  0.29680  Biso   1.000  C
  C60      1.0000 0.61220  0.32260  0.32260  Biso   1.000  C
  C61      1.0000 0.93080  0.29680  0.79680  Biso   1.000  C
  C62      1.0000 0.88780  0.32260  0.82260  Biso   1.000  C
  C63      1.0000 0.43080  0.29680  0.29680  Biso   1.000  C
  C64      1.0000 0.38780  0.32260  0.32260  Biso   1.000  C
  C65      1.0000 0.06920  0.70320  0.79680  Biso   1.000  C
  C66      1.0000 0.11220  0.67740  0.82260  Biso   1.000  C
  C67      1.0000 0.06920  0.20320  0.29680  Biso   1.000  C
  C68      1.0000 0.11220  0.17740  0.32260  Biso   1.000  C
  C69      1.0000 0.56920  0.70320  0.29680  Biso   1.000  C
  C70      1.0000 0.61220  0.67740  0.32260  Biso   1.000  C
  C71      1.0000 0.93080  0.70320  0.20320  Biso   1.000  C
  C72      1.0000 0.88780  0.67740  0.17740  Biso   1.000  C
  C73      1.0000 0.43080  0.70320  0.70320  Biso   1.000  C
  C74      1.0000 0.38780  0.67740  0.67740  Biso   1.000  C
  C75      1.0000 0.43080  0.20320  0.20320  Biso   1.000  C
  C76      1.0000 0.38780  0.17740  0.17740  Biso   1.000  C
  C77      1.0000 0.06920  0.29680  0.20320  Biso   1.000  C
  C78      1.0000 0.11220  0.32260  0.17740  Biso   1.000  C
  C79      1.0000 0.56920  0.29680  0.70320  Biso   1.000  C
  C80      1.0000 0.61220  0.32260  0.67740  Biso   1.000  C
  C81      1.0000 0.29680  0.20320  0.06920  Biso   1.000  C
  C82      1.0000 0.32260  0.17740  0.11220  Biso   1.000  C
  C83      1.0000 0.29680  0.70320  0.56920  Biso   1.000  C
  C84      1.0000 0.32260  0.67740  0.61220  Biso   1.000  C
  C85      1.0000 0.70320  0.20320  0.93080  Biso   1.000  C
  C86      1.0000 0.67740  0.17740  0.88780  Biso   1.000  C
  C87      1.0000 0.70320  0.70320  0.43080  Biso   1.000  C
  C88      1.0000 0.67740  0.67740  0.38780  Biso   1.000  C
  C89      1.0000 0.20320  0.20320  0.43080  Biso   1.000  C
  C90      1.0000 0.17740  0.17740  0.38780  Biso   1.000  C
  C91      1.0000 0.70320  0.79680  0.06920  Biso   1.000  C
  C92      1.0000 0.67740  0.82260  0.11220  Biso   1.000  C
  C93      1.0000 0.70320  0.29680  0.56920  Biso   1.000  C
  C94      1.0000 0.67740  0.32260  0.61220  Biso   1.000  C
  C95      1.0000 0.20320  0.29680  0.06920  Biso   1.000  C
  C96      1.0000 0.17740  0.32260  0.11220  Biso   1.000  C
  C97      1.0000 0.29680  0.79680  0.93080  Biso   1.000  C
  C98      1.0000 0.32260  0.82260  0.88780  Biso   1.000  C
  C99      1.0000 0.29680  0.29680  0.43080  Biso   1.000  C
  C100     1.0000 0.32260  0.32260  0.38780  Biso   1.000  C
  C101     1.0000 0.20320  0.93080  0.70320  Biso   1.000  C
  C102     1.0000 0.17740  0.88780  0.67740  Biso   1.000  C
  C103     1.0000 0.20320  0.43080  0.20320  Biso   1.000  C
  C104     1.0000 0.17740  0.38780  0.17740  Biso   1.000  C
  C105     1.0000 0.20320  0.06920  0.29680  Biso   1.000  C
  C106     1.0000 0.17740  0.11220  0.32260  Biso   1.000  C
  C107     1.0000 0.20320  0.56920  0.79680  Biso   1.000  C
  C108     1.0000 0.17740  0.61220  0.82260  Biso   1.000  C
  C109     1.0000 0.79680  0.93080  0.29680  Biso   1.000  C
  C110     1.0000 0.82260  0.88780  0.32260  Biso   1.000  C
  C111     1.0000 0.79680  0.43080  0.79680  Biso   1.000  C
  C112     1.0000 0.82260  0.38780  0.82260  Biso   1.000  C
  C113     1.0000 0.29680  0.43080  0.29680  Biso   1.000  C
  C114     1.0000 0.32260  0.38780  0.32260  Biso   1.000  C
  C115     1.0000 0.79680  0.06920  0.70320  Biso   1.000  C
  C116     1.0000 0.82260  0.11220  0.67740  Biso   1.000  C
  C117     1.0000 0.79680  0.56920  0.20320  Biso   1.000  C
  C118     1.0000 0.82260  0.61220  0.17740  Biso   1.000  C
  C119     1.0000 0.29680  0.06920  0.20320  Biso   1.000  C
  C120     1.0000 0.32260  0.11220  0.17740  Biso   1.000  C
  C121     1.0000 0.70320  0.06920  0.79680  Biso   1.000  C
  C122     1.0000 0.67740  0.11220  0.82260  Biso   1.000  C
  C123     1.0000 0.70320  0.56920  0.29680  Biso   1.000  C
  C124     1.0000 0.67740  0.61220  0.32260  Biso   1.000  C
  C125     1.0000 0.29680  0.93080  0.79680  Biso   1.000  C
  C126     1.0000 0.32260  0.88780  0.82260  Biso   1.000  C
  C127     1.0000 0.29680  0.56920  0.70320  Biso   1.000  C
  C128     1.0000 0.32260  0.61220  0.67740  Biso   1.000  C
  C129     1.0000 0.70320  0.93080  0.20320  Biso   1.000  C
  C130     1.0000 0.67740  0.88780  0.17740  Biso   1.000  C
  C131     1.0000 0.70320  0.43080  0.70320  Biso   1.000  C
  C132     1.0000 0.67740  0.38780  0.67740  Biso   1.000  C
  C133     1.0000 0.79680  0.70320  0.06920  Biso   1.000  C
  C134     1.0000 0.82260  0.67740  0.11220  Biso   1.000  C
  C135     1.0000 0.79680  0.20320  0.56920  Biso   1.000  C
  C136     1.0000 0.82260  0.17740  0.61220  Biso   1.000  C
  C137     1.0000 0.79680  0.29680  0.93080  Biso   1.000  C
  C138     1.0000 0.82260  0.32260  0.88780  Biso   1.000  C
  C139     1.0000 0.79680  0.79680  0.43080  Biso   1.000  C
  C140     1.0000 0.82260  0.82260  0.38780  Biso   1.000  C
  C141     1.0000 0.20320  0.79680  0.56920  Biso   1.000  C
  C142     1.0000 0.17740  0.82260  0.61220  Biso   1.000  C
  C143     1.0000 0.20320  0.70320  0.93080  Biso   1.000  C
  C144     1.0000 0.17740  0.67740  0.88780  Biso   1.000  C
  C145     1.0000 0.06920  0.79680  0.70320  Biso   1.000  C
  C146     1.0000 0.11220  0.82260  0.67740  Biso   1.000  C
  C147     1.0000 0.56920  0.79680  0.20320  Biso   1.000  C
  C148     1.0000 0.61220  0.82260  0.17740  Biso   1.000  C
  C149     1.0000 0.93080  0.79680  0.29680  Biso   1.000  C
  C150     1.0000 0.88780  0.82260  0.32260  Biso   1.000  C
  C151     1.0000 0.43080  0.79680  0.79680  Biso   1.000  C
  C152     1.0000 0.38780  0.82260  0.82260  Biso   1.000  C
  C153     1.0000 0.56920  0.20320  0.79680  Biso   1.000  C
  C154     1.0000 0.61220  0.17740  0.82260  Biso   1.000  C
  C155     1.0000 0.93080  0.20320  0.70320  Biso   1.000  C
  C156     1.0000 0.88780  0.17740  0.67740  Biso   1.000  C
  C157     1.0000 0.06920  0.70320  0.20320  Biso   1.000  C
  C158     1.0000 0.11220  0.67740  0.17740  Biso   1.000  C
  C159     1.0000 0.56920  0.70320  0.70320  Biso   1.000  C
  C160     1.0000 0.61220  0.67740  0.67740  Biso   1.000  C
  C161     1.0000 0.43080  0.29680  0.70320  Biso   1.000  C
  C162     1.0000 0.38780  0.32260  0.67740  Biso   1.000  C
  C163     1.0000 0.06920  0.29680  0.79680  Biso   1.000  C
  C164     1.0000 0.11220  0.32260  0.82260  Biso   1.000  C
  C165     1.0000 0.93080  0.70320  0.79680  Biso   1.000  C
  C166     1.0000 0.88780  0.67740  0.82260  Biso   1.000  C
  C167     1.0000 0.43080  0.70320  0.29680  Biso   1.000  C
  C168     1.0000 0.38780  0.67740  0.32260  Biso   1.000  C
  C169     1.0000 0.70320  0.79680  0.93080  Biso   1.000  C
  C170     1.0000 0.67740  0.82260  0.88780  Biso   1.000  C
  C171     1.0000 0.70320  0.29680  0.43080  Biso   1.000  C
  C172     1.0000 0.67740  0.32260  0.38780  Biso   1.000  C
  C173     1.0000 0.29680  0.79680  0.06920  Biso   1.000  C
  C174     1.0000 0.32260  0.82260  0.11220  Biso   1.000  C
  C175     1.0000 0.29680  0.70320  0.43080  Biso   1.000  C
  C176     1.0000 0.32260  0.67740  0.38780  Biso   1.000  C
  C177     1.0000 0.70320  0.20320  0.06920  Biso   1.000  C
  C178     1.0000 0.67740  0.17740  0.11220  Biso   1.000  C
  C179     1.0000 0.70320  0.70320  0.56920  Biso   1.000  C
  C180     1.0000 0.67740  0.67740  0.61220  Biso   1.000  C
  C181     1.0000 0.79680  0.06920  0.29680  Biso   1.000  C
  C182     1.0000 0.82260  0.11220  0.32260  Biso   1.000  C
  C183     1.0000 0.79680  0.56920  0.79680  Biso   1.000  C
  C184     1.0000 0.82260  0.61220  0.82260  Biso   1.000  C
  C185     1.0000 0.79680  0.93080  0.70320  Biso   1.000  C
  C186     1.0000 0.82260  0.88780  0.67740  Biso   1.000  C
  C187     1.0000 0.79680  0.43080  0.20320  Biso   1.000  C
  C188     1.0000 0.82260  0.38780  0.17740  Biso   1.000  C
  C189     1.0000 0.20320  0.06920  0.70320  Biso   1.000  C
  C190     1.0000 0.17740  0.11220  0.67740  Biso   1.000  C
  C191     1.0000 0.20320  0.43080  0.79680  Biso   1.000  C
  C192     1.0000 0.17740  0.38780  0.82260  Biso   1.000  C
  C193     1.0000 0.30130  0.86650  0.13350  Biso   1.000  C
  H193     1.0000 0.27310  0.88150  0.11850  Biso   1.000  H
  N1       1.0000 0.25770  0.89090  0.10910  Biso   1.000  N
  C194     1.0000 0.30130  0.36650  0.63350  Biso   1.000  C
  H194     1.0000 0.27310  0.38150  0.61850  Biso   1.000  H
  N2       1.0000 0.25770  0.39090  0.60910  Biso   1.000  N
  C195     1.0000 0.80130  0.86650  0.63350  Biso   1.000  C
  H195     1.0000 0.77310  0.88150  0.61850  Biso   1.000  H
  N3       1.0000 0.75770  0.89090  0.60910  Biso   1.000  N
  C196     1.0000 0.80130  0.36650  0.13350  Biso   1.000  C
  H196     1.0000 0.77310  0.38150  0.11850  Biso   1.000  H
  N4       1.0000 0.75770  0.39090  0.10910  Biso   1.000  N
  C197     1.0000 0.69870  0.13350  0.13350  Biso   1.000  C
  H197     1.0000 0.72690  0.11850  0.11850  Biso   1.000  H
  N5       1.0000 0.74230  0.10910  0.10910  Biso   1.000  N
  C198     1.0000 0.69870  0.63350  0.63350  Biso   1.000  C
  H198     1.0000 0.72690  0.61850  0.61850  Biso   1.000  H
  N6       1.0000 0.74230  0.60910  0.60910  Biso   1.000  N
  C199     1.0000 0.19870  0.13350  0.63350  Biso   1.000  C
  H199     1.0000 0.22690  0.11850  0.61850  Biso   1.000  H
  N7       1.0000 0.24230  0.10910  0.60910  Biso   1.000  N
  C200     1.0000 0.19870  0.63350  0.13350  Biso   1.000  C
  H200     1.0000 0.22690  0.61850  0.11850  Biso   1.000  H
  N8       1.0000 0.24230  0.60910  0.10910  Biso   1.000  N
  C201     1.0000 0.69870  0.86650  0.86650  Biso   1.000  C
  H201     1.0000 0.72690  0.88150  0.88150  Biso   1.000  H
  N9       1.0000 0.74230  0.89090  0.89090  Biso   1.000  N
  C202     1.0000 0.69870  0.36650  0.36650  Biso   1.000  C
  H202     1.0000 0.72690  0.38150  0.38150  Biso   1.000  H
  N10      1.0000 0.74230  0.39090  0.39090  Biso   1.000  N
  C203     1.0000 0.19870  0.86650  0.36650  Biso   1.000  C
  H203     1.0000 0.22690  0.88150  0.38150  Biso   1.000  H
  N11      1.0000 0.24230  0.89090  0.39090  Biso   1.000  N
  C204     1.0000 0.19870  0.36650  0.86650  Biso   1.000  C
  H204     1.0000 0.22690  0.38150  0.88150  Biso   1.000  H
  N12      1.0000 0.24230  0.39090  0.89090  Biso   1.000  N
  C205     1.0000 0.30130  0.13350  0.86650  Biso   1.000  C
  H205     1.0000 0.27310  0.11850  0.88150  Biso   1.000  H
  N13      1.0000 0.25770  0.10910  0.89090  Biso   1.000  N
  C206     1.0000 0.30130  0.63350  0.36650  Biso   1.000  C
  H206     1.0000 0.27310  0.61850  0.38150  Biso   1.000  H
  N14      1.0000 0.25770  0.60910  0.39090  Biso   1.000  N
  C207     1.0000 0.80130  0.13350  0.36650  Biso   1.000  C
  H207     1.0000 0.77310  0.11850  0.38150  Biso   1.000  H
  N15      1.0000 0.75770  0.10910  0.39090  Biso   1.000  N
  C208     1.0000 0.80130  0.63350  0.86650  Biso   1.000  C
  H208     1.0000 0.77310  0.61850  0.88150  Biso   1.000  H
  N16      1.0000 0.75770  0.60910  0.89090  Biso   1.000  N
  C209     1.0000 0.13350  0.30130  0.86650  Biso   1.000  C
  H209     1.0000 0.11850  0.27310  0.88150  Biso   1.000  H
  N17      1.0000 0.10910  0.25770  0.89090  Biso   1.000  N
  C210     1.0000 0.13350  0.80130  0.36650  Biso   1.000  C
  H210     1.0000 0.11850  0.77310  0.38150  Biso   1.000  H
  N18      1.0000 0.10910  0.75770  0.39090  Biso   1.000  N
  C211     1.0000 0.63350  0.30130  0.36650  Biso   1.000  C
  H211     1.0000 0.61850  0.27310  0.38150  Biso   1.000  H
  N19      1.0000 0.60910  0.25770  0.39090  Biso   1.000  N
  C212     1.0000 0.63350  0.80130  0.86650  Biso   1.000  C
  H212     1.0000 0.61850  0.77310  0.88150  Biso   1.000  H
  N20      1.0000 0.60910  0.75770  0.89090  Biso   1.000  N
  C213     1.0000 0.13350  0.69870  0.13350  Biso   1.000  C
  H213     1.0000 0.11850  0.72690  0.11850  Biso   1.000  H
  N21      1.0000 0.10910  0.74230  0.10910  Biso   1.000  N
  C214     1.0000 0.13350  0.19870  0.63350  Biso   1.000  C
  H214     1.0000 0.11850  0.22690  0.61850  Biso   1.000  H
  N22      1.0000 0.10910  0.24230  0.60910  Biso   1.000  N
  C215     1.0000 0.63350  0.69870  0.63350  Biso   1.000  C
  H215     1.0000 0.61850  0.72690  0.61850  Biso   1.000  H
  N23      1.0000 0.60910  0.74230  0.60910  Biso   1.000  N
  C216     1.0000 0.63350  0.19870  0.13350  Biso   1.000  C
  H216     1.0000 0.61850  0.22690  0.11850  Biso   1.000  H
  N24      1.0000 0.60910  0.24230  0.10910  Biso   1.000  N
  C217     1.0000 0.86650  0.69870  0.86650  Biso   1.000  C
  H217     1.0000 0.88150  0.72690  0.88150  Biso   1.000  H
  N25      1.0000 0.89090  0.74230  0.89090  Biso   1.000  N
  C218     1.0000 0.86650  0.19870  0.36650  Biso   1.000  C
  H218     1.0000 0.88150  0.22690  0.38150  Biso   1.000  H
  N26      1.0000 0.89090  0.24230  0.39090  Biso   1.000  N
  C219     1.0000 0.36650  0.69870  0.36650  Biso   1.000  C
  H219     1.0000 0.38150  0.72690  0.38150  Biso   1.000  H
  N27      1.0000 0.39090  0.74230  0.39090  Biso   1.000  N
  C220     1.0000 0.36650  0.19870  0.86650  Biso   1.000  C
  H220     1.0000 0.38150  0.22690  0.88150  Biso   1.000  H
  N28      1.0000 0.39090  0.24230  0.89090  Biso   1.000  N
  C221     1.0000 0.86650  0.30130  0.13350  Biso   1.000  C
  H221     1.0000 0.88150  0.27310  0.11850  Biso   1.000  H
  N29      1.0000 0.89090  0.25770  0.10910  Biso   1.000  N
  C222     1.0000 0.86650  0.80130  0.63350  Biso   1.000  C
  H222     1.0000 0.88150  0.77310  0.61850  Biso   1.000  H
  N30      1.0000 0.89090  0.75770  0.60910  Biso   1.000  N
  C223     1.0000 0.36650  0.30130  0.63350  Biso   1.000  C
  H223     1.0000 0.38150  0.27310  0.61850  Biso   1.000  H
  N31      1.0000 0.39090  0.25770  0.60910  Biso   1.000  N
  C224     1.0000 0.36650  0.80130  0.13350  Biso   1.000  C
  H224     1.0000 0.38150  0.77310  0.11850  Biso   1.000  H
  N32      1.0000 0.39090  0.75770  0.10910  Biso   1.000  N
  C225     1.0000 0.86650  0.13350  0.30130  Biso   1.000  C
  H225     1.0000 0.88150  0.11850  0.27310  Biso   1.000  H
  N33      1.0000 0.89090  0.10910  0.25770  Biso   1.000  N
  C226     1.0000 0.86650  0.63350  0.80130  Biso   1.000  C
  H226     1.0000 0.88150  0.61850  0.77310  Biso   1.000  H
  N34      1.0000 0.89090  0.60910  0.75770  Biso   1.000  N
  C227     1.0000 0.36650  0.13350  0.80130  Biso   1.000  C
  H227     1.0000 0.38150  0.11850  0.77310  Biso   1.000  H
  N35      1.0000 0.39090  0.10910  0.75770  Biso   1.000  N
  C228     1.0000 0.36650  0.63350  0.30130  Biso   1.000  C
  H228     1.0000 0.38150  0.61850  0.27310  Biso   1.000  H
  N36      1.0000 0.39090  0.60910  0.25770  Biso   1.000  N
  C229     1.0000 0.13350  0.13350  0.69870  Biso   1.000  C
  H229     1.0000 0.11850  0.11850  0.72690  Biso   1.000  H
  N37      1.0000 0.10910  0.10910  0.74230  Biso   1.000  N
  C230     1.0000 0.13350  0.63350  0.19870  Biso   1.000  C
  H230     1.0000 0.11850  0.61850  0.22690  Biso   1.000  H
  N38      1.0000 0.10910  0.60910  0.24230  Biso   1.000  N
  C231     1.0000 0.63350  0.13350  0.19870  Biso   1.000  C
  H231     1.0000 0.61850  0.11850  0.22690  Biso   1.000  H
  N39      1.0000 0.60910  0.10910  0.24230  Biso   1.000  N
  C232     1.0000 0.63350  0.63350  0.69870  Biso   1.000  C
  H232     1.0000 0.61850  0.61850  0.72690  Biso   1.000  H
  N40      1.0000 0.60910  0.60910  0.74230  Biso   1.000  N
  C233     1.0000 0.86650  0.86650  0.69870  Biso   1.000  C
  H233     1.0000 0.88150  0.88150  0.72690  Biso   1.000  H
  N41      1.0000 0.89090  0.89090  0.74230  Biso   1.000  N
  C234     1.0000 0.86650  0.36650  0.19870  Biso   1.000  C
  H234     1.0000 0.88150  0.38150  0.22690  Biso   1.000  H
  N42      1.0000 0.89090  0.39090  0.24230  Biso   1.000  N
  C235     1.0000 0.36650  0.86650  0.19870  Biso   1.000  C
  H235     1.0000 0.38150  0.88150  0.22690  Biso   1.000  H
  N43      1.0000 0.39090  0.89090  0.24230  Biso   1.000  N
  C236     1.0000 0.36650  0.36650  0.69870  Biso   1.000  C
  H236     1.0000 0.38150  0.38150  0.72690  Biso   1.000  H
  N44      1.0000 0.39090  0.39090  0.74230  Biso   1.000  N
  C237     1.0000 0.13350  0.86650  0.30130  Biso   1.000  C
  H237     1.0000 0.11850  0.88150  0.27310  Biso   1.000  H
  N45      1.0000 0.10910  0.89090  0.25770  Biso   1.000  N
  C238     1.0000 0.13350  0.36650  0.80130  Biso   1.000  C
  H238     1.0000 0.11850  0.38150  0.77310  Biso   1.000  H
  N46      1.0000 0.10910  0.39090  0.75770  Biso   1.000  N
  C239     1.0000 0.63350  0.86650  0.80130  Biso   1.000  C
  H239     1.0000 0.61850  0.88150  0.77310  Biso   1.000  H
  N47      1.0000 0.60910  0.89090  0.75770  Biso   1.000  N
  C240     1.0000 0.63350  0.36650  0.30130  Biso   1.000  C
  H240     1.0000 0.61850  0.38150  0.27310  Biso   1.000  H
  N48      1.0000 0.60910  0.39090  0.25770  Biso   1.000  N
  C241     1.0000 0.86650  0.30130  0.86650  Biso   1.000  C
  H241     1.0000 0.88150  0.27310  0.88150  Biso   1.000  H
  N49      1.0000 0.89090  0.25770  0.89090  Biso   1.000  N
  C242     1.0000 0.86650  0.80130  0.36650  Biso   1.000  C
  H242     1.0000 0.88150  0.77310  0.38150  Biso   1.000  H
  N50      1.0000 0.89090  0.75770  0.39090  Biso   1.000  N
  C243     1.0000 0.36650  0.30130  0.36650  Biso   1.000  C
  H243     1.0000 0.38150  0.27310  0.38150  Biso   1.000  H
  N51      1.0000 0.39090  0.25770  0.39090  Biso   1.000  N
  C244     1.0000 0.36650  0.80130  0.86650  Biso   1.000  C
  H244     1.0000 0.38150  0.77310  0.88150  Biso   1.000  H
  N52      1.0000 0.39090  0.75770  0.89090  Biso   1.000  N
  C245     1.0000 0.13350  0.69870  0.86650  Biso   1.000  C
  H245     1.0000 0.11850  0.72690  0.88150  Biso   1.000  H
  N53      1.0000 0.10910  0.74230  0.89090  Biso   1.000  N
  C246     1.0000 0.13350  0.19870  0.36650  Biso   1.000  C
  H246     1.0000 0.11850  0.22690  0.38150  Biso   1.000  H
  N54      1.0000 0.10910  0.24230  0.39090  Biso   1.000  N
  C247     1.0000 0.63350  0.69870  0.36650  Biso   1.000  C
  H247     1.0000 0.61850  0.72690  0.38150  Biso   1.000  H
  N55      1.0000 0.60910  0.74230  0.39090  Biso   1.000  N
  C248     1.0000 0.63350  0.19870  0.86650  Biso   1.000  C
  H248     1.0000 0.61850  0.22690  0.88150  Biso   1.000  H
  N56      1.0000 0.60910  0.24230  0.89090  Biso   1.000  N
  C249     1.0000 0.86650  0.69870  0.13350  Biso   1.000  C
  H249     1.0000 0.88150  0.72690  0.11850  Biso   1.000  H
  N57      1.0000 0.89090  0.74230  0.10910  Biso   1.000  N
  C250     1.0000 0.86650  0.19870  0.63350  Biso   1.000  C
  H250     1.0000 0.88150  0.22690  0.61850  Biso   1.000  H
  N58      1.0000 0.89090  0.24230  0.60910  Biso   1.000  N
  C251     1.0000 0.36650  0.69870  0.63350  Biso   1.000  C
  H251     1.0000 0.38150  0.72690  0.61850  Biso   1.000  H
  N59      1.0000 0.39090  0.74230  0.60910  Biso   1.000  N
  C252     1.0000 0.36650  0.19870  0.13350  Biso   1.000  C
  H252     1.0000 0.38150  0.22690  0.11850  Biso   1.000  H
  N60      1.0000 0.39090  0.24230  0.10910  Biso   1.000  N
  C253     1.0000 0.13350  0.30130  0.13350  Biso   1.000  C
  H253     1.0000 0.11850  0.27310  0.11850  Biso   1.000  H
  N61      1.0000 0.10910  0.25770  0.10910  Biso   1.000  N
  C254     1.0000 0.13350  0.80130  0.63350  Biso   1.000  C
  H254     1.0000 0.11850  0.77310  0.61850  Biso   1.000  H
  N62      1.0000 0.10910  0.75770  0.60910  Biso   1.000  N
  C255     1.0000 0.63350  0.30130  0.63350  Biso   1.000  C
  H255     1.0000 0.61850  0.27310  0.61850  Biso   1.000  H
  N63      1.0000 0.60910  0.25770  0.60910  Biso   1.000  N
  C256     1.0000 0.63350  0.80130  0.13350  Biso   1.000  C
  H256     1.0000 0.61850  0.77310  0.11850  Biso   1.000  H
  N64      1.0000 0.60910  0.75770  0.10910  Biso   1.000  N
  C257     1.0000 0.30130  0.13350  0.13350  Biso   1.000  C
  H257     1.0000 0.27310  0.11850  0.11850  Biso   1.000  H
  N65      1.0000 0.25770  0.10910  0.10910  Biso   1.000  N
  C258     1.0000 0.30130  0.63350  0.63350  Biso   1.000  C
  H258     1.0000 0.27310  0.61850  0.61850  Biso   1.000  H
  N66      1.0000 0.25770  0.60910  0.60910  Biso   1.000  N
  C259     1.0000 0.80130  0.13350  0.63350  Biso   1.000  C
  H259     1.0000 0.77310  0.11850  0.61850  Biso   1.000  H
  N67      1.0000 0.75770  0.10910  0.60910  Biso   1.000  N
  C260     1.0000 0.80130  0.63350  0.13350  Biso   1.000  C
  H260     1.0000 0.77310  0.61850  0.11850  Biso   1.000  H
  N68      1.0000 0.75770  0.60910  0.10910  Biso   1.000  N
  C261     1.0000 0.69870  0.13350  0.86650  Biso   1.000  C
  H261     1.0000 0.72690  0.11850  0.88150  Biso   1.000  H
  N69      1.0000 0.74230  0.10910  0.89090  Biso   1.000  N
  C262     1.0000 0.69870  0.63350  0.36650  Biso   1.000  C
  H262     1.0000 0.72690  0.61850  0.38150  Biso   1.000  H
  N70      1.0000 0.74230  0.60910  0.39090  Biso   1.000  N
  C263     1.0000 0.19870  0.13350  0.36650  Biso   1.000  C
  H263     1.0000 0.22690  0.11850  0.38150  Biso   1.000  H
  N71      1.0000 0.24230  0.10910  0.39090  Biso   1.000  N
  C264     1.0000 0.19870  0.63350  0.86650  Biso   1.000  C
  H264     1.0000 0.22690  0.61850  0.88150  Biso   1.000  H
  N72      1.0000 0.24230  0.60910  0.89090  Biso   1.000  N
  C265     1.0000 0.69870  0.86650  0.13350  Biso   1.000  C
  H265     1.0000 0.72690  0.88150  0.11850  Biso   1.000  H
  N73      1.0000 0.74230  0.89090  0.10910  Biso   1.000  N
  C266     1.0000 0.69870  0.36650  0.63350  Biso   1.000  C
  H266     1.0000 0.72690  0.38150  0.61850  Biso   1.000  H
  N74      1.0000 0.74230  0.39090  0.60910  Biso   1.000  N
  C267     1.0000 0.19870  0.86650  0.63350  Biso   1.000  C
  H267     1.0000 0.22690  0.88150  0.61850  Biso   1.000  H
  N75      1.0000 0.24230  0.89090  0.60910  Biso   1.000  N
  C268     1.0000 0.19870  0.36650  0.13350  Biso   1.000  C
  H268     1.0000 0.22690  0.38150  0.11850  Biso   1.000  H
  N76      1.0000 0.24230  0.39090  0.10910  Biso   1.000  N
  C269     1.0000 0.30130  0.86650  0.86650  Biso   1.000  C
  H269     1.0000 0.27310  0.88150  0.88150  Biso   1.000  H
  N77      1.0000 0.25770  0.89090  0.89090  Biso   1.000  N
  C270     1.0000 0.30130  0.36650  0.36650  Biso   1.000  C
  H270     1.0000 0.27310  0.38150  0.38150  Biso   1.000  H
  N78      1.0000 0.25770  0.39090  0.39090  Biso   1.000  N
  C271     1.0000 0.80130  0.86650  0.36650  Biso   1.000  C
  H271     1.0000 0.77310  0.88150  0.38150  Biso   1.000  H
  N79      1.0000 0.75770  0.89090  0.39090  Biso   1.000  N
  C272     1.0000 0.80130  0.36650  0.86650  Biso   1.000  C
  H272     1.0000 0.77310  0.38150  0.88150  Biso   1.000  H
  N80      1.0000 0.75770  0.39090  0.89090  Biso   1.000  N
  C273     1.0000 0.13350  0.86650  0.69870  Biso   1.000  C
  H273     1.0000 0.11850  0.88150  0.72690  Biso   1.000  H
  N81      1.0000 0.10910  0.89090  0.74230  Biso   1.000  N
  C274     1.0000 0.13350  0.36650  0.19870  Biso   1.000  C
  H274     1.0000 0.11850  0.38150  0.22690  Biso   1.000  H
  N82      1.0000 0.10910  0.39090  0.24230  Biso   1.000  N
  C275     1.0000 0.63350  0.86650  0.19870  Biso   1.000  C
  H275     1.0000 0.61850  0.88150  0.22690  Biso   1.000  H
  N83      1.0000 0.60910  0.89090  0.24230  Biso   1.000  N
  C276     1.0000 0.63350  0.36650  0.69870  Biso   1.000  C
  H276     1.0000 0.61850  0.38150  0.72690  Biso   1.000  H
  N84      1.0000 0.60910  0.39090  0.74230  Biso   1.000  N
  C277     1.0000 0.13350  0.13350  0.30130  Biso   1.000  C
  H277     1.0000 0.11850  0.11850  0.27310  Biso   1.000  H
  N85      1.0000 0.10910  0.10910  0.25770  Biso   1.000  N
  C278     1.0000 0.13350  0.63350  0.80130  Biso   1.000  C
  H278     1.0000 0.11850  0.61850  0.77310  Biso   1.000  H
  N86      1.0000 0.10910  0.60910  0.75770  Biso   1.000  N
  C279     1.0000 0.63350  0.13350  0.80130  Biso   1.000  C
  H279     1.0000 0.61850  0.11850  0.77310  Biso   1.000  H
  N87      1.0000 0.60910  0.10910  0.75770  Biso   1.000  N
  C280     1.0000 0.63350  0.63350  0.30130  Biso   1.000  C
  H280     1.0000 0.61850  0.61850  0.27310  Biso   1.000  H
  N88      1.0000 0.60910  0.60910  0.25770  Biso   1.000  N
  C281     1.0000 0.86650  0.86650  0.30130  Biso   1.000  C
  H281     1.0000 0.88150  0.88150  0.27310  Biso   1.000  H
  N89      1.0000 0.89090  0.89090  0.25770  Biso   1.000  N
  C282     1.0000 0.86650  0.36650  0.80130  Biso   1.000  C
  H282     1.0000 0.88150  0.38150  0.77310  Biso   1.000  H
  N90      1.0000 0.89090  0.39090  0.75770  Biso   1.000  N
  C283     1.0000 0.36650  0.86650  0.80130  Biso   1.000  C
  H283     1.0000 0.38150  0.88150  0.77310  Biso   1.000  H
  N91      1.0000 0.39090  0.89090  0.75770  Biso   1.000  N
  C284     1.0000 0.36650  0.36650  0.30130  Biso   1.000  C
  H284     1.0000 0.38150  0.38150  0.27310  Biso   1.000  H
  N92      1.0000 0.39090  0.39090  0.25770  Biso   1.000  N
  C285     1.0000 0.86650  0.13350  0.69870  Biso   1.000  C
  H285     1.0000 0.88150  0.11850  0.72690  Biso   1.000  H
  N93      1.0000 0.89090  0.10910  0.74230  Biso   1.000  N
  C286     1.0000 0.86650  0.63350  0.19870  Biso   1.000  C
  H286     1.0000 0.88150  0.61850  0.22690  Biso   1.000  H
  N94      1.0000 0.89090  0.60910  0.24230  Biso   1.000  N
  C287     1.0000 0.36650  0.13350  0.19870  Biso   1.000  C
  H287     1.0000 0.38150  0.11850  0.22690  Biso   1.000  H
  N95      1.0000 0.39090  0.10910  0.24230  Biso   1.000  N
  C288     1.0000 0.36650  0.63350  0.69870  Biso   1.000  C
  H288     1.0000 0.38150  0.61850  0.72690  Biso   1.000  H
  N96      1.0000 0.39090  0.60910  0.74230  Biso   1.000  N
