data_image0
_cell_length_a       30.014
_cell_length_b       30.014
_cell_length_c       30.014
_cell_angle_alpha    90
_cell_angle_beta     90
_cell_angle_gamma    90

_symmetry_space_group_name_H-M    "P 1"
_symmetry_int_tables_number       1

loop_
  _symmetry_equiv_pos_as_xyz
  'x, y, z'

loop_
  _atom_site_label
  _atom_site_occupancy
  _atom_site_fract_x
  _atom_site_fract_y
  _atom_site_fract_z
  _atom_site_thermal_displace_type
  _atom_site_B_iso_or_equiv
  _atom_site_type_symbol
  H1       1.0000 0.23530  0.19820  0.34910  Biso   1.000  H
  H2       1.0000 0.73530  0.69820  0.84910  Biso   1.000  H
  H3       1.0000 0.76470  0.80180  0.34910  Biso   1.000  H
  H4       1.0000 0.26470  0.30180  0.84910  Biso   1.000  H
  H5       1.0000 0.76470  0.19820  0.65090  Biso   1.000  H
  H6       1.0000 0.26470  0.69820  0.15090  Biso   1.000  H
  H7       1.0000 0.23530  0.80180  0.65090  Biso   1.000  H
  H8       1.0000 0.73530  0.30180  0.15090  Biso   1.000  H
  H9       1.0000 0.34910  0.23530  0.19820  Biso   1.000  H
  H10      1.0000 0.84910  0.73530  0.69820  Biso   1.000  H
  H11      1.0000 0.34910  0.76470  0.80180  Biso   1.000  H
  H12      1.0000 0.84910  0.26470  0.30180  Biso   1.000  H
  H13      1.0000 0.65090  0.76470  0.19820  Biso   1.000  H
  H14      1.0000 0.15090  0.26470  0.69820  Biso   1.000  H
  H15      1.0000 0.65090  0.23530  0.80180  Biso   1.000  H
  H16      1.0000 0.15090  0.73530  0.30180  Biso   1.000  H
  H17      1.0000 0.19820  0.34910  0.23530  Biso   1.000  H
  H18      1.0000 0.69820  0.84910  0.73530  Biso   1.000  H
  H19      1.0000 0.80180  0.34910  0.76470  Biso   1.000  H
  H20      1.0000 0.30180  0.84910  0.26470  Biso   1.000  H
  H21      1.0000 0.19820  0.65090  0.76470  Biso   1.000  H
  H22      1.0000 0.69820  0.15090  0.26470  Biso   1.000  H
  H23      1.0000 0.80180  0.65090  0.23530  Biso   1.000  H
  H24      1.0000 0.30180  0.15090  0.73530  Biso   1.000  H
  H25      1.0000 0.19820  0.23530  0.65090  Biso   1.000  H
  H26      1.0000 0.69820  0.73530  0.15090  Biso   1.000  H
  H27      1.0000 0.80180  0.76470  0.65090  Biso   1.000  H
  H28      1.0000 0.30180  0.26470  0.15090  Biso   1.000  H
  H29      1.0000 0.19820  0.76470  0.34910  Biso   1.000  H
  H30      1.0000 0.69820  0.26470  0.84910  Biso   1.000  H
  H31      1.0000 0.80180  0.23530  0.34910  Biso   1.000  H
  H32      1.0000 0.30180  0.73530  0.84910  Biso   1.000  H
  H33      1.0000 0.23530  0.34910  0.80180  Biso   1.000  H
  H34      1.0000 0.73530  0.84910  0.30180  Biso   1.000  H
  H35      1.0000 0.76470  0.34910  0.19820  Biso   1.000  H
  H36      1.0000 0.26470  0.84910  0.69820  Biso   1.000  H
  H37      1.0000 0.76470  0.65090  0.80180  Biso   1.000  H
  H38      1.0000 0.26470  0.15090  0.30180  Biso   1.000  H
  H39      1.0000 0.23530  0.65090  0.19820  Biso   1.000  H
  H40      1.0000 0.73530  0.15090  0.69820  Biso   1.000  H
  H41      1.0000 0.34910  0.19820  0.76470  Biso   1.000  H
  H42      1.0000 0.84910  0.69820  0.26470  Biso   1.000  H
  H43      1.0000 0.34910  0.80180  0.23530  Biso   1.000  H
  H44      1.0000 0.84910  0.30180  0.73530  Biso   1.000  H
  H45      1.0000 0.65090  0.19820  0.23530  Biso   1.000  H
  H46      1.0000 0.15090  0.69820  0.73530  Biso   1.000  H
  H47      1.0000 0.65090  0.80180  0.76470  Biso   1.000  H
  H48      1.0000 0.15090  0.30180  0.26470  Biso   1.000  H
  H49      1.0000 0.76470  0.80180  0.65090  Biso   1.000  H
  H50      1.0000 0.26470  0.30180  0.15090  Biso   1.000  H
  H51      1.0000 0.23530  0.19820  0.65090  Biso   1.000  H
  H52      1.0000 0.73530  0.69820  0.15090  Biso   1.000  H
  H53      1.0000 0.23530  0.80180  0.34910  Biso   1.000  H
  H54      1.0000 0.73530  0.30180  0.84910  Biso   1.000  H
  H55      1.0000 0.76470  0.19820  0.34910  Biso   1.000  H
  H56      1.0000 0.26470  0.69820  0.84910  Biso   1.000  H
  H57      1.0000 0.65090  0.76470  0.80180  Biso   1.000  H
  H58      1.0000 0.15090  0.26470  0.30180  Biso   1.000  H
  H59      1.0000 0.65090  0.23530  0.19820  Biso   1.000  H
  H60      1.0000 0.15090  0.73530  0.69820  Biso   1.000  H
  H61      1.0000 0.34910  0.23530  0.80180  Biso   1.000  H
  H62      1.0000 0.84910  0.73530  0.30180  Biso   1.000  H
  H63      1.0000 0.34910  0.76470  0.19820  Biso   1.000  H
  H64      1.0000 0.84910  0.26470  0.69820  Biso   1.000  H
  H65      1.0000 0.80180  0.65090  0.76470  Biso   1.000  H
  H66      1.0000 0.30180  0.15090  0.26470  Biso   1.000  H
  H67      1.0000 0.19820  0.65090  0.23530  Biso   1.000  H
  H68      1.0000 0.69820  0.15090  0.73530  Biso   1.000  H
  H69      1.0000 0.80180  0.34910  0.23530  Biso   1.000  H
  H70      1.0000 0.30180  0.84910  0.73530  Biso   1.000  H
  H71      1.0000 0.19820  0.34910  0.76470  Biso   1.000  H
  H72      1.0000 0.69820  0.84910  0.26470  Biso   1.000  H
  H73      1.0000 0.80180  0.76470  0.34910  Biso   1.000  H
  H74      1.0000 0.30180  0.26470  0.84910  Biso   1.000  H
  H75      1.0000 0.19820  0.23530  0.34910  Biso   1.000  H
  H76      1.0000 0.69820  0.73530  0.84910  Biso   1.000  H
  H77      1.0000 0.80180  0.23530  0.65090  Biso   1.000  H
  H78      1.0000 0.30180  0.73530  0.15090  Biso   1.000  H
  H79      1.0000 0.19820  0.76470  0.65090  Biso   1.000  H
  H80      1.0000 0.69820  0.26470  0.15090  Biso   1.000  H
  H81      1.0000 0.76470  0.65090  0.19820  Biso   1.000  H
  H82      1.0000 0.26470  0.15090  0.69820  Biso   1.000  H
  H83      1.0000 0.23530  0.65090  0.80180  Biso   1.000  H
  H84      1.0000 0.73530  0.15090  0.30180  Biso   1.000  H
  H85      1.0000 0.23530  0.34910  0.19820  Biso   1.000  H
  H86      1.0000 0.73530  0.84910  0.69820  Biso   1.000  H
  H87      1.0000 0.76470  0.34910  0.80180  Biso   1.000  H
  H88      1.0000 0.26470  0.84910  0.30180  Biso   1.000  H
  H89      1.0000 0.65090  0.80180  0.23530  Biso   1.000  H
  H90      1.0000 0.15090  0.30180  0.73530  Biso   1.000  H
  H91      1.0000 0.65090  0.19820  0.76470  Biso   1.000  H
  H92      1.0000 0.15090  0.69820  0.26470  Biso   1.000  H
  H93      1.0000 0.34910  0.80180  0.76470  Biso   1.000  H
  H94      1.0000 0.84910  0.30180  0.26470  Biso   1.000  H
  H95      1.0000 0.34910  0.19820  0.23530  Biso   1.000  H
  H96      1.0000 0.84910  0.69820  0.73530  Biso   1.000  H
  Ni1      1.0000 0.00000  0.00000  0.37657  Biso   1.000  Ni
  Ni2      1.0000 0.50000  0.50000  0.87657  Biso   1.000  Ni
  Ni3      1.0000 0.00000  0.00000  0.62343  Biso   1.000  Ni
  Ni4      1.0000 0.50000  0.50000  0.12343  Biso   1.000  Ni
  Ni5      1.0000 0.37657  0.00000  0.00000  Biso   1.000  Ni
  Ni6      1.0000 0.87657  0.50000  0.50000  Biso   1.000  Ni
  Ni7      1.0000 0.62343  0.00000  0.00000  Biso   1.000  Ni
  Ni8      1.0000 0.12343  0.50000  0.50000  Biso   1.000  Ni
  Ni9      1.0000 0.00000  0.37657  0.00000  Biso   1.000  Ni
  Ni10     1.0000 0.50000  0.87657  0.50000  Biso   1.000  Ni
  Ni11     1.0000 0.00000  0.62343  0.00000  Biso   1.000  Ni
  Ni12     1.0000 0.50000  0.12343  0.50000  Biso   1.000  Ni
  C1       1.0000 0.06793  0.06793  0.35180  Biso   1.000  C
  C2       1.0000 0.10191  0.10191  0.36860  Biso   1.000  C
  C3       1.0000 0.10990  0.10990  0.41080  Biso   1.000  C
  H97      1.0000 0.09380  0.09380  0.43190  Biso   1.000  H
  C4       1.0000 0.13740  0.13740  0.42420  Biso   1.000  C
  H98      1.0000 0.14100  0.14100  0.45480  Biso   1.000  H
  C5       1.0000 0.16410  0.16410  0.39500  Biso   1.000  C
  H99      1.0000 0.18470  0.18470  0.40550  Biso   1.000  H
  C6       1.0000 0.15711  0.15711  0.35010  Biso   1.000  C
  C7       1.0000 0.12524  0.12524  0.33520  Biso   1.000  C
  H100     1.0000 0.12010  0.12010  0.30510  Biso   1.000  H
  C8       1.0000 0.21207  0.21207  0.33140  Biso   1.000  C
  C9       1.0000 0.23111  0.23111  0.28973  Biso   1.000  C
  O1       1.0000 0.06390  0.06390  0.31089  Biso   1.000  O
  O2       1.0000 0.04748  0.04748  0.38002  Biso   1.000  O
  O3       1.0000 0.17918  0.17918  0.31775  Biso   1.000  O
  C10      1.0000 0.56793  0.56793  0.85180  Biso   1.000  C
  C11      1.0000 0.60191  0.60191  0.86860  Biso   1.000  C
  C12      1.0000 0.60990  0.60990  0.91080  Biso   1.000  C
  H101     1.0000 0.59380  0.59380  0.93190  Biso   1.000  H
  C13      1.0000 0.63740  0.63740  0.92420  Biso   1.000  C
  H102     1.0000 0.64100  0.64100  0.95480  Biso   1.000  H
  C14      1.0000 0.66410  0.66410  0.89500  Biso   1.000  C
  H103     1.0000 0.68470  0.68470  0.90550  Biso   1.000  H
  C15      1.0000 0.65711  0.65711  0.85010  Biso   1.000  C
  C16      1.0000 0.62524  0.62524  0.83520  Biso   1.000  C
  H104     1.0000 0.62010  0.62010  0.80510  Biso   1.000  H
  C17      1.0000 0.71207  0.71207  0.83140  Biso   1.000  C
  C18      1.0000 0.73111  0.73111  0.78973  Biso   1.000  C
  O4       1.0000 0.56390  0.56390  0.81089  Biso   1.000  O
  O5       1.0000 0.54748  0.54748  0.88002  Biso   1.000  O
  O6       1.0000 0.67918  0.67918  0.81775  Biso   1.000  O
  C19      1.0000 0.93207  0.93207  0.35180  Biso   1.000  C
  C20      1.0000 0.89809  0.89809  0.36860  Biso   1.000  C
  C21      1.0000 0.89010  0.89010  0.41080  Biso   1.000  C
  H105     1.0000 0.90620  0.90620  0.43190  Biso   1.000  H
  C22      1.0000 0.86260  0.86260  0.42420  Biso   1.000  C
  H106     1.0000 0.85900  0.85900  0.45480  Biso   1.000  H
  C23      1.0000 0.83590  0.83590  0.39500  Biso   1.000  C
  H107     1.0000 0.81530  0.81530  0.40550  Biso   1.000  H
  C24      1.0000 0.84289  0.84289  0.35010  Biso   1.000  C
  C25      1.0000 0.87476  0.87476  0.33520  Biso   1.000  C
  H108     1.0000 0.87990  0.87990  0.30510  Biso   1.000  H
  C26      1.0000 0.78793  0.78793  0.33140  Biso   1.000  C
  C27      1.0000 0.76889  0.76889  0.28973  Biso   1.000  C
  O7       1.0000 0.93610  0.93610  0.31089  Biso   1.000  O
  O8       1.0000 0.95252  0.95252  0.38002  Biso   1.000  O
  O9       1.0000 0.82082  0.82082  0.31775  Biso   1.000  O
  C28      1.0000 0.43207  0.43207  0.85180  Biso   1.000  C
  C29      1.0000 0.39809  0.39809  0.86860  Biso   1.000  C
  C30      1.0000 0.39010  0.39010  0.91080  Biso   1.000  C
  H109     1.0000 0.40620  0.40620  0.93190  Biso   1.000  H
  C31      1.0000 0.36260  0.36260  0.92420  Biso   1.000  C
  H110     1.0000 0.35900  0.35900  0.95480  Biso   1.000  H
  C32      1.0000 0.33590  0.33590  0.89500  Biso   1.000  C
  H111     1.0000 0.31530  0.31530  0.90550  Biso   1.000  H
  C33      1.0000 0.34289  0.34289  0.85010  Biso   1.000  C
  C34      1.0000 0.37476  0.37476  0.83520  Biso   1.000  C
  H112     1.0000 0.37990  0.37990  0.80510  Biso   1.000  H
  C35      1.0000 0.28793  0.28793  0.83140  Biso   1.000  C
  C36      1.0000 0.26889  0.26889  0.78973  Biso   1.000  C
  O10      1.0000 0.43610  0.43610  0.81089  Biso   1.000  O
  O11      1.0000 0.45252  0.45252  0.88002  Biso   1.000  O
  O12      1.0000 0.32082  0.32082  0.81775  Biso   1.000  O
  C37      1.0000 0.93207  0.06793  0.64820  Biso   1.000  C
  C38      1.0000 0.89809  0.10191  0.63140  Biso   1.000  C
  C39      1.0000 0.89010  0.10990  0.58920  Biso   1.000  C
  H113     1.0000 0.90620  0.09380  0.56810  Biso   1.000  H
  C40      1.0000 0.86260  0.13740  0.57580  Biso   1.000  C
  H114     1.0000 0.85900  0.14100  0.54520  Biso   1.000  H
  C41      1.0000 0.83590  0.16410  0.60500  Biso   1.000  C
  H115     1.0000 0.81530  0.18470  0.59450  Biso   1.000  H
  C42      1.0000 0.84289  0.15711  0.64990  Biso   1.000  C
  C43      1.0000 0.87476  0.12524  0.66480  Biso   1.000  C
  H116     1.0000 0.87990  0.12010  0.69490  Biso   1.000  H
  C44      1.0000 0.78793  0.21207  0.66860  Biso   1.000  C
  C45      1.0000 0.76889  0.23111  0.71027  Biso   1.000  C
  O13      1.0000 0.93610  0.06390  0.68911  Biso   1.000  O
  O14      1.0000 0.95252  0.04748  0.61998  Biso   1.000  O
  O15      1.0000 0.82082  0.17918  0.68225  Biso   1.000  O
  C46      1.0000 0.43207  0.56793  0.14820  Biso   1.000  C
  C47      1.0000 0.39809  0.60191  0.13140  Biso   1.000  C
  C48      1.0000 0.39010  0.60990  0.08920  Biso   1.000  C
  H117     1.0000 0.40620  0.59380  0.06810  Biso   1.000  H
  C49      1.0000 0.36260  0.63740  0.07580  Biso   1.000  C
  H118     1.0000 0.35900  0.64100  0.04520  Biso   1.000  H
  C50      1.0000 0.33590  0.66410  0.10500  Biso   1.000  C
  H119     1.0000 0.31530  0.68470  0.09450  Biso   1.000  H
  C51      1.0000 0.34289  0.65711  0.14990  Biso   1.000  C
  C52      1.0000 0.37476  0.62524  0.16480  Biso   1.000  C
  H120     1.0000 0.37990  0.62010  0.19490  Biso   1.000  H
  C53      1.0000 0.28793  0.71207  0.16860  Biso   1.000  C
  C54      1.0000 0.26889  0.73111  0.21027  Biso   1.000  C
  O16      1.0000 0.43610  0.56390  0.18911  Biso   1.000  O
  O17      1.0000 0.45252  0.54748  0.11998  Biso   1.000  O
  O18      1.0000 0.32082  0.67918  0.18225  Biso   1.000  O
  C55      1.0000 0.06793  0.93207  0.64820  Biso   1.000  C
  C56      1.0000 0.10191  0.89809  0.63140  Biso   1.000  C
  C57      1.0000 0.10990  0.89010  0.58920  Biso   1.000  C
  H121     1.0000 0.09380  0.90620  0.56810  Biso   1.000  H
  C58      1.0000 0.13740  0.86260  0.57580  Biso   1.000  C
  H122     1.0000 0.14100  0.85900  0.54520  Biso   1.000  H
  C59      1.0000 0.16410  0.83590  0.60500  Biso   1.000  C
  H123     1.0000 0.18470  0.81530  0.59450  Biso   1.000  H
  C60      1.0000 0.15711  0.84289  0.64990  Biso   1.000  C
  C61      1.0000 0.12524  0.87476  0.66480  Biso   1.000  C
  H124     1.0000 0.12010  0.87990  0.69490  Biso   1.000  H
  C62      1.0000 0.21207  0.78793  0.66860  Biso   1.000  C
  C63      1.0000 0.23111  0.76889  0.71027  Biso   1.000  C
  O19      1.0000 0.06390  0.93610  0.68911  Biso   1.000  O
  O20      1.0000 0.04748  0.95252  0.61998  Biso   1.000  O
  O21      1.0000 0.17918  0.82082  0.68225  Biso   1.000  O
  C64      1.0000 0.56793  0.43207  0.14820  Biso   1.000  C
  C65      1.0000 0.60191  0.39809  0.13140  Biso   1.000  C
  C66      1.0000 0.60990  0.39010  0.08920  Biso   1.000  C
  H125     1.0000 0.59380  0.40620  0.06810  Biso   1.000  H
  C67      1.0000 0.63740  0.36260  0.07580  Biso   1.000  C
  H126     1.0000 0.64100  0.35900  0.04520  Biso   1.000  H
  C68      1.0000 0.66410  0.33590  0.10500  Biso   1.000  C
  H127     1.0000 0.68470  0.31530  0.09450  Biso   1.000  H
  C69      1.0000 0.65711  0.34289  0.14990  Biso   1.000  C
  C70      1.0000 0.62524  0.37476  0.16480  Biso   1.000  C
  H128     1.0000 0.62010  0.37990  0.19490  Biso   1.000  H
  C71      1.0000 0.71207  0.28793  0.16860  Biso   1.000  C
  C72      1.0000 0.73111  0.26889  0.21027  Biso   1.000  C
  O22      1.0000 0.56390  0.43610  0.18911  Biso   1.000  O
  O23      1.0000 0.54748  0.45252  0.11998  Biso   1.000  O
  O24      1.0000 0.67918  0.32082  0.18225  Biso   1.000  O
  C73      1.0000 0.35180  0.06793  0.06793  Biso   1.000  C
  C74      1.0000 0.36860  0.10191  0.10191  Biso   1.000  C
  C75      1.0000 0.41080  0.10990  0.10990  Biso   1.000  C
  H129     1.0000 0.43190  0.09380  0.09380  Biso   1.000  H
  C76      1.0000 0.42420  0.13740  0.13740  Biso   1.000  C
  H130     1.0000 0.45480  0.14100  0.14100  Biso   1.000  H
  C77      1.0000 0.39500  0.16410  0.16410  Biso   1.000  C
  H131     1.0000 0.40550  0.18470  0.18470  Biso   1.000  H
  C78      1.0000 0.35010  0.15711  0.15711  Biso   1.000  C
  C79      1.0000 0.33520  0.12524  0.12524  Biso   1.000  C
  H132     1.0000 0.30510  0.12010  0.12010  Biso   1.000  H
  C80      1.0000 0.33140  0.21207  0.21207  Biso   1.000  C
  C81      1.0000 0.28973  0.23111  0.23111  Biso   1.000  C
  O25      1.0000 0.31089  0.06390  0.06390  Biso   1.000  O
  O26      1.0000 0.38002  0.04748  0.04748  Biso   1.000  O
  O27      1.0000 0.31775  0.17918  0.17918  Biso   1.000  O
  C82      1.0000 0.85180  0.56793  0.56793  Biso   1.000  C
  C83      1.0000 0.86860  0.60191  0.60191  Biso   1.000  C
  C84      1.0000 0.91080  0.60990  0.60990  Biso   1.000  C
  H133     1.0000 0.93190  0.59380  0.59380  Biso   1.000  H
  C85      1.0000 0.92420  0.63740  0.63740  Biso   1.000  C
  H134     1.0000 0.95480  0.64100  0.64100  Biso   1.000  H
  C86      1.0000 0.89500  0.66410  0.66410  Biso   1.000  C
  H135     1.0000 0.90550  0.68470  0.68470  Biso   1.000  H
  C87      1.0000 0.85010  0.65711  0.65711  Biso   1.000  C
  C88      1.0000 0.83520  0.62524  0.62524  Biso   1.000  C
  H136     1.0000 0.80510  0.62010  0.62010  Biso   1.000  H
  C89      1.0000 0.83140  0.71207  0.71207  Biso   1.000  C
  C90      1.0000 0.78973  0.73111  0.73111  Biso   1.000  C
  O28      1.0000 0.81089  0.56390  0.56390  Biso   1.000  O
  O29      1.0000 0.88002  0.54748  0.54748  Biso   1.000  O
  O30      1.0000 0.81775  0.67918  0.67918  Biso   1.000  O
  C91      1.0000 0.35180  0.93207  0.93207  Biso   1.000  C
  C92      1.0000 0.36860  0.89809  0.89809  Biso   1.000  C
  C93      1.0000 0.41080  0.89010  0.89010  Biso   1.000  C
  H137     1.0000 0.43190  0.90620  0.90620  Biso   1.000  H
  C94      1.0000 0.42420  0.86260  0.86260  Biso   1.000  C
  H138     1.0000 0.45480  0.85900  0.85900  Biso   1.000  H
  C95      1.0000 0.39500  0.83590  0.83590  Biso   1.000  C
  H139     1.0000 0.40550  0.81530  0.81530  Biso   1.000  H
  C96      1.0000 0.35010  0.84289  0.84289  Biso   1.000  C
  C97      1.0000 0.33520  0.87476  0.87476  Biso   1.000  C
  H140     1.0000 0.30510  0.87990  0.87990  Biso   1.000  H
  C98      1.0000 0.33140  0.78793  0.78793  Biso   1.000  C
  C99      1.0000 0.28973  0.76889  0.76889  Biso   1.000  C
  O31      1.0000 0.31089  0.93610  0.93610  Biso   1.000  O
  O32      1.0000 0.38002  0.95252  0.95252  Biso   1.000  O
  O33      1.0000 0.31775  0.82082  0.82082  Biso   1.000  O
  C100     1.0000 0.85180  0.43207  0.43207  Biso   1.000  C
  C101     1.0000 0.86860  0.39809  0.39809  Biso   1.000  C
  C102     1.0000 0.91080  0.39010  0.39010  Biso   1.000  C
  H141     1.0000 0.93190  0.40620  0.40620  Biso   1.000  H
  C103     1.0000 0.92420  0.36260  0.36260  Biso   1.000  C
  H142     1.0000 0.95480  0.35900  0.35900  Biso   1.000  H
  C104     1.0000 0.89500  0.33590  0.33590  Biso   1.000  C
  H143     1.0000 0.90550  0.31530  0.31530  Biso   1.000  H
  C105     1.0000 0.85010  0.34289  0.34289  Biso   1.000  C
  C106     1.0000 0.83520  0.37476  0.37476  Biso   1.000  C
  H144     1.0000 0.80510  0.37990  0.37990  Biso   1.000  H
  C107     1.0000 0.83140  0.28793  0.28793  Biso   1.000  C
  C108     1.0000 0.78973  0.26889  0.26889  Biso   1.000  C
  O34      1.0000 0.81089  0.43610  0.43610  Biso   1.000  O
  O35      1.0000 0.88002  0.45252  0.45252  Biso   1.000  O
  O36      1.0000 0.81775  0.32082  0.32082  Biso   1.000  O
  C109     1.0000 0.64820  0.93207  0.06793  Biso   1.000  C
  C110     1.0000 0.63140  0.89809  0.10191  Biso   1.000  C
  C111     1.0000 0.58920  0.89010  0.10990  Biso   1.000  C
  H145     1.0000 0.56810  0.90620  0.09380  Biso   1.000  H
  C112     1.0000 0.57580  0.86260  0.13740  Biso   1.000  C
  H146     1.0000 0.54520  0.85900  0.14100  Biso   1.000  H
  C113     1.0000 0.60500  0.83590  0.16410  Biso   1.000  C
  H147     1.0000 0.59450  0.81530  0.18470  Biso   1.000  H
  C114     1.0000 0.64990  0.84289  0.15711  Biso   1.000  C
  C115     1.0000 0.66480  0.87476  0.12524  Biso   1.000  C
  H148     1.0000 0.69490  0.87990  0.12010  Biso   1.000  H
  C116     1.0000 0.66860  0.78793  0.21207  Biso   1.000  C
  C117     1.0000 0.71027  0.76889  0.23111  Biso   1.000  C
  O37      1.0000 0.68911  0.93610  0.06390  Biso   1.000  O
  O38      1.0000 0.61998  0.95252  0.04748  Biso   1.000  O
  O39      1.0000 0.68225  0.82082  0.17918  Biso   1.000  O
  C118     1.0000 0.14820  0.43207  0.56793  Biso   1.000  C
  C119     1.0000 0.13140  0.39809  0.60191  Biso   1.000  C
  C120     1.0000 0.08920  0.39010  0.60990  Biso   1.000  C
  H149     1.0000 0.06810  0.40620  0.59380  Biso   1.000  H
  C121     1.0000 0.07580  0.36260  0.63740  Biso   1.000  C
  H150     1.0000 0.04520  0.35900  0.64100  Biso   1.000  H
  C122     1.0000 0.10500  0.33590  0.66410  Biso   1.000  C
  H151     1.0000 0.09450  0.31530  0.68470  Biso   1.000  H
  C123     1.0000 0.14990  0.34289  0.65711  Biso   1.000  C
  C124     1.0000 0.16480  0.37476  0.62524  Biso   1.000  C
  H152     1.0000 0.19490  0.37990  0.62010  Biso   1.000  H
  C125     1.0000 0.16860  0.28793  0.71207  Biso   1.000  C
  C126     1.0000 0.21027  0.26889  0.73111  Biso   1.000  C
  O40      1.0000 0.18911  0.43610  0.56390  Biso   1.000  O
  O41      1.0000 0.11998  0.45252  0.54748  Biso   1.000  O
  O42      1.0000 0.18225  0.32082  0.67918  Biso   1.000  O
  C127     1.0000 0.64820  0.06793  0.93207  Biso   1.000  C
  C128     1.0000 0.63140  0.10191  0.89809  Biso   1.000  C
  C129     1.0000 0.58920  0.10990  0.89010  Biso   1.000  C
  H153     1.0000 0.56810  0.09380  0.90620  Biso   1.000  H
  C130     1.0000 0.57580  0.13740  0.86260  Biso   1.000  C
  H154     1.0000 0.54520  0.14100  0.85900  Biso   1.000  H
  C131     1.0000 0.60500  0.16410  0.83590  Biso   1.000  C
  H155     1.0000 0.59450  0.18470  0.81530  Biso   1.000  H
  C132     1.0000 0.64990  0.15711  0.84289  Biso   1.000  C
  C133     1.0000 0.66480  0.12524  0.87476  Biso   1.000  C
  H156     1.0000 0.69490  0.12010  0.87990  Biso   1.000  H
  C134     1.0000 0.66860  0.21207  0.78793  Biso   1.000  C
  C135     1.0000 0.71027  0.23111  0.76889  Biso   1.000  C
  O43      1.0000 0.68911  0.06390  0.93610  Biso   1.000  O
  O44      1.0000 0.61998  0.04748  0.95252  Biso   1.000  O
  O45      1.0000 0.68225  0.17918  0.82082  Biso   1.000  O
  C136     1.0000 0.14820  0.56793  0.43207  Biso   1.000  C
  C137     1.0000 0.13140  0.60191  0.39809  Biso   1.000  C
  C138     1.0000 0.08920  0.60990  0.39010  Biso   1.000  C
  H157     1.0000 0.06810  0.59380  0.40620  Biso   1.000  H
  C139     1.0000 0.07580  0.63740  0.36260  Biso   1.000  C
  H158     1.0000 0.04520  0.64100  0.35900  Biso   1.000  H
  C140     1.0000 0.10500  0.66410  0.33590  Biso   1.000  C
  H159     1.0000 0.09450  0.68470  0.31530  Biso   1.000  H
  C141     1.0000 0.14990  0.65711  0.34289  Biso   1.000  C
  C142     1.0000 0.16480  0.62524  0.37476  Biso   1.000  C
  H160     1.0000 0.19490  0.62010  0.37990  Biso   1.000  H
  C143     1.0000 0.16860  0.71207  0.28793  Biso   1.000  C
  C144     1.0000 0.21027  0.73111  0.26889  Biso   1.000  C
  O46      1.0000 0.18911  0.56390  0.43610  Biso   1.000  O
  O47      1.0000 0.11998  0.54748  0.45252  Biso   1.000  O
  O48      1.0000 0.18225  0.67918  0.32082  Biso   1.000  O
  C145     1.0000 0.06793  0.35180  0.06793  Biso   1.000  C
  C146     1.0000 0.10191  0.36860  0.10191  Biso   1.000  C
  C147     1.0000 0.10990  0.41080  0.10990  Biso   1.000  C
  H161     1.0000 0.09380  0.43190  0.09380  Biso   1.000  H
  C148     1.0000 0.13740  0.42420  0.13740  Biso   1.000  C
  H162     1.0000 0.14100  0.45480  0.14100  Biso   1.000  H
  C149     1.0000 0.16410  0.39500  0.16410  Biso   1.000  C
  H163     1.0000 0.18470  0.40550  0.18470  Biso   1.000  H
  C150     1.0000 0.15711  0.35010  0.15711  Biso   1.000  C
  C151     1.0000 0.12524  0.33520  0.12524  Biso   1.000  C
  H164     1.0000 0.12010  0.30510  0.12010  Biso   1.000  H
  C152     1.0000 0.21207  0.33140  0.21207  Biso   1.000  C
  C153     1.0000 0.23111  0.28973  0.23111  Biso   1.000  C
  O49      1.0000 0.06390  0.31089  0.06390  Biso   1.000  O
  O50      1.0000 0.04748  0.38002  0.04748  Biso   1.000  O
  O51      1.0000 0.17918  0.31775  0.17918  Biso   1.000  O
  C154     1.0000 0.56793  0.85180  0.56793  Biso   1.000  C
  C155     1.0000 0.60191  0.86860  0.60191  Biso   1.000  C
  C156     1.0000 0.60990  0.91080  0.60990  Biso   1.000  C
  H165     1.0000 0.59380  0.93190  0.59380  Biso   1.000  H
  C157     1.0000 0.63740  0.92420  0.63740  Biso   1.000  C
  H166     1.0000 0.64100  0.95480  0.64100  Biso   1.000  H
  C158     1.0000 0.66410  0.89500  0.66410  Biso   1.000  C
  H167     1.0000 0.68470  0.90550  0.68470  Biso   1.000  H
  C159     1.0000 0.65711  0.85010  0.65711  Biso   1.000  C
  C160     1.0000 0.62524  0.83520  0.62524  Biso   1.000  C
  H168     1.0000 0.62010  0.80510  0.62010  Biso   1.000  H
  C161     1.0000 0.71207  0.83140  0.71207  Biso   1.000  C
  C162     1.0000 0.73111  0.78973  0.73111  Biso   1.000  C
  O52      1.0000 0.56390  0.81089  0.56390  Biso   1.000  O
  O53      1.0000 0.54748  0.88002  0.54748  Biso   1.000  O
  O54      1.0000 0.67918  0.81775  0.67918  Biso   1.000  O
  C163     1.0000 0.93207  0.35180  0.93207  Biso   1.000  C
  C164     1.0000 0.89809  0.36860  0.89809  Biso   1.000  C
  C165     1.0000 0.89010  0.41080  0.89010  Biso   1.000  C
  H169     1.0000 0.90620  0.43190  0.90620  Biso   1.000  H
  C166     1.0000 0.86260  0.42420  0.86260  Biso   1.000  C
  H170     1.0000 0.85900  0.45480  0.85900  Biso   1.000  H
  C167     1.0000 0.83590  0.39500  0.83590  Biso   1.000  C
  H171     1.0000 0.81530  0.40550  0.81530  Biso   1.000  H
  C168     1.0000 0.84289  0.35010  0.84289  Biso   1.000  C
  C169     1.0000 0.87476  0.33520  0.87476  Biso   1.000  C
  H172     1.0000 0.87990  0.30510  0.87990  Biso   1.000  H
  C170     1.0000 0.78793  0.33140  0.78793  Biso   1.000  C
  C171     1.0000 0.76889  0.28973  0.76889  Biso   1.000  C
  O55      1.0000 0.93610  0.31089  0.93610  Biso   1.000  O
  O56      1.0000 0.95252  0.38002  0.95252  Biso   1.000  O
  O57      1.0000 0.82082  0.31775  0.82082  Biso   1.000  O
  C172     1.0000 0.43207  0.85180  0.43207  Biso   1.000  C
  C173     1.0000 0.39809  0.86860  0.39809  Biso   1.000  C
  C174     1.0000 0.39010  0.91080  0.39010  Biso   1.000  C
  H173     1.0000 0.40620  0.93190  0.40620  Biso   1.000  H
  C175     1.0000 0.36260  0.92420  0.36260  Biso   1.000  C
  H174     1.0000 0.35900  0.95480  0.35900  Biso   1.000  H
  C176     1.0000 0.33590  0.89500  0.33590  Biso   1.000  C
  H175     1.0000 0.31530  0.90550  0.31530  Biso   1.000  H
  C177     1.0000 0.34289  0.85010  0.34289  Biso   1.000  C
  C178     1.0000 0.37476  0.83520  0.37476  Biso   1.000  C
  H176     1.0000 0.37990  0.80510  0.37990  Biso   1.000  H
  C179     1.0000 0.28793  0.83140  0.28793  Biso   1.000  C
  C180     1.0000 0.26889  0.78973  0.26889  Biso   1.000  C
  O58      1.0000 0.43610  0.81089  0.43610  Biso   1.000  O
  O59      1.0000 0.45252  0.88002  0.45252  Biso   1.000  O
  O60      1.0000 0.32082  0.81775  0.32082  Biso   1.000  O
  C181     1.0000 0.06793  0.64820  0.93207  Biso   1.000  C
  C182     1.0000 0.10191  0.63140  0.89809  Biso   1.000  C
  C183     1.0000 0.10990  0.58920  0.89010  Biso   1.000  C
  H177     1.0000 0.09380  0.56810  0.90620  Biso   1.000  H
  C184     1.0000 0.13740  0.57580  0.86260  Biso   1.000  C
  H178     1.0000 0.14100  0.54520  0.85900  Biso   1.000  H
  C185     1.0000 0.16410  0.60500  0.83590  Biso   1.000  C
  H179     1.0000 0.18470  0.59450  0.81530  Biso   1.000  H
  C186     1.0000 0.15711  0.64990  0.84289  Biso   1.000  C
  C187     1.0000 0.12524  0.66480  0.87476  Biso   1.000  C
  H180     1.0000 0.12010  0.69490  0.87990  Biso   1.000  H
  C188     1.0000 0.21207  0.66860  0.78793  Biso   1.000  C
  C189     1.0000 0.23111  0.71027  0.76889  Biso   1.000  C
  O61      1.0000 0.06390  0.68911  0.93610  Biso   1.000  O
  O62      1.0000 0.04748  0.61998  0.95252  Biso   1.000  O
  O63      1.0000 0.17918  0.68225  0.82082  Biso   1.000  O
  C190     1.0000 0.56793  0.14820  0.43207  Biso   1.000  C
  C191     1.0000 0.60191  0.13140  0.39809  Biso   1.000  C
  C192     1.0000 0.60990  0.08920  0.39010  Biso   1.000  C
  H181     1.0000 0.59380  0.06810  0.40620  Biso   1.000  H
  C193     1.0000 0.63740  0.07580  0.36260  Biso   1.000  C
  H182     1.0000 0.64100  0.04520  0.35900  Biso   1.000  H
  C194     1.0000 0.66410  0.10500  0.33590  Biso   1.000  C
  H183     1.0000 0.68470  0.09450  0.31530  Biso   1.000  H
  C195     1.0000 0.65711  0.14990  0.34289  Biso   1.000  C
  C196     1.0000 0.62524  0.16480  0.37476  Biso   1.000  C
  H184     1.0000 0.62010  0.19490  0.37990  Biso   1.000  H
  C197     1.0000 0.71207  0.16860  0.28793  Biso   1.000  C
  C198     1.0000 0.73111  0.21027  0.26889  Biso   1.000  C
  O64      1.0000 0.56390  0.18911  0.43610  Biso   1.000  O
  O65      1.0000 0.54748  0.11998  0.45252  Biso   1.000  O
  O66      1.0000 0.67918  0.18225  0.32082  Biso   1.000  O
  C199     1.0000 0.93207  0.64820  0.06793  Biso   1.000  C
  C200     1.0000 0.89809  0.63140  0.10191  Biso   1.000  C
  C201     1.0000 0.89010  0.58920  0.10990  Biso   1.000  C
  H185     1.0000 0.90620  0.56810  0.09380  Biso   1.000  H
  C202     1.0000 0.86260  0.57580  0.13740  Biso   1.000  C
  H186     1.0000 0.85900  0.54520  0.14100  Biso   1.000  H
  C203     1.0000 0.83590  0.60500  0.16410  Biso   1.000  C
  H187     1.0000 0.81530  0.59450  0.18470  Biso   1.000  H
  C204     1.0000 0.84289  0.64990  0.15711  Biso   1.000  C
  C205     1.0000 0.87476  0.66480  0.12524  Biso   1.000  C
  H188     1.0000 0.87990  0.69490  0.12010  Biso   1.000  H
  C206     1.0000 0.78793  0.66860  0.21207  Biso   1.000  C
  C207     1.0000 0.76889  0.71027  0.23111  Biso   1.000  C
  O67      1.0000 0.93610  0.68911  0.06390  Biso   1.000  O
  O68      1.0000 0.95252  0.61998  0.04748  Biso   1.000  O
  O69      1.0000 0.82082  0.68225  0.17918  Biso   1.000  O
  C208     1.0000 0.43207  0.14820  0.56793  Biso   1.000  C
  C209     1.0000 0.39809  0.13140  0.60191  Biso   1.000  C
  C210     1.0000 0.39010  0.08920  0.60990  Biso   1.000  C
  H189     1.0000 0.40620  0.06810  0.59380  Biso   1.000  H
  C211     1.0000 0.36260  0.07580  0.63740  Biso   1.000  C
  H190     1.0000 0.35900  0.04520  0.64100  Biso   1.000  H
  C212     1.0000 0.33590  0.10500  0.66410  Biso   1.000  C
  H191     1.0000 0.31530  0.09450  0.68470  Biso   1.000  H
  C213     1.0000 0.34289  0.14990  0.65711  Biso   1.000  C
  C214     1.0000 0.37476  0.16480  0.62524  Biso   1.000  C
  H192     1.0000 0.37990  0.19490  0.62010  Biso   1.000  H
  C215     1.0000 0.28793  0.16860  0.71207  Biso   1.000  C
  C216     1.0000 0.26889  0.21027  0.73111  Biso   1.000  C
  O70      1.0000 0.43610  0.18911  0.56390  Biso   1.000  O
  O71      1.0000 0.45252  0.11998  0.54748  Biso   1.000  O
  O72      1.0000 0.32082  0.18225  0.67918  Biso   1.000  O
  C217     1.0000 0.06793  0.06793  0.64820  Biso   1.000  C
  C218     1.0000 0.10191  0.10191  0.63140  Biso   1.000  C
  C219     1.0000 0.10990  0.10990  0.58920  Biso   1.000  C
  H193     1.0000 0.09380  0.09380  0.56810  Biso   1.000  H
  C220     1.0000 0.13740  0.13740  0.57580  Biso   1.000  C
  H194     1.0000 0.14100  0.14100  0.54520  Biso   1.000  H
  C221     1.0000 0.16410  0.16410  0.60500  Biso   1.000  C
  H195     1.0000 0.18470  0.18470  0.59450  Biso   1.000  H
  C222     1.0000 0.15711  0.15711  0.64990  Biso   1.000  C
  C223     1.0000 0.12524  0.12524  0.66480  Biso   1.000  C
  H196     1.0000 0.12010  0.12010  0.69490  Biso   1.000  H
  C224     1.0000 0.21207  0.21207  0.66860  Biso   1.000  C
  C225     1.0000 0.23111  0.23111  0.71027  Biso   1.000  C
  O73      1.0000 0.06390  0.06390  0.68911  Biso   1.000  O
  O74      1.0000 0.04748  0.04748  0.61998  Biso   1.000  O
  O75      1.0000 0.17918  0.17918  0.68225  Biso   1.000  O
  C226     1.0000 0.56793  0.56793  0.14820  Biso   1.000  C
  C227     1.0000 0.60191  0.60191  0.13140  Biso   1.000  C
  C228     1.0000 0.60990  0.60990  0.08920  Biso   1.000  C
  H197     1.0000 0.59380  0.59380  0.06810  Biso   1.000  H
  C229     1.0000 0.63740  0.63740  0.07580  Biso   1.000  C
  H198     1.0000 0.64100  0.64100  0.04520  Biso   1.000  H
  C230     1.0000 0.66410  0.66410  0.10500  Biso   1.000  C
  H199     1.0000 0.68470  0.68470  0.09450  Biso   1.000  H
  C231     1.0000 0.65711  0.65711  0.14990  Biso   1.000  C
  C232     1.0000 0.62524  0.62524  0.16480  Biso   1.000  C
  H200     1.0000 0.62010  0.62010  0.19490  Biso   1.000  H
  C233     1.0000 0.71207  0.71207  0.16860  Biso   1.000  C
  C234     1.0000 0.73111  0.73111  0.21027  Biso   1.000  C
  O76      1.0000 0.56390  0.56390  0.18911  Biso   1.000  O
  O77      1.0000 0.54748  0.54748  0.11998  Biso   1.000  O
  O78      1.0000 0.67918  0.67918  0.18225  Biso   1.000  O
  C235     1.0000 0.93207  0.93207  0.64820  Biso   1.000  C
  C236     1.0000 0.89809  0.89809  0.63140  Biso   1.000  C
  C237     1.0000 0.89010  0.89010  0.58920  Biso   1.000  C
  H201     1.0000 0.90620  0.90620  0.56810  Biso   1.000  H
  C238     1.0000 0.86260  0.86260  0.57580  Biso   1.000  C
  H202     1.0000 0.85900  0.85900  0.54520  Biso   1.000  H
  C239     1.0000 0.83590  0.83590  0.60500  Biso   1.000  C
  H203     1.0000 0.81530  0.81530  0.59450  Biso   1.000  H
  C240     1.0000 0.84289  0.84289  0.64990  Biso   1.000  C
  C241     1.0000 0.87476  0.87476  0.66480  Biso   1.000  C
  H204     1.0000 0.87990  0.87990  0.69490  Biso   1.000  H
  C242     1.0000 0.78793  0.78793  0.66860  Biso   1.000  C
  C243     1.0000 0.76889  0.76889  0.71027  Biso   1.000  C
  O79      1.0000 0.93610  0.93610  0.68911  Biso   1.000  O
  O80      1.0000 0.95252  0.95252  0.61998  Biso   1.000  O
  O81      1.0000 0.82082  0.82082  0.68225  Biso   1.000  O
  C244     1.0000 0.43207  0.43207  0.14820  Biso   1.000  C
  C245     1.0000 0.39809  0.39809  0.13140  Biso   1.000  C
  C246     1.0000 0.39010  0.39010  0.08920  Biso   1.000  C
  H205     1.0000 0.40620  0.40620  0.06810  Biso   1.000  H
  C247     1.0000 0.36260  0.36260  0.07580  Biso   1.000  C
  H206     1.0000 0.35900  0.35900  0.04520  Biso   1.000  H
  C248     1.0000 0.33590  0.33590  0.10500  Biso   1.000  C
  H207     1.0000 0.31530  0.31530  0.09450  Biso   1.000  H
  C249     1.0000 0.34289  0.34289  0.14990  Biso   1.000  C
  C250     1.0000 0.37476  0.37476  0.16480  Biso   1.000  C
  H208     1.0000 0.37990  0.37990  0.19490  Biso   1.000  H
  C251     1.0000 0.28793  0.28793  0.16860  Biso   1.000  C
  C252     1.0000 0.26889  0.26889  0.21027  Biso   1.000  C
  O82      1.0000 0.43610  0.43610  0.18911  Biso   1.000  O
  O83      1.0000 0.45252  0.45252  0.11998  Biso   1.000  O
  O84      1.0000 0.32082  0.32082  0.18225  Biso   1.000  O
  C253     1.0000 0.06793  0.93207  0.35180  Biso   1.000  C
  C254     1.0000 0.10191  0.89809  0.36860  Biso   1.000  C
  C255     1.0000 0.10990  0.89010  0.41080  Biso   1.000  C
  H209     1.0000 0.09380  0.90620  0.43190  Biso   1.000  H
  C256     1.0000 0.13740  0.86260  0.42420  Biso   1.000  C
  H210     1.0000 0.14100  0.85900  0.45480  Biso   1.000  H
  C257     1.0000 0.16410  0.83590  0.39500  Biso   1.000  C
  H211     1.0000 0.18470  0.81530  0.40550  Biso   1.000  H
  C258     1.0000 0.15711  0.84289  0.35010  Biso   1.000  C
  C259     1.0000 0.12524  0.87476  0.33520  Biso   1.000  C
  H212     1.0000 0.12010  0.87990  0.30510  Biso   1.000  H
  C260     1.0000 0.21207  0.78793  0.33140  Biso   1.000  C
  C261     1.0000 0.23111  0.76889  0.28973  Biso   1.000  C
  O85      1.0000 0.06390  0.93610  0.31089  Biso   1.000  O
  O86      1.0000 0.04748  0.95252  0.38002  Biso   1.000  O
  O87      1.0000 0.17918  0.82082  0.31775  Biso   1.000  O
  C262     1.0000 0.56793  0.43207  0.85180  Biso   1.000  C
  C263     1.0000 0.60191  0.39809  0.86860  Biso   1.000  C
  C264     1.0000 0.60990  0.39010  0.91080  Biso   1.000  C
  H213     1.0000 0.59380  0.40620  0.93190  Biso   1.000  H
  C265     1.0000 0.63740  0.36260  0.92420  Biso   1.000  C
  H214     1.0000 0.64100  0.35900  0.95480  Biso   1.000  H
  C266     1.0000 0.66410  0.33590  0.89500  Biso   1.000  C
  H215     1.0000 0.68470  0.31530  0.90550  Biso   1.000  H
  C267     1.0000 0.65711  0.34289  0.85010  Biso   1.000  C
  C268     1.0000 0.62524  0.37476  0.83520  Biso   1.000  C
  H216     1.0000 0.62010  0.37990  0.80510  Biso   1.000  H
  C269     1.0000 0.71207  0.28793  0.83140  Biso   1.000  C
  C270     1.0000 0.73111  0.26889  0.78973  Biso   1.000  C
  O88      1.0000 0.56390  0.43610  0.81089  Biso   1.000  O
  O89      1.0000 0.54748  0.45252  0.88002  Biso   1.000  O
  O90      1.0000 0.67918  0.32082  0.81775  Biso   1.000  O
  C271     1.0000 0.93207  0.06793  0.35180  Biso   1.000  C
  C272     1.0000 0.89809  0.10191  0.36860  Biso   1.000  C
  C273     1.0000 0.89010  0.10990  0.41080  Biso   1.000  C
  H217     1.0000 0.90620  0.09380  0.43190  Biso   1.000  H
  C274     1.0000 0.86260  0.13740  0.42420  Biso   1.000  C
  H218     1.0000 0.85900  0.14100  0.45480  Biso   1.000  H
  C275     1.0000 0.83590  0.16410  0.39500  Biso   1.000  C
  H219     1.0000 0.81530  0.18470  0.40550  Biso   1.000  H
  C276     1.0000 0.84289  0.15711  0.35010  Biso   1.000  C
  C277     1.0000 0.87476  0.12524  0.33520  Biso   1.000  C
  H220     1.0000 0.87990  0.12010  0.30510  Biso   1.000  H
  C278     1.0000 0.78793  0.21207  0.33140  Biso   1.000  C
  C279     1.0000 0.76889  0.23111  0.28973  Biso   1.000  C
  O91      1.0000 0.93610  0.06390  0.31089  Biso   1.000  O
  O92      1.0000 0.95252  0.04748  0.38002  Biso   1.000  O
  O93      1.0000 0.82082  0.17918  0.31775  Biso   1.000  O
  C280     1.0000 0.43207  0.56793  0.85180  Biso   1.000  C
  C281     1.0000 0.39809  0.60191  0.86860  Biso   1.000  C
  C282     1.0000 0.39010  0.60990  0.91080  Biso   1.000  C
  H221     1.0000 0.40620  0.59380  0.93190  Biso   1.000  H
  C283     1.0000 0.36260  0.63740  0.92420  Biso   1.000  C
  H222     1.0000 0.35900  0.64100  0.95480  Biso   1.000  H
  C284     1.0000 0.33590  0.66410  0.89500  Biso   1.000  C
  H223     1.0000 0.31530  0.68470  0.90550  Biso   1.000  H
  C285     1.0000 0.34289  0.65711  0.85010  Biso   1.000  C
  C286     1.0000 0.37476  0.62524  0.83520  Biso   1.000  C
  H224     1.0000 0.37990  0.62010  0.80510  Biso   1.000  H
  C287     1.0000 0.28793  0.71207  0.83140  Biso   1.000  C
  C288     1.0000 0.26889  0.73111  0.78973  Biso   1.000  C
  O94      1.0000 0.43610  0.56390  0.81089  Biso   1.000  O
  O95      1.0000 0.45252  0.54748  0.88002  Biso   1.000  O
  O96      1.0000 0.32082  0.67918  0.81775  Biso   1.000  O
  C289     1.0000 0.06793  0.35180  0.93207  Biso   1.000  C
  C290     1.0000 0.10191  0.36860  0.89809  Biso   1.000  C
  C291     1.0000 0.10990  0.41080  0.89010  Biso   1.000  C
  H225     1.0000 0.09380  0.43190  0.90620  Biso   1.000  H
  C292     1.0000 0.13740  0.42420  0.86260  Biso   1.000  C
  H226     1.0000 0.14100  0.45480  0.85900  Biso   1.000  H
  C293     1.0000 0.16410  0.39500  0.83590  Biso   1.000  C
  H227     1.0000 0.18470  0.40550  0.81530  Biso   1.000  H
  C294     1.0000 0.15711  0.35010  0.84289  Biso   1.000  C
  C295     1.0000 0.12524  0.33520  0.87476  Biso   1.000  C
  H228     1.0000 0.12010  0.30510  0.87990  Biso   1.000  H
  C296     1.0000 0.21207  0.33140  0.78793  Biso   1.000  C
  C297     1.0000 0.23111  0.28973  0.76889  Biso   1.000  C
  O97      1.0000 0.06390  0.31089  0.93610  Biso   1.000  O
  O98      1.0000 0.04748  0.38002  0.95252  Biso   1.000  O
  O99      1.0000 0.17918  0.31775  0.82082  Biso   1.000  O
  C298     1.0000 0.56793  0.85180  0.43207  Biso   1.000  C
  C299     1.0000 0.60191  0.86860  0.39809  Biso   1.000  C
  C300     1.0000 0.60990  0.91080  0.39010  Biso   1.000  C
  H229     1.0000 0.59380  0.93190  0.40620  Biso   1.000  H
  C301     1.0000 0.63740  0.92420  0.36260  Biso   1.000  C
  H230     1.0000 0.64100  0.95480  0.35900  Biso   1.000  H
  C302     1.0000 0.66410  0.89500  0.33590  Biso   1.000  C
  H231     1.0000 0.68470  0.90550  0.31530  Biso   1.000  H
  C303     1.0000 0.65711  0.85010  0.34289  Biso   1.000  C
  C304     1.0000 0.62524  0.83520  0.37476  Biso   1.000  C
  H232     1.0000 0.62010  0.80510  0.37990  Biso   1.000  H
  C305     1.0000 0.71207  0.83140  0.28793  Biso   1.000  C
  C306     1.0000 0.73111  0.78973  0.26889  Biso   1.000  C
  O100     1.0000 0.56390  0.81089  0.43610  Biso   1.000  O
  O101     1.0000 0.54748  0.88002  0.45252  Biso   1.000  O
  O102     1.0000 0.67918  0.81775  0.32082  Biso   1.000  O
  C307     1.0000 0.93207  0.35180  0.06793  Biso   1.000  C
  C308     1.0000 0.89809  0.36860  0.10191  Biso   1.000  C
  C309     1.0000 0.89010  0.41080  0.10990  Biso   1.000  C
  H233     1.0000 0.90620  0.43190  0.09380  Biso   1.000  H
  C310     1.0000 0.86260  0.42420  0.13740  Biso   1.000  C
  H234     1.0000 0.85900  0.45480  0.14100  Biso   1.000  H
  C311     1.0000 0.83590  0.39500  0.16410  Biso   1.000  C
  H235     1.0000 0.81530  0.40550  0.18470  Biso   1.000  H
  C312     1.0000 0.84289  0.35010  0.15711  Biso   1.000  C
  C313     1.0000 0.87476  0.33520  0.12524  Biso   1.000  C
  H236     1.0000 0.87990  0.30510  0.12010  Biso   1.000  H
  C314     1.0000 0.78793  0.33140  0.21207  Biso   1.000  C
  C315     1.0000 0.76889  0.28973  0.23111  Biso   1.000  C
  O103     1.0000 0.93610  0.31089  0.06390  Biso   1.000  O
  O104     1.0000 0.95252  0.38002  0.04748  Biso   1.000  O
  O105     1.0000 0.82082  0.31775  0.17918  Biso   1.000  O
  C316     1.0000 0.43207  0.85180  0.56793  Biso   1.000  C
  C317     1.0000 0.39809  0.86860  0.60191  Biso   1.000  C
  C318     1.0000 0.39010  0.91080  0.60990  Biso   1.000  C
  H237     1.0000 0.40620  0.93190  0.59380  Biso   1.000  H
  C319     1.0000 0.36260  0.92420  0.63740  Biso   1.000  C
  H238     1.0000 0.35900  0.95480  0.64100  Biso   1.000  H
  C320     1.0000 0.33590  0.89500  0.66410  Biso   1.000  C
  H239     1.0000 0.31530  0.90550  0.68470  Biso   1.000  H
  C321     1.0000 0.34289  0.85010  0.65711  Biso   1.000  C
  C322     1.0000 0.37476  0.83520  0.62524  Biso   1.000  C
  H240     1.0000 0.37990  0.80510  0.62010  Biso   1.000  H
  C323     1.0000 0.28793  0.83140  0.71207  Biso   1.000  C
  C324     1.0000 0.26889  0.78973  0.73111  Biso   1.000  C
  O106     1.0000 0.43610  0.81089  0.56390  Biso   1.000  O
  O107     1.0000 0.45252  0.88002  0.54748  Biso   1.000  O
  O108     1.0000 0.32082  0.81775  0.67918  Biso   1.000  O
  C325     1.0000 0.93207  0.64820  0.93207  Biso   1.000  C
  C326     1.0000 0.89809  0.63140  0.89809  Biso   1.000  C
  C327     1.0000 0.89010  0.58920  0.89010  Biso   1.000  C
  H241     1.0000 0.90620  0.56810  0.90620  Biso   1.000  H
  C328     1.0000 0.86260  0.57580  0.86260  Biso   1.000  C
  H242     1.0000 0.85900  0.54520  0.85900  Biso   1.000  H
  C329     1.0000 0.83590  0.60500  0.83590  Biso   1.000  C
  H243     1.0000 0.81530  0.59450  0.81530  Biso   1.000  H
  C330     1.0000 0.84289  0.64990  0.84289  Biso   1.000  C
  C331     1.0000 0.87476  0.66480  0.87476  Biso   1.000  C
  H244     1.0000 0.87990  0.69490  0.87990  Biso   1.000  H
  C332     1.0000 0.78793  0.66860  0.78793  Biso   1.000  C
  C333     1.0000 0.76889  0.71027  0.76889  Biso   1.000  C
  O109     1.0000 0.93610  0.68911  0.93610  Biso   1.000  O
  O110     1.0000 0.95252  0.61998  0.95252  Biso   1.000  O
  O111     1.0000 0.82082  0.68225  0.82082  Biso   1.000  O
  C334     1.0000 0.43207  0.14820  0.43207  Biso   1.000  C
  C335     1.0000 0.39809  0.13140  0.39809  Biso   1.000  C
  C336     1.0000 0.39010  0.08920  0.39010  Biso   1.000  C
  H245     1.0000 0.40620  0.06810  0.40620  Biso   1.000  H
  C337     1.0000 0.36260  0.07580  0.36260  Biso   1.000  C
  H246     1.0000 0.35900  0.04520  0.35900  Biso   1.000  H
  C338     1.0000 0.33590  0.10500  0.33590  Biso   1.000  C
  H247     1.0000 0.31530  0.09450  0.31530  Biso   1.000  H
  C339     1.0000 0.34289  0.14990  0.34289  Biso   1.000  C
  C340     1.0000 0.37476  0.16480  0.37476  Biso   1.000  C
  H248     1.0000 0.37990  0.19490  0.37990  Biso   1.000  H
  C341     1.0000 0.28793  0.16860  0.28793  Biso   1.000  C
  C342     1.0000 0.26889  0.21027  0.26889  Biso   1.000  C
  O112     1.0000 0.43610  0.18911  0.43610  Biso   1.000  O
  O113     1.0000 0.45252  0.11998  0.45252  Biso   1.000  O
  O114     1.0000 0.32082  0.18225  0.32082  Biso   1.000  O
  C343     1.0000 0.06793  0.64820  0.06793  Biso   1.000  C
  C344     1.0000 0.10191  0.63140  0.10191  Biso   1.000  C
  C345     1.0000 0.10990  0.58920  0.10990  Biso   1.000  C
  H249     1.0000 0.09380  0.56810  0.09380  Biso   1.000  H
  C346     1.0000 0.13740  0.57580  0.13740  Biso   1.000  C
  H250     1.0000 0.14100  0.54520  0.14100  Biso   1.000  H
  C347     1.0000 0.16410  0.60500  0.16410  Biso   1.000  C
  H251     1.0000 0.18470  0.59450  0.18470  Biso   1.000  H
  C348     1.0000 0.15711  0.64990  0.15711  Biso   1.000  C
  C349     1.0000 0.12524  0.66480  0.12524  Biso   1.000  C
  H252     1.0000 0.12010  0.69490  0.12010  Biso   1.000  H
  C350     1.0000 0.21207  0.66860  0.21207  Biso   1.000  C
  C351     1.0000 0.23111  0.71027  0.23111  Biso   1.000  C
  O115     1.0000 0.06390  0.68911  0.06390  Biso   1.000  O
  O116     1.0000 0.04748  0.61998  0.04748  Biso   1.000  O
  O117     1.0000 0.17918  0.68225  0.17918  Biso   1.000  O
  C352     1.0000 0.56793  0.14820  0.56793  Biso   1.000  C
  C353     1.0000 0.60191  0.13140  0.60191  Biso   1.000  C
  C354     1.0000 0.60990  0.08920  0.60990  Biso   1.000  C
  H253     1.0000 0.59380  0.06810  0.59380  Biso   1.000  H
  C355     1.0000 0.63740  0.07580  0.63740  Biso   1.000  C
  H254     1.0000 0.64100  0.04520  0.64100  Biso   1.000  H
  C356     1.0000 0.66410  0.10500  0.66410  Biso   1.000  C
  H255     1.0000 0.68470  0.09450  0.68470  Biso   1.000  H
  C357     1.0000 0.65711  0.14990  0.65711  Biso   1.000  C
  C358     1.0000 0.62524  0.16480  0.62524  Biso   1.000  C
  H256     1.0000 0.62010  0.19490  0.62010  Biso   1.000  H
  C359     1.0000 0.71207  0.16860  0.71207  Biso   1.000  C
  C360     1.0000 0.73111  0.21027  0.73111  Biso   1.000  C
  O118     1.0000 0.56390  0.18911  0.56390  Biso   1.000  O
  O119     1.0000 0.54748  0.11998  0.54748  Biso   1.000  O
  O120     1.0000 0.67918  0.18225  0.67918  Biso   1.000  O
  C361     1.0000 0.35180  0.06793  0.93207  Biso   1.000  C
  C362     1.0000 0.36860  0.10191  0.89809  Biso   1.000  C
  C363     1.0000 0.41080  0.10990  0.89010  Biso   1.000  C
  H257     1.0000 0.43190  0.09380  0.90620  Biso   1.000  H
  C364     1.0000 0.42420  0.13740  0.86260  Biso   1.000  C
  H258     1.0000 0.45480  0.14100  0.85900  Biso   1.000  H
  C365     1.0000 0.39500  0.16410  0.83590  Biso   1.000  C
  H259     1.0000 0.40550  0.18470  0.81530  Biso   1.000  H
  C366     1.0000 0.35010  0.15711  0.84289  Biso   1.000  C
  C367     1.0000 0.33520  0.12524  0.87476  Biso   1.000  C
  H260     1.0000 0.30510  0.12010  0.87990  Biso   1.000  H
  C368     1.0000 0.33140  0.21207  0.78793  Biso   1.000  C
  C369     1.0000 0.28973  0.23111  0.76889  Biso   1.000  C
  O121     1.0000 0.31089  0.06390  0.93610  Biso   1.000  O
  O122     1.0000 0.38002  0.04748  0.95252  Biso   1.000  O
  O123     1.0000 0.31775  0.17918  0.82082  Biso   1.000  O
  C370     1.0000 0.85180  0.56793  0.43207  Biso   1.000  C
  C371     1.0000 0.86860  0.60191  0.39809  Biso   1.000  C
  C372     1.0000 0.91080  0.60990  0.39010  Biso   1.000  C
  H261     1.0000 0.93190  0.59380  0.40620  Biso   1.000  H
  C373     1.0000 0.92420  0.63740  0.36260  Biso   1.000  C
  H262     1.0000 0.95480  0.64100  0.35900  Biso   1.000  H
  C374     1.0000 0.89500  0.66410  0.33590  Biso   1.000  C
  H263     1.0000 0.90550  0.68470  0.31530  Biso   1.000  H
  C375     1.0000 0.85010  0.65711  0.34289  Biso   1.000  C
  C376     1.0000 0.83520  0.62524  0.37476  Biso   1.000  C
  H264     1.0000 0.80510  0.62010  0.37990  Biso   1.000  H
  C377     1.0000 0.83140  0.71207  0.28793  Biso   1.000  C
  C378     1.0000 0.78973  0.73111  0.26889  Biso   1.000  C
  O124     1.0000 0.81089  0.56390  0.43610  Biso   1.000  O
  O125     1.0000 0.88002  0.54748  0.45252  Biso   1.000  O
  O126     1.0000 0.81775  0.67918  0.32082  Biso   1.000  O
  C379     1.0000 0.35180  0.93207  0.06793  Biso   1.000  C
  C380     1.0000 0.36860  0.89809  0.10191  Biso   1.000  C
  C381     1.0000 0.41080  0.89010  0.10990  Biso   1.000  C
  H265     1.0000 0.43190  0.90620  0.09380  Biso   1.000  H
  C382     1.0000 0.42420  0.86260  0.13740  Biso   1.000  C
  H266     1.0000 0.45480  0.85900  0.14100  Biso   1.000  H
  C383     1.0000 0.39500  0.83590  0.16410  Biso   1.000  C
  H267     1.0000 0.40550  0.81530  0.18470  Biso   1.000  H
  C384     1.0000 0.35010  0.84289  0.15711  Biso   1.000  C
  C385     1.0000 0.33520  0.87476  0.12524  Biso   1.000  C
  H268     1.0000 0.30510  0.87990  0.12010  Biso   1.000  H
  C386     1.0000 0.33140  0.78793  0.21207  Biso   1.000  C
  C387     1.0000 0.28973  0.76889  0.23111  Biso   1.000  C
  O127     1.0000 0.31089  0.93610  0.06390  Biso   1.000  O
  O128     1.0000 0.38002  0.95252  0.04748  Biso   1.000  O
  O129     1.0000 0.31775  0.82082  0.17918  Biso   1.000  O
  C388     1.0000 0.85180  0.43207  0.56793  Biso   1.000  C
  C389     1.0000 0.86860  0.39809  0.60191  Biso   1.000  C
  C390     1.0000 0.91080  0.39010  0.60990  Biso   1.000  C
  H269     1.0000 0.93190  0.40620  0.59380  Biso   1.000  H
  C391     1.0000 0.92420  0.36260  0.63740  Biso   1.000  C
  H270     1.0000 0.95480  0.35900  0.64100  Biso   1.000  H
  C392     1.0000 0.89500  0.33590  0.66410  Biso   1.000  C
  H271     1.0000 0.90550  0.31530  0.68470  Biso   1.000  H
  C393     1.0000 0.85010  0.34289  0.65711  Biso   1.000  C
  C394     1.0000 0.83520  0.37476  0.62524  Biso   1.000  C
  H272     1.0000 0.80510  0.37990  0.62010  Biso   1.000  H
  C395     1.0000 0.83140  0.28793  0.71207  Biso   1.000  C
  C396     1.0000 0.78973  0.26889  0.73111  Biso   1.000  C
  O130     1.0000 0.81089  0.43610  0.56390  Biso   1.000  O
  O131     1.0000 0.88002  0.45252  0.54748  Biso   1.000  O
  O132     1.0000 0.81775  0.32082  0.67918  Biso   1.000  O
  C397     1.0000 0.64820  0.06793  0.06793  Biso   1.000  C
  C398     1.0000 0.63140  0.10191  0.10191  Biso   1.000  C
  C399     1.0000 0.58920  0.10990  0.10990  Biso   1.000  C
  H273     1.0000 0.56810  0.09380  0.09380  Biso   1.000  H
  C400     1.0000 0.57580  0.13740  0.13740  Biso   1.000  C
  H274     1.0000 0.54520  0.14100  0.14100  Biso   1.000  H
  C401     1.0000 0.60500  0.16410  0.16410  Biso   1.000  C
  H275     1.0000 0.59450  0.18470  0.18470  Biso   1.000  H
  C402     1.0000 0.64990  0.15711  0.15711  Biso   1.000  C
  C403     1.0000 0.66480  0.12524  0.12524  Biso   1.000  C
  H276     1.0000 0.69490  0.12010  0.12010  Biso   1.000  H
  C404     1.0000 0.66860  0.21207  0.21207  Biso   1.000  C
  C405     1.0000 0.71027  0.23111  0.23111  Biso   1.000  C
  O133     1.0000 0.68911  0.06390  0.06390  Biso   1.000  O
  O134     1.0000 0.61998  0.04748  0.04748  Biso   1.000  O
  O135     1.0000 0.68225  0.17918  0.17918  Biso   1.000  O
  C406     1.0000 0.14820  0.56793  0.56793  Biso   1.000  C
  C407     1.0000 0.13140  0.60191  0.60191  Biso   1.000  C
  C408     1.0000 0.08920  0.60990  0.60990  Biso   1.000  C
  H277     1.0000 0.06810  0.59380  0.59380  Biso   1.000  H
  C409     1.0000 0.07580  0.63740  0.63740  Biso   1.000  C
  H278     1.0000 0.04520  0.64100  0.64100  Biso   1.000  H
  C410     1.0000 0.10500  0.66410  0.66410  Biso   1.000  C
  H279     1.0000 0.09450  0.68470  0.68470  Biso   1.000  H
  C411     1.0000 0.14990  0.65711  0.65711  Biso   1.000  C
  C412     1.0000 0.16480  0.62524  0.62524  Biso   1.000  C
  H280     1.0000 0.19490  0.62010  0.62010  Biso   1.000  H
  C413     1.0000 0.16860  0.71207  0.71207  Biso   1.000  C
  C414     1.0000 0.21027  0.73111  0.73111  Biso   1.000  C
  O136     1.0000 0.18911  0.56390  0.56390  Biso   1.000  O
  O137     1.0000 0.11998  0.54748  0.54748  Biso   1.000  O
  O138     1.0000 0.18225  0.67918  0.67918  Biso   1.000  O
  C415     1.0000 0.64820  0.93207  0.93207  Biso   1.000  C
  C416     1.0000 0.63140  0.89809  0.89809  Biso   1.000  C
  C417     1.0000 0.58920  0.89010  0.89010  Biso   1.000  C
  H281     1.0000 0.56810  0.90620  0.90620  Biso   1.000  H
  C418     1.0000 0.57580  0.86260  0.86260  Biso   1.000  C
  H282     1.0000 0.54520  0.85900  0.85900  Biso   1.000  H
  C419     1.0000 0.60500  0.83590  0.83590  Biso   1.000  C
  H283     1.0000 0.59450  0.81530  0.81530  Biso   1.000  H
  C420     1.0000 0.64990  0.84289  0.84289  Biso   1.000  C
  C421     1.0000 0.66480  0.87476  0.87476  Biso   1.000  C
  H284     1.0000 0.69490  0.87990  0.87990  Biso   1.000  H
  C422     1.0000 0.66860  0.78793  0.78793  Biso   1.000  C
  C423     1.0000 0.71027  0.76889  0.76889  Biso   1.000  C
  O139     1.0000 0.68911  0.93610  0.93610  Biso   1.000  O
  O140     1.0000 0.61998  0.95252  0.95252  Biso   1.000  O
  O141     1.0000 0.68225  0.82082  0.82082  Biso   1.000  O
  C424     1.0000 0.14820  0.43207  0.43207  Biso   1.000  C
  C425     1.0000 0.13140  0.39809  0.39809  Biso   1.000  C
  C426     1.0000 0.08920  0.39010  0.39010  Biso   1.000  C
  H285     1.0000 0.06810  0.40620  0.40620  Biso   1.000  H
  C427     1.0000 0.07580  0.36260  0.36260  Biso   1.000  C
  H286     1.0000 0.04520  0.35900  0.35900  Biso   1.000  H
  C428     1.0000 0.10500  0.33590  0.33590  Biso   1.000  C
  H287     1.0000 0.09450  0.31530  0.31530  Biso   1.000  H
  C429     1.0000 0.14990  0.34289  0.34289  Biso   1.000  C
  C430     1.0000 0.16480  0.37476  0.37476  Biso   1.000  C
  H288     1.0000 0.19490  0.37990  0.37990  Biso   1.000  H
  C431     1.0000 0.16860  0.28793  0.28793  Biso   1.000  C
  C432     1.0000 0.21027  0.26889  0.26889  Biso   1.000  C
  O142     1.0000 0.18911  0.43610  0.43610  Biso   1.000  O
  O143     1.0000 0.11998  0.45252  0.45252  Biso   1.000  O
  O144     1.0000 0.18225  0.32082  0.32082  Biso   1.000  O
