data_image0
_cell_length_a       19.4251
_cell_length_b       36.589
_cell_length_c       37.762
_cell_angle_alpha    90
_cell_angle_beta     114.202
_cell_angle_gamma    90

_symmetry_space_group_name_H-M    "P 1"
_symmetry_int_tables_number       1

loop_
  _symmetry_equiv_pos_as_xyz
  'x, y, z'

loop_
  _atom_site_label
  _atom_site_occupancy
  _atom_site_fract_x
  _atom_site_fract_y
  _atom_site_fract_z
  _atom_site_thermal_displace_type
  _atom_site_B_iso_or_equiv
  _atom_site_type_symbol
  Cu1      1.0000 0.09641  0.18928  0.24703  Biso   1.000  Cu
  C1       1.0000 0.67548  0.98846  0.30985  Biso   1.000  C
  H1       1.0000 0.71570  0.97070  0.32420  Biso   1.000  H
  H2       1.0000 0.64760  0.99410  0.32600  Biso   1.000  H
  C2       1.0000 0.67134  0.35590  0.33090  Biso   1.000  C
  H3       1.0000 0.69240  0.34360  0.35650  Biso   1.000  H
  H4       1.0000 0.67010  0.38250  0.33550  Biso   1.000  H
  C3       1.0000 0.48790  0.43387  0.17947  Biso   1.000  C
  H5       1.0000 0.44980  0.44760  0.15770  Biso   1.000  H
  H6       1.0000 0.46490  0.42690  0.19750  Biso   1.000  H
  C4       1.0000 0.39284  0.41904  0.71849  Biso   1.000  C
  H7       1.0000 0.38310  0.44530  0.72090  Biso   1.000  H
  H8       1.0000 0.34350  0.40670  0.70520  Biso   1.000  H
  Cu2      1.0000 0.16201  0.18876  0.32339  Biso   1.000  Cu
  Cu3      1.0000 0.40693  0.20514  0.94716  Biso   1.000  Cu
  Cu4      1.0000 0.55494  0.20090  0.97309  Biso   1.000  Cu
  Cu5      1.0000 0.54789  0.45667  0.76222  Biso   1.000  Cu
  Cu6      1.0000 0.60501  0.39218  0.24922  Biso   1.000  Cu
  N1       1.0000 0.62448  0.97255  0.27348  Biso   1.000  N
  N2       1.0000 0.71992  0.34895  0.31097  Biso   1.000  N
  N3       1.0000 0.55249  0.45680  0.19941  Biso   1.000  N
  N4       1.0000 0.43649  0.41518  0.69499  Biso   1.000  N
  N5       1.0000 0.55492  0.98856  0.25407  Biso   1.000  N
  N6       1.0000 0.71141  0.37026  0.27979  Biso   1.000  N
  N7       1.0000 0.60507  0.44531  0.23428  Biso   1.000  N
  N8       1.0000 0.50256  0.43409  0.70614  Biso   1.000  N
  C5       1.0000 0.52233  0.97049  0.22025  Biso   1.000  C
  C6       1.0000 0.76589  0.35971  0.26914  Biso   1.000  C
  C7       1.0000 0.65978  0.47052  0.24542  Biso   1.000  C
  C8       1.0000 0.52480  0.42860  0.67735  Biso   1.000  C
  C9       1.0000 0.57310  0.94350  0.21741  Biso   1.000  C
  C10      1.0000 0.81045  0.33187  0.29355  Biso   1.000  C
  C11      1.0000 0.64122  0.49848  0.21701  Biso   1.000  C
  C12      1.0000 0.47310  0.40692  0.64800  Biso   1.000  C
  C13      1.0000 0.63699  0.94562  0.25216  Biso   1.000  C
  C14      1.0000 0.77864  0.32532  0.32007  Biso   1.000  C
  C15      1.0000 0.57171  0.48877  0.18807  Biso   1.000  C
  C16      1.0000 0.41620  0.39865  0.65998  Biso   1.000  C
  C17      1.0000 0.44489  0.98003  0.19222  Biso   1.000  C
  H9       1.0000 0.40980  0.96070  0.19210  Biso   1.000  H
  H10      1.0000 0.44400  0.98250  0.16620  Biso   1.000  H
  H11      1.0000 0.42970  0.00320  0.19990  Biso   1.000  H
  C18      1.0000 0.77450  0.37881  0.23553  Biso   1.000  C
  H12      1.0000 0.75450  0.36310  0.21250  Biso   1.000  H
  H13      1.0000 0.82810  0.38370  0.24240  Biso   1.000  H
  H14      1.0000 0.74660  0.40190  0.23000  Biso   1.000  H
  C19      1.0000 0.72755  0.46606  0.28259  Biso   1.000  C
  H15      1.0000 0.72390  0.48260  0.30220  Biso   1.000  H
  H16      1.0000 0.77300  0.47190  0.27850  Biso   1.000  H
  H17      1.0000 0.73040  0.44080  0.29160  Biso   1.000  H
  C20      1.0000 0.59660  0.44713  0.68002  Biso   1.000  C
  H18      1.0000 0.60880  0.46740  0.69860  Biso   1.000  H
  H19      1.0000 0.58920  0.45660  0.65440  Biso   1.000  H
  H20      1.0000 0.63810  0.42940  0.68880  Biso   1.000  H
  C21      1.0000 0.70785  0.92371  0.26809  Biso   1.000  C
  H21      1.0000 0.74780  0.93680  0.26380  Biso   1.000  H
  H22      1.0000 0.69910  0.89990  0.25500  Biso   1.000  H
  H23      1.0000 0.72330  0.92000  0.29600  Biso   1.000  H
  C22      1.0000 0.79730  0.29810  0.35213  Biso   1.000  C
  H24      1.0000 0.82080  0.31060  0.37720  Biso   1.000  H
  H25      1.0000 0.83240  0.27990  0.35000  Biso   1.000  H
  H26      1.0000 0.75100  0.28590  0.35020  Biso   1.000  H
  C23      1.0000 0.52192  0.50750  0.15197  Biso   1.000  C
  H27      1.0000 0.53260  0.49860  0.13030  Biso   1.000  H
  H28      1.0000 0.53100  0.53390  0.15490  Biso   1.000  H
  H29      1.0000 0.46910  0.50250  0.14680  Biso   1.000  H
  C24      1.0000 0.34930  0.37590  0.64266  Biso   1.000  C
  H30      1.0000 0.35020  0.35690  0.66120  Biso   1.000  H
  H31      1.0000 0.34840  0.36440  0.61900  Biso   1.000  H
  H32      1.0000 0.30410  0.39100  0.63610  Biso   1.000  H
  C25      1.0000 0.56124  0.91899  0.18433  Biso   1.000  C
  C26      1.0000 0.87510  0.31242  0.29181  Biso   1.000  C
  C27      1.0000 0.68487  0.53176  0.21739  Biso   1.000  C
  C28      1.0000 0.47740  0.39432  0.61162  Biso   1.000  C
  C29      1.0000 0.48989  0.90603  0.16002  Biso   1.000  C
  H33      1.0000 0.44730  0.91320  0.16470  Biso   1.000  H
  C30      1.0000 0.87460  0.30152  0.25619  Biso   1.000  C
  H34      1.0000 0.83420  0.30880  0.23280  Biso   1.000  H
  C31      1.0000 0.73195  0.54855  0.25242  Biso   1.000  C
  H35      1.0000 0.73750  0.53800  0.27640  Biso   1.000  H
  C32      1.0000 0.54460  0.38167  0.61160  Biso   1.000  C
  H36      1.0000 0.58950  0.38310  0.63470  Biso   1.000  H
  C33      1.0000 0.47983  0.88297  0.12916  Biso   1.000  C
  H37      1.0000 0.43060  0.87490  0.11260  Biso   1.000  H
  C34      1.0000 0.93250  0.28015  0.25455  Biso   1.000  C
  H38      1.0000 0.93170  0.27310  0.23020  Biso   1.000  H
  C35      1.0000 0.77046  0.58043  0.25224  Biso   1.000  C
  H39      1.0000 0.80300  0.59130  0.27610  Biso   1.000  H
  C36      1.0000 0.54740  0.36679  0.57790  Biso   1.000  C
  H40      1.0000 0.59420  0.35890  0.57820  Biso   1.000  H
  C37      1.0000 0.54162  0.87158  0.12247  Biso   1.000  C
  C38      1.0000 0.99200  0.26901  0.28901  Biso   1.000  C
  C39      1.0000 0.76150  0.59656  0.21696  Biso   1.000  C
  C40      1.0000 0.48190  0.36368  0.54427  Biso   1.000  C
  C41      1.0000 0.61378  0.88450  0.14631  Biso   1.000  C
  H41      1.0000 0.65640  0.87690  0.14190  Biso   1.000  H
  C42      1.0000 0.99425  0.28129  0.32420  Biso   1.000  C
  H42      1.0000 0.03530  0.27470  0.34770  Biso   1.000  H
  C43      1.0000 0.71709  0.58000  0.18292  Biso   1.000  C
  H43      1.0000 0.71140  0.59090  0.15910  Biso   1.000  H
  C44      1.0000 0.41360  0.37732  0.54383  Biso   1.000  C
  H44      1.0000 0.36860  0.37580  0.52080  Biso   1.000  H
  C45      1.0000 0.62252  0.90833  0.17613  Biso   1.000  C
  H45      1.0000 0.67130  0.91780  0.19150  Biso   1.000  H
  C46      1.0000 0.93740  0.30302  0.32518  Biso   1.000  C
  H46      1.0000 0.94090  0.31190  0.34950  Biso   1.000  H
  C47      1.0000 0.67984  0.54730  0.18237  Biso   1.000  C
  H47      1.0000 0.65110  0.53550  0.15840  Biso   1.000  H
  C48      1.0000 0.41230  0.39276  0.57679  Biso   1.000  C
  H48      1.0000 0.36640  0.40260  0.57590  Biso   1.000  H
  C49      1.0000 0.53210  0.84464  0.09034  Biso   1.000  C
  C50      1.0000 0.04892  0.24210  0.28780  Biso   1.000  C
  C51      1.0000 0.80073  0.63192  0.21677  Biso   1.000  C
  C52      1.0000 0.48220  0.34252  0.51022  Biso   1.000  C
  O1       1.0000 0.59285  0.83066  0.09121  Biso   1.000  O
  O2       1.0000 0.04701  0.23367  0.25443  Biso   1.000  O
  O3       1.0000 0.84841  0.64355  0.24920  Biso   1.000  O
  O4       1.0000 0.41746  0.33386  0.48423  Biso   1.000  O
  O5       1.0000 0.46588  0.83741  0.06660  Biso   1.000  O
  O6       1.0000 0.09249  0.22863  0.31989  Biso   1.000  O
  O7       1.0000 0.78212  0.64733  0.18433  Biso   1.000  O
  O8       1.0000 0.54640  0.33400  0.51092  Biso   1.000  O
  N9       1.0000 0.70903  0.02159  0.30306  Biso   1.000  N
  N10      1.0000 0.59535  0.34297  0.30875  Biso   1.000  N
  N11      1.0000 0.50933  0.40101  0.16458  Biso   1.000  N
  N12      1.0000 0.43162  0.40364  0.75682  Biso   1.000  N
  N13      1.0000 0.66275  0.05072  0.28787  Biso   1.000  N
  N14      1.0000 0.55302  0.36013  0.27506  Biso   1.000  N
  N15      1.0000 0.55641  0.37700  0.19136  Biso   1.000  N
  N16      1.0000 0.49398  0.42130  0.78295  Biso   1.000  N
  C53      1.0000 0.70670  0.07672  0.28325  Biso   1.000  C
  C54      1.0000 0.48584  0.34372  0.26175  Biso   1.000  C
  C55      1.0000 0.56380  0.34925  0.17023  Biso   1.000  C
  C56      1.0000 0.51864  0.40078  0.81537  Biso   1.000  C
  C57      1.0000 0.78127  0.06403  0.29559  Biso   1.000  C
  C58      1.0000 0.48524  0.31646  0.28778  Biso   1.000  C
  C59      1.0000 0.52280  0.35567  0.13074  Biso   1.000  C
  C60      1.0000 0.46996  0.37034  0.80966  Biso   1.000  C
  C61      1.0000 0.78031  0.02858  0.30793  Biso   1.000  C
  C62      1.0000 0.55559  0.31654  0.31748  Biso   1.000  C
  C63      1.0000 0.48770  0.38924  0.12772  Biso   1.000  C
  C64      1.0000 0.41625  0.37250  0.77193  Biso   1.000  C
  C65      1.0000 0.67430  0.11404  0.26824  Biso   1.000  C
  H49      1.0000 0.66300  0.11570  0.24050  Biso   1.000  H
  H50      1.0000 0.71100  0.13290  0.28240  Biso   1.000  H
  H51      1.0000 0.62780  0.11760  0.27210  Biso   1.000  H
  C66      1.0000 0.42290  0.35572  0.22434  Biso   1.000  C
  H52      1.0000 0.42270  0.38240  0.22260  Biso   1.000  H
  H53      1.0000 0.37450  0.34740  0.22370  Biso   1.000  H
  H54      1.0000 0.43050  0.34510  0.20240  Biso   1.000  H
  C67      1.0000 0.61080  0.31663  0.19032  Biso   1.000  C
  H55      1.0000 0.66210  0.31960  0.19170  Biso   1.000  H
  H56      1.0000 0.58810  0.29440  0.17570  Biso   1.000  H
  H57      1.0000 0.61290  0.31470  0.21660  Biso   1.000  H
  C68      1.0000 0.58699  0.41098  0.84996  Biso   1.000  C
  H58      1.0000 0.62970  0.39600  0.85100  Biso   1.000  H
  H59      1.0000 0.57820  0.40680  0.87340  Biso   1.000  H
  H60      1.0000 0.59840  0.43690  0.84840  Biso   1.000  H
  C69      1.0000 0.84270  0.00078  0.32427  Biso   1.000  C
  H61      1.0000 0.85740  0.99830  0.35230  Biso   1.000  H
  H62      1.0000 0.88640  0.00880  0.31960  Biso   1.000  H
  H63      1.0000 0.82500  0.97710  0.31160  Biso   1.000  H
  C70      1.0000 0.59029  0.29332  0.35381  Biso   1.000  C
  H64      1.0000 0.63920  0.28390  0.35620  Biso   1.000  H
  H65      1.0000 0.55660  0.27280  0.35210  Biso   1.000  H
  H66      1.0000 0.59750  0.30820  0.37660  Biso   1.000  H
  C71      1.0000 0.43750  0.41076  0.09335  Biso   1.000  C
  H67      1.0000 0.38580  0.41020  0.09160  Biso   1.000  H
  H68      1.0000 0.43850  0.40020  0.06970  Biso   1.000  H
  H69      1.0000 0.45510  0.43610  0.09610  Biso   1.000  H
  C72      1.0000 0.35382  0.34727  0.74899  Biso   1.000  C
  H70      1.0000 0.30590  0.36070  0.73890  Biso   1.000  H
  H71      1.0000 0.35130  0.32730  0.76570  Biso   1.000  H
  H72      1.0000 0.36310  0.33730  0.72730  Biso   1.000  H
  C73      1.0000 0.84557  0.08452  0.29434  Biso   1.000  C
  C74      1.0000 0.42000  0.29377  0.28551  Biso   1.000  C
  C75      1.0000 0.51480  0.33058  0.09808  Biso   1.000  C
  C76      1.0000 0.47532  0.34178  0.83836  Biso   1.000  C
  C77      1.0000 0.91340  0.08870  0.32674  Biso   1.000  C
  H73      1.0000 0.92000  0.07710  0.35040  Biso   1.000  H
  C78      1.0000 0.40277  0.29056  0.31797  Biso   1.000  C
  H74      1.0000 0.43290  0.30300  0.34130  Biso   1.000  H
  C79      1.0000 0.57750  0.31542  0.09555  Biso   1.000  C
  H75      1.0000 0.62620  0.32250  0.11370  Biso   1.000  H
  C80      1.0000 0.54283  0.32349  0.85938  Biso   1.000  C
  H76      1.0000 0.58740  0.33010  0.85630  Biso   1.000  H
  C81      1.0000 0.97110  0.10941  0.32504  Biso   1.000  C
  H77      1.0000 0.01610  0.11290  0.34780  Biso   1.000  H
  C82      1.0000 0.34277  0.26955  0.31661  Biso   1.000  C
  H78      1.0000 0.33290  0.26730  0.33920  Biso   1.000  H
  C83      1.0000 0.57110  0.28965  0.06671  Biso   1.000  C
  H79      1.0000 0.61500  0.27910  0.06570  Biso   1.000  H
  C84      1.0000 0.54499  0.29550  0.88501  Biso   1.000  C
  H80      1.0000 0.59120  0.28330  0.89950  Biso   1.000  H
  C85      1.0000 0.96417  0.12517  0.29028  Biso   1.000  C
  C86      1.0000 0.29735  0.25193  0.28324  Biso   1.000  C
  C87      1.0000 0.50070  0.27985  0.03997  Biso   1.000  C
  C88      1.0000 0.48017  0.28538  0.88939  Biso   1.000  C
  C89      1.0000 0.89850  0.12072  0.25771  Biso   1.000  C
  H81      1.0000 0.89350  0.13100  0.23370  Biso   1.000  H
  C90      1.0000 0.31210  0.25513  0.24998  Biso   1.000  C
  H82      1.0000 0.28070  0.24310  0.22660  Biso   1.000  H
  C91      1.0000 0.43630  0.29569  0.04125  Biso   1.000  C
  H83      1.0000 0.38740  0.28960  0.02240  Biso   1.000  H
  C92      1.0000 0.41243  0.30395  0.86905  Biso   1.000  C
  H84      1.0000 0.36810  0.29730  0.87240  Biso   1.000  H
  C93      1.0000 0.83900  0.10101  0.26005  Biso   1.000  C
  H85      1.0000 0.79300  0.09880  0.23760  Biso   1.000  H
  C94      1.0000 0.37316  0.27603  0.25150  Biso   1.000  C
  H86      1.0000 0.38310  0.27820  0.22890  Biso   1.000  H
  C95      1.0000 0.44530  0.32069  0.07082  Biso   1.000  C
  H87      1.0000 0.40160  0.33120  0.07210  Biso   1.000  H
  C96      1.0000 0.41035  0.33211  0.84398  Biso   1.000  C
  H88      1.0000 0.36450  0.34500  0.83050  Biso   1.000  H
  C97      1.0000 0.02690  0.14860  0.28890  Biso   1.000  C
  C98      1.0000 0.23355  0.22886  0.28268  Biso   1.000  C
  C99      1.0000 0.49280  0.25146  0.01005  Biso   1.000  C
  C100     1.0000 0.48107  0.25393  0.91528  Biso   1.000  C
  O9       1.0000 0.08276  0.15452  0.32052  Biso   1.000  O
  O10      1.0000 0.23122  0.22291  0.31526  Biso   1.000  O
  O11      1.0000 0.55360  0.24022  0.00845  Biso   1.000  O
  O12      1.0000 0.41871  0.24507  0.91580  Biso   1.000  O
  O13      1.0000 0.01854  0.16079  0.25605  Biso   1.000  O
  O14      1.0000 0.18595  0.21714  0.25018  Biso   1.000  O
  O15      1.0000 0.42705  0.24032  0.98942  Biso   1.000  O
  O16      1.0000 0.54324  0.23855  0.93385  Biso   1.000  O
  Cu7      1.0000 0.90359  0.68928  0.25297  Biso   1.000  Cu
  C101     1.0000 0.32452  0.48846  0.19015  Biso   1.000  C
  H89      1.0000 0.28430  0.47070  0.17580  Biso   1.000  H
  H90      1.0000 0.35240  0.49410  0.17400  Biso   1.000  H
  C102     1.0000 0.32866  0.85590  0.16910  Biso   1.000  C
  H91      1.0000 0.30760  0.84360  0.14350  Biso   1.000  H
  H92      1.0000 0.32990  0.88250  0.16450  Biso   1.000  H
  C103     1.0000 0.51210  0.93387  0.32053  Biso   1.000  C
  H93      1.0000 0.55020  0.94760  0.34230  Biso   1.000  H
  H94      1.0000 0.53510  0.92690  0.30250  Biso   1.000  H
  C104     1.0000 0.60716  0.91904  0.78151  Biso   1.000  C
  H95      1.0000 0.61690  0.94530  0.77910  Biso   1.000  H
  H96      1.0000 0.65650  0.90670  0.79480  Biso   1.000  H
  Cu8      1.0000 0.83799  0.68876  0.17661  Biso   1.000  Cu
  Cu9      1.0000 0.59307  0.70514  0.55284  Biso   1.000  Cu
  Cu10     1.0000 0.44506  0.70090  0.52691  Biso   1.000  Cu
  Cu11     1.0000 0.45211  0.95667  0.73778  Biso   1.000  Cu
  Cu12     1.0000 0.39499  0.89218  0.25078  Biso   1.000  Cu
  N17      1.0000 0.37552  0.47255  0.22652  Biso   1.000  N
  N18      1.0000 0.28008  0.84895  0.18903  Biso   1.000  N
  N19      1.0000 0.44751  0.95680  0.30059  Biso   1.000  N
  N20      1.0000 0.56351  0.91518  0.80501  Biso   1.000  N
  N21      1.0000 0.44508  0.48856  0.24593  Biso   1.000  N
  N22      1.0000 0.28859  0.87026  0.22021  Biso   1.000  N
  N23      1.0000 0.39493  0.94531  0.26572  Biso   1.000  N
  N24      1.0000 0.49744  0.93409  0.79386  Biso   1.000  N
  C105     1.0000 0.47767  0.47049  0.27975  Biso   1.000  C
  C106     1.0000 0.23411  0.85971  0.23086  Biso   1.000  C
  C107     1.0000 0.34022  0.97052  0.25458  Biso   1.000  C
  C108     1.0000 0.47520  0.92860  0.82265  Biso   1.000  C
  C109     1.0000 0.42690  0.44350  0.28259  Biso   1.000  C
  C110     1.0000 0.18955  0.83187  0.20645  Biso   1.000  C
  C111     1.0000 0.35878  0.99848  0.28299  Biso   1.000  C
  C112     1.0000 0.52690  0.90692  0.85200  Biso   1.000  C
  C113     1.0000 0.36301  0.44562  0.24784  Biso   1.000  C
  C114     1.0000 0.22136  0.82532  0.17993  Biso   1.000  C
  C115     1.0000 0.42829  0.98877  0.31193  Biso   1.000  C
  C116     1.0000 0.58380  0.89865  0.84002  Biso   1.000  C
  C117     1.0000 0.55511  0.48003  0.30778  Biso   1.000  C
  H97      1.0000 0.59020  0.46070  0.30790  Biso   1.000  H
  H98      1.0000 0.55600  0.48250  0.33380  Biso   1.000  H
  H99      1.0000 0.57030  0.50320  0.30010  Biso   1.000  H
  C118     1.0000 0.22550  0.87881  0.26447  Biso   1.000  C
  H100     1.0000 0.24550  0.86310  0.28750  Biso   1.000  H
  H101     1.0000 0.17190  0.88370  0.25760  Biso   1.000  H
  H102     1.0000 0.25340  0.90190  0.27000  Biso   1.000  H
  C119     1.0000 0.27245  0.96606  0.21741  Biso   1.000  C
  H103     1.0000 0.27610  0.98260  0.19780  Biso   1.000  H
  H104     1.0000 0.22700  0.97190  0.22150  Biso   1.000  H
  H105     1.0000 0.26960  0.94080  0.20840  Biso   1.000  H
  C120     1.0000 0.40340  0.94713  0.81998  Biso   1.000  C
  H106     1.0000 0.39120  0.96740  0.80140  Biso   1.000  H
  H107     1.0000 0.41080  0.95660  0.84560  Biso   1.000  H
  H108     1.0000 0.36190  0.92940  0.81120  Biso   1.000  H
  C121     1.0000 0.29215  0.42371  0.23191  Biso   1.000  C
  H109     1.0000 0.25220  0.43680  0.23620  Biso   1.000  H
  H110     1.0000 0.30090  0.39990  0.24500  Biso   1.000  H
  H111     1.0000 0.27670  0.42000  0.20400  Biso   1.000  H
  C122     1.0000 0.20270  0.79810  0.14787  Biso   1.000  C
  H112     1.0000 0.17920  0.81060  0.12280  Biso   1.000  H
  H113     1.0000 0.16760  0.77990  0.15000  Biso   1.000  H
  H114     1.0000 0.24900  0.78590  0.14980  Biso   1.000  H
  C123     1.0000 0.47808  0.00750  0.34803  Biso   1.000  C
  H115     1.0000 0.46740  0.99860  0.36970  Biso   1.000  H
  H116     1.0000 0.46900  0.03390  0.34510  Biso   1.000  H
  H117     1.0000 0.53090  0.00250  0.35320  Biso   1.000  H
  C124     1.0000 0.65070  0.87590  0.85734  Biso   1.000  C
  H118     1.0000 0.64980  0.85690  0.83880  Biso   1.000  H
  H119     1.0000 0.65160  0.86440  0.88100  Biso   1.000  H
  H120     1.0000 0.69590  0.89100  0.86390  Biso   1.000  H
  C125     1.0000 0.43876  0.41899  0.31567  Biso   1.000  C
  C126     1.0000 0.12490  0.81242  0.20819  Biso   1.000  C
  C127     1.0000 0.31513  0.03176  0.28261  Biso   1.000  C
  C128     1.0000 0.52260  0.89432  0.88838  Biso   1.000  C
  C129     1.0000 0.51011  0.40603  0.33998  Biso   1.000  C
  H121     1.0000 0.55270  0.41320  0.33530  Biso   1.000  H
  C130     1.0000 0.12540  0.80152  0.24381  Biso   1.000  C
  H122     1.0000 0.16580  0.80880  0.26720  Biso   1.000  H
  C131     1.0000 0.26805  0.04855  0.24758  Biso   1.000  C
  H123     1.0000 0.26250  0.03800  0.22360  Biso   1.000  H
  C132     1.0000 0.45540  0.88167  0.88840  Biso   1.000  C
  H124     1.0000 0.41050  0.88310  0.86530  Biso   1.000  H
  C133     1.0000 0.52017  0.38297  0.37084  Biso   1.000  C
  H125     1.0000 0.56940  0.37490  0.38740  Biso   1.000  H
  C134     1.0000 0.06750  0.78015  0.24545  Biso   1.000  C
  H126     1.0000 0.06830  0.77310  0.26980  Biso   1.000  H
  C135     1.0000 0.22954  0.08043  0.24776  Biso   1.000  C
  H127     1.0000 0.19700  0.09130  0.22390  Biso   1.000  H
  C136     1.0000 0.45260  0.86679  0.92210  Biso   1.000  C
  H128     1.0000 0.40580  0.85890  0.92180  Biso   1.000  H
  C137     1.0000 0.45838  0.37158  0.37753  Biso   1.000  C
  C138     1.0000 0.00800  0.76901  0.21099  Biso   1.000  C
  C139     1.0000 0.23850  0.09656  0.28304  Biso   1.000  C
  C140     1.0000 0.51810  0.86368  0.95573  Biso   1.000  C
  C141     1.0000 0.38622  0.38450  0.35369  Biso   1.000  C
  H129     1.0000 0.34360  0.37690  0.35810  Biso   1.000  H
  C142     1.0000 0.00575  0.78129  0.17580  Biso   1.000  C
  H130     1.0000 0.96470  0.77470  0.15230  Biso   1.000  H
  C143     1.0000 0.28291  0.08000  0.31708  Biso   1.000  C
  H131     1.0000 0.28860  0.09090  0.34090  Biso   1.000  H
  C144     1.0000 0.58640  0.87732  0.95617  Biso   1.000  C
  H132     1.0000 0.63140  0.87580  0.97920  Biso   1.000  H
  C145     1.0000 0.37748  0.40833  0.32387  Biso   1.000  C
  H133     1.0000 0.32870  0.41780  0.30850  Biso   1.000  H
  C146     1.0000 0.06260  0.80302  0.17482  Biso   1.000  C
  H134     1.0000 0.05910  0.81190  0.15050  Biso   1.000  H
  C147     1.0000 0.32016  0.04730  0.31763  Biso   1.000  C
  H135     1.0000 0.34890  0.03550  0.34160  Biso   1.000  H
  C148     1.0000 0.58770  0.89276  0.92321  Biso   1.000  C
  H136     1.0000 0.63360  0.90260  0.92410  Biso   1.000  H
  C149     1.0000 0.46790  0.34464  0.40966  Biso   1.000  C
  C150     1.0000 0.95108  0.74210  0.21220  Biso   1.000  C
  C151     1.0000 0.19927  0.13192  0.28323  Biso   1.000  C
  C152     1.0000 0.51780  0.84252  0.98978  Biso   1.000  C
  O17      1.0000 0.40715  0.33066  0.40879  Biso   1.000  O
  O18      1.0000 0.95299  0.73367  0.24557  Biso   1.000  O
  O19      1.0000 0.15159  0.14355  0.25080  Biso   1.000  O
  O20      1.0000 0.58254  0.83386  0.01577  Biso   1.000  O
  O21      1.0000 0.53412  0.33741  0.43340  Biso   1.000  O
  O22      1.0000 0.90751  0.72863  0.18011  Biso   1.000  O
  O23      1.0000 0.21788  0.14733  0.31567  Biso   1.000  O
  O24      1.0000 0.45360  0.83400  0.98908  Biso   1.000  O
  N25      1.0000 0.29097  0.52159  0.19694  Biso   1.000  N
  N26      1.0000 0.40465  0.84297  0.19125  Biso   1.000  N
  N27      1.0000 0.49067  0.90101  0.33542  Biso   1.000  N
  N28      1.0000 0.56838  0.90364  0.74318  Biso   1.000  N
  N29      1.0000 0.33725  0.55072  0.21213  Biso   1.000  N
  N30      1.0000 0.44698  0.86013  0.22494  Biso   1.000  N
  N31      1.0000 0.44359  0.87700  0.30864  Biso   1.000  N
  N32      1.0000 0.50602  0.92130  0.71705  Biso   1.000  N
  C153     1.0000 0.29330  0.57672  0.21675  Biso   1.000  C
  C154     1.0000 0.51416  0.84372  0.23825  Biso   1.000  C
  C155     1.0000 0.43620  0.84925  0.32977  Biso   1.000  C
  C156     1.0000 0.48136  0.90078  0.68463  Biso   1.000  C
  C157     1.0000 0.21873  0.56403  0.20441  Biso   1.000  C
  C158     1.0000 0.51476  0.81646  0.21222  Biso   1.000  C
  C159     1.0000 0.47720  0.85567  0.36926  Biso   1.000  C
  C160     1.0000 0.53004  0.87034  0.69034  Biso   1.000  C
  C161     1.0000 0.21969  0.52858  0.19207  Biso   1.000  C
  C162     1.0000 0.44441  0.81654  0.18252  Biso   1.000  C
  C163     1.0000 0.51230  0.88924  0.37228  Biso   1.000  C
  C164     1.0000 0.58375  0.87250  0.72807  Biso   1.000  C
  C165     1.0000 0.32570  0.61404  0.23176  Biso   1.000  C
  H137     1.0000 0.33700  0.61570  0.25950  Biso   1.000  H
  H138     1.0000 0.28900  0.63290  0.21760  Biso   1.000  H
  H139     1.0000 0.37220  0.61760  0.22790  Biso   1.000  H
  C166     1.0000 0.57710  0.85572  0.27566  Biso   1.000  C
  H140     1.0000 0.57730  0.88240  0.27740  Biso   1.000  H
  H141     1.0000 0.62550  0.84740  0.27630  Biso   1.000  H
  H142     1.0000 0.56950  0.84510  0.29760  Biso   1.000  H
  C167     1.0000 0.38920  0.81663  0.30968  Biso   1.000  C
  H143     1.0000 0.33790  0.81960  0.30830  Biso   1.000  H
  H144     1.0000 0.41190  0.79440  0.32430  Biso   1.000  H
  H145     1.0000 0.38710  0.81470  0.28340  Biso   1.000  H
  C168     1.0000 0.41301  0.91098  0.65004  Biso   1.000  C
  H146     1.0000 0.37030  0.89600  0.64900  Biso   1.000  H
  H147     1.0000 0.42180  0.90680  0.62660  Biso   1.000  H
  H148     1.0000 0.40160  0.93690  0.65160  Biso   1.000  H
  C169     1.0000 0.15730  0.50078  0.17573  Biso   1.000  C
  H149     1.0000 0.14260  0.49830  0.14770  Biso   1.000  H
  H150     1.0000 0.11360  0.50880  0.18040  Biso   1.000  H
  H151     1.0000 0.17500  0.47710  0.18840  Biso   1.000  H
  C170     1.0000 0.40971  0.79332  0.14619  Biso   1.000  C
  H152     1.0000 0.36080  0.78390  0.14380  Biso   1.000  H
  H153     1.0000 0.44340  0.77280  0.14790  Biso   1.000  H
  H154     1.0000 0.40250  0.80820  0.12340  Biso   1.000  H
  C171     1.0000 0.56250  0.91076  0.40665  Biso   1.000  C
  H155     1.0000 0.61420  0.91020  0.40840  Biso   1.000  H
  H156     1.0000 0.56150  0.90020  0.43030  Biso   1.000  H
  H157     1.0000 0.54490  0.93610  0.40390  Biso   1.000  H
  C172     1.0000 0.64618  0.84727  0.75101  Biso   1.000  C
  H158     1.0000 0.69410  0.86070  0.76110  Biso   1.000  H
  H159     1.0000 0.64870  0.82730  0.73430  Biso   1.000  H
  H160     1.0000 0.63690  0.83730  0.77270  Biso   1.000  H
  C173     1.0000 0.15443  0.58452  0.20566  Biso   1.000  C
  C174     1.0000 0.58000  0.79377  0.21449  Biso   1.000  C
  C175     1.0000 0.48520  0.83058  0.40192  Biso   1.000  C
  C176     1.0000 0.52468  0.84178  0.66164  Biso   1.000  C
  C177     1.0000 0.08660  0.58870  0.17326  Biso   1.000  C
  H161     1.0000 0.08000  0.57710  0.14960  Biso   1.000  H
  C178     1.0000 0.59723  0.79056  0.18203  Biso   1.000  C
  H162     1.0000 0.56710  0.80300  0.15870  Biso   1.000  H
  C179     1.0000 0.42250  0.81542  0.40445  Biso   1.000  C
  H163     1.0000 0.37380  0.82250  0.38630  Biso   1.000  H
  C180     1.0000 0.45717  0.82349  0.64062  Biso   1.000  C
  H164     1.0000 0.41260  0.83010  0.64370  Biso   1.000  H
  C181     1.0000 0.02890  0.60941  0.17496  Biso   1.000  C
  H165     1.0000 0.98390  0.61290  0.15220  Biso   1.000  H
  C182     1.0000 0.65723  0.76955  0.18339  Biso   1.000  C
  H166     1.0000 0.66710  0.76730  0.16080  Biso   1.000  H
  C183     1.0000 0.42890  0.78965  0.43329  Biso   1.000  C
  H167     1.0000 0.38500  0.77910  0.43430  Biso   1.000  H
  C184     1.0000 0.45501  0.79550  0.61499  Biso   1.000  C
  H168     1.0000 0.40880  0.78330  0.60050  Biso   1.000  H
  C185     1.0000 0.03583  0.62517  0.20972  Biso   1.000  C
  C186     1.0000 0.70265  0.75193  0.21676  Biso   1.000  C
  C187     1.0000 0.49930  0.77985  0.46003  Biso   1.000  C
  C188     1.0000 0.51983  0.78538  0.61061  Biso   1.000  C
  C189     1.0000 0.10150  0.62072  0.24229  Biso   1.000  C
  H169     1.0000 0.10650  0.63100  0.26630  Biso   1.000  H
  C190     1.0000 0.68790  0.75513  0.25002  Biso   1.000  C
  H170     1.0000 0.71930  0.74310  0.27340  Biso   1.000  H
  C191     1.0000 0.56370  0.79569  0.45875  Biso   1.000  C
  H171     1.0000 0.61260  0.78960  0.47760  Biso   1.000  H
  C192     1.0000 0.58757  0.80395  0.63095  Biso   1.000  C
  H172     1.0000 0.63190  0.79730  0.62760  Biso   1.000  H
  C193     1.0000 0.16100  0.60101  0.23995  Biso   1.000  C
  H173     1.0000 0.20700  0.59880  0.26240  Biso   1.000  H
  C194     1.0000 0.62684  0.77603  0.24850  Biso   1.000  C
  H174     1.0000 0.61690  0.77820  0.27110  Biso   1.000  H
  C195     1.0000 0.55470  0.82069  0.42918  Biso   1.000  C
  H175     1.0000 0.59840  0.83120  0.42790  Biso   1.000  H
  C196     1.0000 0.58965  0.83211  0.65602  Biso   1.000  C
  H176     1.0000 0.63550  0.84500  0.66950  Biso   1.000  H
  C197     1.0000 0.97310  0.64860  0.21110  Biso   1.000  C
  C198     1.0000 0.76645  0.72886  0.21732  Biso   1.000  C
  C199     1.0000 0.50720  0.75146  0.48995  Biso   1.000  C
  C200     1.0000 0.51893  0.75393  0.58472  Biso   1.000  C
  O25      1.0000 0.91724  0.65452  0.17948  Biso   1.000  O
  O26      1.0000 0.76878  0.72291  0.18474  Biso   1.000  O
  O27      1.0000 0.44640  0.74022  0.49155  Biso   1.000  O
  O28      1.0000 0.58129  0.74507  0.58420  Biso   1.000  O
  O29      1.0000 0.98146  0.66079  0.24395  Biso   1.000  O
  O30      1.0000 0.81405  0.71714  0.24982  Biso   1.000  O
  O31      1.0000 0.57295  0.74032  0.51058  Biso   1.000  O
  O32      1.0000 0.45676  0.73855  0.56615  Biso   1.000  O
  Cu13     1.0000 0.90359  0.81072  0.75297  Biso   1.000  Cu
  C201     1.0000 0.32452  0.01154  0.69015  Biso   1.000  C
  H177     1.0000 0.28430  0.02930  0.67580  Biso   1.000  H
  H178     1.0000 0.35240  0.00590  0.67400  Biso   1.000  H
  C202     1.0000 0.32866  0.64410  0.66910  Biso   1.000  C
  H179     1.0000 0.30760  0.65640  0.64350  Biso   1.000  H
  H180     1.0000 0.32990  0.61750  0.66450  Biso   1.000  H
  C203     1.0000 0.51210  0.56613  0.82053  Biso   1.000  C
  H181     1.0000 0.55020  0.55240  0.84230  Biso   1.000  H
  H182     1.0000 0.53510  0.57310  0.80250  Biso   1.000  H
  C204     1.0000 0.60716  0.58096  0.28151  Biso   1.000  C
  H183     1.0000 0.61690  0.55470  0.27910  Biso   1.000  H
  H184     1.0000 0.65650  0.59330  0.29480  Biso   1.000  H
  Cu14     1.0000 0.83799  0.81124  0.67661  Biso   1.000  Cu
  Cu15     1.0000 0.59307  0.79486  0.05284  Biso   1.000  Cu
  Cu16     1.0000 0.44506  0.79910  0.02691  Biso   1.000  Cu
  Cu17     1.0000 0.45211  0.54333  0.23778  Biso   1.000  Cu
  Cu18     1.0000 0.39499  0.60782  0.75078  Biso   1.000  Cu
  N33      1.0000 0.37552  0.02745  0.72652  Biso   1.000  N
  N34      1.0000 0.28008  0.65105  0.68903  Biso   1.000  N
  N35      1.0000 0.44751  0.54320  0.80059  Biso   1.000  N
  N36      1.0000 0.56351  0.58482  0.30501  Biso   1.000  N
  N37      1.0000 0.44508  0.01144  0.74593  Biso   1.000  N
  N38      1.0000 0.28859  0.62974  0.72021  Biso   1.000  N
  N39      1.0000 0.39493  0.55469  0.76572  Biso   1.000  N
  N40      1.0000 0.49744  0.56591  0.29386  Biso   1.000  N
  C205     1.0000 0.47767  0.02951  0.77975  Biso   1.000  C
  C206     1.0000 0.23411  0.64029  0.73086  Biso   1.000  C
  C207     1.0000 0.34022  0.52948  0.75458  Biso   1.000  C
  C208     1.0000 0.47520  0.57140  0.32265  Biso   1.000  C
  C209     1.0000 0.42690  0.05650  0.78259  Biso   1.000  C
  C210     1.0000 0.18955  0.66813  0.70645  Biso   1.000  C
  C211     1.0000 0.35878  0.50152  0.78299  Biso   1.000  C
  C212     1.0000 0.52690  0.59308  0.35200  Biso   1.000  C
  C213     1.0000 0.36301  0.05438  0.74784  Biso   1.000  C
  C214     1.0000 0.22136  0.67468  0.67993  Biso   1.000  C
  C215     1.0000 0.42829  0.51123  0.81193  Biso   1.000  C
  C216     1.0000 0.58380  0.60135  0.34002  Biso   1.000  C
  C217     1.0000 0.55511  0.01997  0.80778  Biso   1.000  C
  H185     1.0000 0.59020  0.03930  0.80790  Biso   1.000  H
  H186     1.0000 0.55600  0.01750  0.83380  Biso   1.000  H
  H187     1.0000 0.57030  0.99680  0.80010  Biso   1.000  H
  C218     1.0000 0.22550  0.62119  0.76447  Biso   1.000  C
  H188     1.0000 0.24550  0.63690  0.78750  Biso   1.000  H
  H189     1.0000 0.17190  0.61630  0.75760  Biso   1.000  H
  H190     1.0000 0.25340  0.59810  0.77000  Biso   1.000  H
  C219     1.0000 0.27245  0.53394  0.71741  Biso   1.000  C
  H191     1.0000 0.27610  0.51740  0.69780  Biso   1.000  H
  H192     1.0000 0.22700  0.52810  0.72150  Biso   1.000  H
  H193     1.0000 0.26960  0.55920  0.70840  Biso   1.000  H
  C220     1.0000 0.40340  0.55287  0.31998  Biso   1.000  C
  H194     1.0000 0.39120  0.53260  0.30140  Biso   1.000  H
  H195     1.0000 0.41080  0.54340  0.34560  Biso   1.000  H
  H196     1.0000 0.36190  0.57060  0.31120  Biso   1.000  H
  C221     1.0000 0.29215  0.07629  0.73191  Biso   1.000  C
  H197     1.0000 0.25220  0.06320  0.73620  Biso   1.000  H
  H198     1.0000 0.30090  0.10010  0.74500  Biso   1.000  H
  H199     1.0000 0.27670  0.08000  0.70400  Biso   1.000  H
  C222     1.0000 0.20270  0.70190  0.64787  Biso   1.000  C
  H200     1.0000 0.17920  0.68940  0.62280  Biso   1.000  H
  H201     1.0000 0.16760  0.72010  0.65000  Biso   1.000  H
  H202     1.0000 0.24900  0.71410  0.64980  Biso   1.000  H
  C223     1.0000 0.47808  0.49250  0.84803  Biso   1.000  C
  H203     1.0000 0.46740  0.50140  0.86970  Biso   1.000  H
  H204     1.0000 0.46900  0.46610  0.84510  Biso   1.000  H
  H205     1.0000 0.53090  0.49750  0.85320  Biso   1.000  H
  C224     1.0000 0.65070  0.62410  0.35734  Biso   1.000  C
  H206     1.0000 0.64980  0.64310  0.33880  Biso   1.000  H
  H207     1.0000 0.65160  0.63560  0.38100  Biso   1.000  H
  H208     1.0000 0.69590  0.60900  0.36390  Biso   1.000  H
  C225     1.0000 0.43876  0.08101  0.81567  Biso   1.000  C
  C226     1.0000 0.12490  0.68758  0.70819  Biso   1.000  C
  C227     1.0000 0.31513  0.46824  0.78261  Biso   1.000  C
  C228     1.0000 0.52260  0.60568  0.38838  Biso   1.000  C
  C229     1.0000 0.51011  0.09397  0.83998  Biso   1.000  C
  H209     1.0000 0.55270  0.08680  0.83530  Biso   1.000  H
  C230     1.0000 0.12540  0.69848  0.74381  Biso   1.000  C
  H210     1.0000 0.16580  0.69120  0.76720  Biso   1.000  H
  C231     1.0000 0.26805  0.45145  0.74758  Biso   1.000  C
  H211     1.0000 0.26250  0.46200  0.72360  Biso   1.000  H
  C232     1.0000 0.45540  0.61833  0.38840  Biso   1.000  C
  H212     1.0000 0.41050  0.61690  0.36530  Biso   1.000  H
  C233     1.0000 0.52017  0.11703  0.87084  Biso   1.000  C
  H213     1.0000 0.56940  0.12510  0.88740  Biso   1.000  H
  C234     1.0000 0.06750  0.71985  0.74545  Biso   1.000  C
  H214     1.0000 0.06830  0.72690  0.76980  Biso   1.000  H
  C235     1.0000 0.22954  0.41957  0.74776  Biso   1.000  C
  H215     1.0000 0.19700  0.40870  0.72390  Biso   1.000  H
  C236     1.0000 0.45260  0.63321  0.42210  Biso   1.000  C
  H216     1.0000 0.40580  0.64110  0.42180  Biso   1.000  H
  C237     1.0000 0.45838  0.12842  0.87753  Biso   1.000  C
  C238     1.0000 0.00800  0.73099  0.71099  Biso   1.000  C
  C239     1.0000 0.23850  0.40344  0.78304  Biso   1.000  C
  C240     1.0000 0.51810  0.63632  0.45573  Biso   1.000  C
  C241     1.0000 0.38622  0.11550  0.85369  Biso   1.000  C
  H217     1.0000 0.34360  0.12310  0.85810  Biso   1.000  H
  C242     1.0000 0.00575  0.71871  0.67580  Biso   1.000  C
  H218     1.0000 0.96470  0.72530  0.65230  Biso   1.000  H
  C243     1.0000 0.28291  0.42000  0.81708  Biso   1.000  C
  H219     1.0000 0.28860  0.40910  0.84090  Biso   1.000  H
  C244     1.0000 0.58640  0.62268  0.45617  Biso   1.000  C
  H220     1.0000 0.63140  0.62420  0.47920  Biso   1.000  H
  C245     1.0000 0.37748  0.09167  0.82387  Biso   1.000  C
  H221     1.0000 0.32870  0.08220  0.80850  Biso   1.000  H
  C246     1.0000 0.06260  0.69698  0.67482  Biso   1.000  C
  H222     1.0000 0.05910  0.68810  0.65050  Biso   1.000  H
  C247     1.0000 0.32016  0.45270  0.81763  Biso   1.000  C
  H223     1.0000 0.34890  0.46450  0.84160  Biso   1.000  H
  C248     1.0000 0.58770  0.60724  0.42321  Biso   1.000  C
  H224     1.0000 0.63360  0.59740  0.42410  Biso   1.000  H
  C249     1.0000 0.46790  0.15536  0.90966  Biso   1.000  C
  C250     1.0000 0.95108  0.75790  0.71220  Biso   1.000  C
  C251     1.0000 0.19927  0.36808  0.78323  Biso   1.000  C
  C252     1.0000 0.51780  0.65748  0.48978  Biso   1.000  C
  O33      1.0000 0.40715  0.16934  0.90879  Biso   1.000  O
  O34      1.0000 0.95299  0.76633  0.74557  Biso   1.000  O
  O35      1.0000 0.15159  0.35645  0.75080  Biso   1.000  O
  O36      1.0000 0.58254  0.66614  0.51577  Biso   1.000  O
  O37      1.0000 0.53412  0.16259  0.93340  Biso   1.000  O
  O38      1.0000 0.90751  0.77137  0.68011  Biso   1.000  O
  O39      1.0000 0.21788  0.35267  0.81567  Biso   1.000  O
  O40      1.0000 0.45360  0.66600  0.48908  Biso   1.000  O
  N41      1.0000 0.29097  0.97841  0.69694  Biso   1.000  N
  N42      1.0000 0.40465  0.65703  0.69125  Biso   1.000  N
  N43      1.0000 0.49067  0.59899  0.83542  Biso   1.000  N
  N44      1.0000 0.56838  0.59636  0.24318  Biso   1.000  N
  N45      1.0000 0.33725  0.94928  0.71213  Biso   1.000  N
  N46      1.0000 0.44698  0.63987  0.72494  Biso   1.000  N
  N47      1.0000 0.44359  0.62300  0.80864  Biso   1.000  N
  N48      1.0000 0.50602  0.57870  0.21705  Biso   1.000  N
  C253     1.0000 0.29330  0.92328  0.71675  Biso   1.000  C
  C254     1.0000 0.51416  0.65628  0.73825  Biso   1.000  C
  C255     1.0000 0.43620  0.65075  0.82977  Biso   1.000  C
  C256     1.0000 0.48136  0.59922  0.18463  Biso   1.000  C
  C257     1.0000 0.21873  0.93597  0.70441  Biso   1.000  C
  C258     1.0000 0.51476  0.68354  0.71222  Biso   1.000  C
  C259     1.0000 0.47720  0.64433  0.86926  Biso   1.000  C
  C260     1.0000 0.53004  0.62966  0.19034  Biso   1.000  C
  C261     1.0000 0.21969  0.97142  0.69207  Biso   1.000  C
  C262     1.0000 0.44441  0.68346  0.68252  Biso   1.000  C
  C263     1.0000 0.51230  0.61076  0.87228  Biso   1.000  C
  C264     1.0000 0.58375  0.62750  0.22807  Biso   1.000  C
  C265     1.0000 0.32570  0.88596  0.73176  Biso   1.000  C
  H225     1.0000 0.33700  0.88430  0.75950  Biso   1.000  H
  H226     1.0000 0.28900  0.86710  0.71760  Biso   1.000  H
  H227     1.0000 0.37220  0.88240  0.72790  Biso   1.000  H
  C266     1.0000 0.57710  0.64428  0.77566  Biso   1.000  C
  H228     1.0000 0.57730  0.61760  0.77740  Biso   1.000  H
  H229     1.0000 0.62550  0.65260  0.77630  Biso   1.000  H
  H230     1.0000 0.56950  0.65490  0.79760  Biso   1.000  H
  C267     1.0000 0.38920  0.68337  0.80968  Biso   1.000  C
  H231     1.0000 0.33790  0.68040  0.80830  Biso   1.000  H
  H232     1.0000 0.41190  0.70560  0.82430  Biso   1.000  H
  H233     1.0000 0.38710  0.68530  0.78340  Biso   1.000  H
  C268     1.0000 0.41301  0.58902  0.15004  Biso   1.000  C
  H234     1.0000 0.37030  0.60400  0.14900  Biso   1.000  H
  H235     1.0000 0.42180  0.59320  0.12660  Biso   1.000  H
  H236     1.0000 0.40160  0.56310  0.15160  Biso   1.000  H
  C269     1.0000 0.15730  0.99922  0.67573  Biso   1.000  C
  H237     1.0000 0.14260  0.00170  0.64770  Biso   1.000  H
  H238     1.0000 0.11360  0.99120  0.68040  Biso   1.000  H
  H239     1.0000 0.17500  0.02290  0.68840  Biso   1.000  H
  C270     1.0000 0.40971  0.70668  0.64619  Biso   1.000  C
  H240     1.0000 0.36080  0.71610  0.64380  Biso   1.000  H
  H241     1.0000 0.44340  0.72720  0.64790  Biso   1.000  H
  H242     1.0000 0.40250  0.69180  0.62340  Biso   1.000  H
  C271     1.0000 0.56250  0.58924  0.90665  Biso   1.000  C
  H243     1.0000 0.61420  0.58980  0.90840  Biso   1.000  H
  H244     1.0000 0.56150  0.59980  0.93030  Biso   1.000  H
  H245     1.0000 0.54490  0.56390  0.90390  Biso   1.000  H
  C272     1.0000 0.64618  0.65273  0.25101  Biso   1.000  C
  H246     1.0000 0.69410  0.63930  0.26110  Biso   1.000  H
  H247     1.0000 0.64870  0.67270  0.23430  Biso   1.000  H
  H248     1.0000 0.63690  0.66270  0.27270  Biso   1.000  H
  C273     1.0000 0.15443  0.91548  0.70566  Biso   1.000  C
  C274     1.0000 0.58000  0.70623  0.71449  Biso   1.000  C
  C275     1.0000 0.48520  0.66942  0.90192  Biso   1.000  C
  C276     1.0000 0.52468  0.65822  0.16164  Biso   1.000  C
  C277     1.0000 0.08660  0.91130  0.67326  Biso   1.000  C
  H249     1.0000 0.08000  0.92290  0.64960  Biso   1.000  H
  C278     1.0000 0.59723  0.70944  0.68203  Biso   1.000  C
  H250     1.0000 0.56710  0.69700  0.65870  Biso   1.000  H
  C279     1.0000 0.42250  0.68458  0.90445  Biso   1.000  C
  H251     1.0000 0.37380  0.67750  0.88630  Biso   1.000  H
  C280     1.0000 0.45717  0.67651  0.14062  Biso   1.000  C
  H252     1.0000 0.41260  0.66990  0.14370  Biso   1.000  H
  C281     1.0000 0.02890  0.89059  0.67496  Biso   1.000  C
  H253     1.0000 0.98390  0.88710  0.65220  Biso   1.000  H
  C282     1.0000 0.65723  0.73045  0.68339  Biso   1.000  C
  H254     1.0000 0.66710  0.73270  0.66080  Biso   1.000  H
  C283     1.0000 0.42890  0.71035  0.93329  Biso   1.000  C
  H255     1.0000 0.38500  0.72090  0.93430  Biso   1.000  H
  C284     1.0000 0.45501  0.70450  0.11499  Biso   1.000  C
  H256     1.0000 0.40880  0.71670  0.10050  Biso   1.000  H
  C285     1.0000 0.03583  0.87483  0.70972  Biso   1.000  C
  C286     1.0000 0.70265  0.74807  0.71676  Biso   1.000  C
  C287     1.0000 0.49930  0.72015  0.96003  Biso   1.000  C
  C288     1.0000 0.51983  0.71462  0.11061  Biso   1.000  C
  C289     1.0000 0.10150  0.87928  0.74229  Biso   1.000  C
  H257     1.0000 0.10650  0.86900  0.76630  Biso   1.000  H
  C290     1.0000 0.68790  0.74487  0.75002  Biso   1.000  C
  H258     1.0000 0.71930  0.75690  0.77340  Biso   1.000  H
  C291     1.0000 0.56370  0.70431  0.95875  Biso   1.000  C
  H259     1.0000 0.61260  0.71040  0.97760  Biso   1.000  H
  C292     1.0000 0.58757  0.69605  0.13095  Biso   1.000  C
  H260     1.0000 0.63190  0.70270  0.12760  Biso   1.000  H
  C293     1.0000 0.16100  0.89899  0.73995  Biso   1.000  C
  H261     1.0000 0.20700  0.90120  0.76240  Biso   1.000  H
  C294     1.0000 0.62684  0.72397  0.74850  Biso   1.000  C
  H262     1.0000 0.61690  0.72180  0.77110  Biso   1.000  H
  C295     1.0000 0.55470  0.67931  0.92918  Biso   1.000  C
  H263     1.0000 0.59840  0.66880  0.92790  Biso   1.000  H
  C296     1.0000 0.58965  0.66789  0.15602  Biso   1.000  C
  H264     1.0000 0.63550  0.65500  0.16950  Biso   1.000  H
  C297     1.0000 0.97310  0.85140  0.71110  Biso   1.000  C
  C298     1.0000 0.76645  0.77114  0.71732  Biso   1.000  C
  C299     1.0000 0.50720  0.74854  0.98995  Biso   1.000  C
  C300     1.0000 0.51893  0.74607  0.08472  Biso   1.000  C
  O41      1.0000 0.91724  0.84548  0.67948  Biso   1.000  O
  O42      1.0000 0.76878  0.77709  0.68474  Biso   1.000  O
  O43      1.0000 0.44640  0.75978  0.99155  Biso   1.000  O
  O44      1.0000 0.58129  0.75493  0.08420  Biso   1.000  O
  O45      1.0000 0.98146  0.83921  0.74395  Biso   1.000  O
  O46      1.0000 0.81405  0.78286  0.74982  Biso   1.000  O
  O47      1.0000 0.57295  0.75968  0.01058  Biso   1.000  O
  O48      1.0000 0.45676  0.76145  0.06615  Biso   1.000  O
  Cu19     1.0000 0.09641  0.31072  0.74703  Biso   1.000  Cu
  C301     1.0000 0.67548  0.51154  0.80985  Biso   1.000  C
  H265     1.0000 0.71570  0.52930  0.82420  Biso   1.000  H
  H266     1.0000 0.64760  0.50590  0.82600  Biso   1.000  H
  C302     1.0000 0.67134  0.14410  0.83090  Biso   1.000  C
  H267     1.0000 0.69240  0.15640  0.85650  Biso   1.000  H
  H268     1.0000 0.67010  0.11750  0.83550  Biso   1.000  H
  C303     1.0000 0.48790  0.06613  0.67947  Biso   1.000  C
  H269     1.0000 0.44980  0.05240  0.65770  Biso   1.000  H
  H270     1.0000 0.46490  0.07310  0.69750  Biso   1.000  H
  C304     1.0000 0.39284  0.08096  0.21849  Biso   1.000  C
  H271     1.0000 0.38310  0.05470  0.22090  Biso   1.000  H
  H272     1.0000 0.34350  0.09330  0.20520  Biso   1.000  H
  Cu20     1.0000 0.16201  0.31124  0.82339  Biso   1.000  Cu
  Cu21     1.0000 0.40693  0.29486  0.44716  Biso   1.000  Cu
  Cu22     1.0000 0.55494  0.29910  0.47309  Biso   1.000  Cu
  Cu23     1.0000 0.54789  0.04333  0.26222  Biso   1.000  Cu
  Cu24     1.0000 0.60501  0.10782  0.74922  Biso   1.000  Cu
  N49      1.0000 0.62448  0.52745  0.77348  Biso   1.000  N
  N50      1.0000 0.71992  0.15105  0.81097  Biso   1.000  N
  N51      1.0000 0.55249  0.04320  0.69941  Biso   1.000  N
  N52      1.0000 0.43649  0.08482  0.19499  Biso   1.000  N
  N53      1.0000 0.55492  0.51144  0.75407  Biso   1.000  N
  N54      1.0000 0.71141  0.12974  0.77979  Biso   1.000  N
  N55      1.0000 0.60507  0.05469  0.73428  Biso   1.000  N
  N56      1.0000 0.50256  0.06591  0.20614  Biso   1.000  N
  C305     1.0000 0.52233  0.52951  0.72025  Biso   1.000  C
  C306     1.0000 0.76589  0.14029  0.76914  Biso   1.000  C
  C307     1.0000 0.65978  0.02948  0.74542  Biso   1.000  C
  C308     1.0000 0.52480  0.07140  0.17735  Biso   1.000  C
  C309     1.0000 0.57310  0.55650  0.71741  Biso   1.000  C
  C310     1.0000 0.81045  0.16813  0.79355  Biso   1.000  C
  C311     1.0000 0.64122  0.00152  0.71701  Biso   1.000  C
  C312     1.0000 0.47310  0.09308  0.14800  Biso   1.000  C
  C313     1.0000 0.63699  0.55438  0.75216  Biso   1.000  C
  C314     1.0000 0.77864  0.17468  0.82007  Biso   1.000  C
  C315     1.0000 0.57171  0.01123  0.68807  Biso   1.000  C
  C316     1.0000 0.41620  0.10135  0.15998  Biso   1.000  C
  C317     1.0000 0.44489  0.51997  0.69222  Biso   1.000  C
  H273     1.0000 0.40980  0.53930  0.69210  Biso   1.000  H
  H274     1.0000 0.44400  0.51750  0.66620  Biso   1.000  H
  H275     1.0000 0.42970  0.49680  0.69990  Biso   1.000  H
  C318     1.0000 0.77450  0.12119  0.73553  Biso   1.000  C
  H276     1.0000 0.75450  0.13690  0.71250  Biso   1.000  H
  H277     1.0000 0.82810  0.11630  0.74240  Biso   1.000  H
  H278     1.0000 0.74660  0.09810  0.73000  Biso   1.000  H
  C319     1.0000 0.72755  0.03394  0.78259  Biso   1.000  C
  H279     1.0000 0.72390  0.01740  0.80220  Biso   1.000  H
  H280     1.0000 0.77300  0.02810  0.77850  Biso   1.000  H
  H281     1.0000 0.73040  0.05920  0.79160  Biso   1.000  H
  C320     1.0000 0.59660  0.05287  0.18002  Biso   1.000  C
  H282     1.0000 0.60880  0.03260  0.19860  Biso   1.000  H
  H283     1.0000 0.58920  0.04340  0.15440  Biso   1.000  H
  H284     1.0000 0.63810  0.07060  0.18880  Biso   1.000  H
  C321     1.0000 0.70785  0.57629  0.76809  Biso   1.000  C
  H285     1.0000 0.74780  0.56320  0.76380  Biso   1.000  H
  H286     1.0000 0.69910  0.60010  0.75500  Biso   1.000  H
  H287     1.0000 0.72330  0.58000  0.79600  Biso   1.000  H
  C322     1.0000 0.79730  0.20190  0.85213  Biso   1.000  C
  H288     1.0000 0.82080  0.18940  0.87720  Biso   1.000  H
  H289     1.0000 0.83240  0.22010  0.85000  Biso   1.000  H
  H290     1.0000 0.75100  0.21410  0.85020  Biso   1.000  H
  C323     1.0000 0.52192  0.99250  0.65197  Biso   1.000  C
  H291     1.0000 0.53260  0.00140  0.63030  Biso   1.000  H
  H292     1.0000 0.53100  0.96610  0.65490  Biso   1.000  H
  H293     1.0000 0.46910  0.99750  0.64680  Biso   1.000  H
  C324     1.0000 0.34930  0.12410  0.14266  Biso   1.000  C
  H294     1.0000 0.35020  0.14310  0.16120  Biso   1.000  H
  H295     1.0000 0.34840  0.13560  0.11900  Biso   1.000  H
  H296     1.0000 0.30410  0.10900  0.13610  Biso   1.000  H
  C325     1.0000 0.56124  0.58101  0.68433  Biso   1.000  C
  C326     1.0000 0.87510  0.18758  0.79181  Biso   1.000  C
  C327     1.0000 0.68487  0.96824  0.71739  Biso   1.000  C
  C328     1.0000 0.47740  0.10568  0.11162  Biso   1.000  C
  C329     1.0000 0.48989  0.59397  0.66002  Biso   1.000  C
  H297     1.0000 0.44730  0.58680  0.66470  Biso   1.000  H
  C330     1.0000 0.87460  0.19848  0.75619  Biso   1.000  C
  H298     1.0000 0.83420  0.19120  0.73280  Biso   1.000  H
  C331     1.0000 0.73195  0.95145  0.75242  Biso   1.000  C
  H299     1.0000 0.73750  0.96200  0.77640  Biso   1.000  H
  C332     1.0000 0.54460  0.11833  0.11160  Biso   1.000  C
  H300     1.0000 0.58950  0.11690  0.13470  Biso   1.000  H
  C333     1.0000 0.47983  0.61703  0.62916  Biso   1.000  C
  H301     1.0000 0.43060  0.62510  0.61260  Biso   1.000  H
  C334     1.0000 0.93250  0.21985  0.75455  Biso   1.000  C
  H302     1.0000 0.93170  0.22690  0.73020  Biso   1.000  H
  C335     1.0000 0.77046  0.91957  0.75224  Biso   1.000  C
  H303     1.0000 0.80300  0.90870  0.77610  Biso   1.000  H
  C336     1.0000 0.54740  0.13321  0.07790  Biso   1.000  C
  H304     1.0000 0.59420  0.14110  0.07820  Biso   1.000  H
  C337     1.0000 0.54162  0.62842  0.62247  Biso   1.000  C
  C338     1.0000 0.99200  0.23099  0.78901  Biso   1.000  C
  C339     1.0000 0.76150  0.90344  0.71696  Biso   1.000  C
  C340     1.0000 0.48190  0.13632  0.04427  Biso   1.000  C
  C341     1.0000 0.61378  0.61550  0.64631  Biso   1.000  C
  H305     1.0000 0.65640  0.62310  0.64190  Biso   1.000  H
  C342     1.0000 0.99425  0.21871  0.82420  Biso   1.000  C
  H306     1.0000 0.03530  0.22530  0.84770  Biso   1.000  H
  C343     1.0000 0.71709  0.92000  0.68292  Biso   1.000  C
  H307     1.0000 0.71140  0.90910  0.65910  Biso   1.000  H
  C344     1.0000 0.41360  0.12268  0.04383  Biso   1.000  C
  H308     1.0000 0.36860  0.12420  0.02080  Biso   1.000  H
  C345     1.0000 0.62252  0.59167  0.67613  Biso   1.000  C
  H309     1.0000 0.67130  0.58220  0.69150  Biso   1.000  H
  C346     1.0000 0.93740  0.19698  0.82518  Biso   1.000  C
  H310     1.0000 0.94090  0.18810  0.84950  Biso   1.000  H
  C347     1.0000 0.67984  0.95270  0.68237  Biso   1.000  C
  H311     1.0000 0.65110  0.96450  0.65840  Biso   1.000  H
  C348     1.0000 0.41230  0.10724  0.07679  Biso   1.000  C
  H312     1.0000 0.36640  0.09740  0.07590  Biso   1.000  H
  C349     1.0000 0.53210  0.65536  0.59034  Biso   1.000  C
  C350     1.0000 0.04892  0.25790  0.78780  Biso   1.000  C
  C351     1.0000 0.80073  0.86808  0.71677  Biso   1.000  C
  C352     1.0000 0.48220  0.15748  0.01022  Biso   1.000  C
  O49      1.0000 0.59285  0.66934  0.59121  Biso   1.000  O
  O50      1.0000 0.04701  0.26633  0.75443  Biso   1.000  O
  O51      1.0000 0.84841  0.85645  0.74920  Biso   1.000  O
  O52      1.0000 0.41746  0.16614  0.98423  Biso   1.000  O
  O53      1.0000 0.46588  0.66259  0.56660  Biso   1.000  O
  O54      1.0000 0.09249  0.27137  0.81989  Biso   1.000  O
  O55      1.0000 0.78212  0.85267  0.68433  Biso   1.000  O
  O56      1.0000 0.54640  0.16600  0.01092  Biso   1.000  O
  N57      1.0000 0.70903  0.47841  0.80306  Biso   1.000  N
  N58      1.0000 0.59535  0.15703  0.80875  Biso   1.000  N
  N59      1.0000 0.50933  0.09899  0.66458  Biso   1.000  N
  N60      1.0000 0.43162  0.09636  0.25682  Biso   1.000  N
  N61      1.0000 0.66275  0.44928  0.78787  Biso   1.000  N
  N62      1.0000 0.55302  0.13987  0.77506  Biso   1.000  N
  N63      1.0000 0.55641  0.12300  0.69136  Biso   1.000  N
  N64      1.0000 0.49398  0.07870  0.28295  Biso   1.000  N
  C353     1.0000 0.70670  0.42328  0.78325  Biso   1.000  C
  C354     1.0000 0.48584  0.15628  0.76175  Biso   1.000  C
  C355     1.0000 0.56380  0.15075  0.67023  Biso   1.000  C
  C356     1.0000 0.51864  0.09922  0.31537  Biso   1.000  C
  C357     1.0000 0.78127  0.43597  0.79559  Biso   1.000  C
  C358     1.0000 0.48524  0.18354  0.78778  Biso   1.000  C
  C359     1.0000 0.52280  0.14433  0.63074  Biso   1.000  C
  C360     1.0000 0.46996  0.12966  0.30966  Biso   1.000  C
  C361     1.0000 0.78031  0.47142  0.80793  Biso   1.000  C
  C362     1.0000 0.55559  0.18346  0.81748  Biso   1.000  C
  C363     1.0000 0.48770  0.11076  0.62772  Biso   1.000  C
  C364     1.0000 0.41625  0.12750  0.27193  Biso   1.000  C
  C365     1.0000 0.67430  0.38596  0.76824  Biso   1.000  C
  H313     1.0000 0.66300  0.38430  0.74050  Biso   1.000  H
  H314     1.0000 0.71100  0.36710  0.78240  Biso   1.000  H
  H315     1.0000 0.62780  0.38240  0.77210  Biso   1.000  H
  C366     1.0000 0.42290  0.14428  0.72434  Biso   1.000  C
  H316     1.0000 0.42270  0.11760  0.72260  Biso   1.000  H
  H317     1.0000 0.37450  0.15260  0.72370  Biso   1.000  H
  H318     1.0000 0.43050  0.15490  0.70240  Biso   1.000  H
  C367     1.0000 0.61080  0.18337  0.69032  Biso   1.000  C
  H319     1.0000 0.66210  0.18040  0.69170  Biso   1.000  H
  H320     1.0000 0.58810  0.20560  0.67570  Biso   1.000  H
  H321     1.0000 0.61290  0.18530  0.71660  Biso   1.000  H
  C368     1.0000 0.58699  0.08902  0.34996  Biso   1.000  C
  H322     1.0000 0.62970  0.10400  0.35100  Biso   1.000  H
  H323     1.0000 0.57820  0.09320  0.37340  Biso   1.000  H
  H324     1.0000 0.59840  0.06310  0.34840  Biso   1.000  H
  C369     1.0000 0.84270  0.49922  0.82427  Biso   1.000  C
  H325     1.0000 0.85740  0.50170  0.85230  Biso   1.000  H
  H326     1.0000 0.88640  0.49120  0.81960  Biso   1.000  H
  H327     1.0000 0.82500  0.52290  0.81160  Biso   1.000  H
  C370     1.0000 0.59029  0.20668  0.85381  Biso   1.000  C
  H328     1.0000 0.63920  0.21610  0.85620  Biso   1.000  H
  H329     1.0000 0.55660  0.22720  0.85210  Biso   1.000  H
  H330     1.0000 0.59750  0.19180  0.87660  Biso   1.000  H
  C371     1.0000 0.43750  0.08924  0.59335  Biso   1.000  C
  H331     1.0000 0.38580  0.08980  0.59160  Biso   1.000  H
  H332     1.0000 0.43850  0.09980  0.56970  Biso   1.000  H
  H333     1.0000 0.45510  0.06390  0.59610  Biso   1.000  H
  C372     1.0000 0.35382  0.15273  0.24899  Biso   1.000  C
  H334     1.0000 0.30590  0.13930  0.23890  Biso   1.000  H
  H335     1.0000 0.35130  0.17270  0.26570  Biso   1.000  H
  H336     1.0000 0.36310  0.16270  0.22730  Biso   1.000  H
  C373     1.0000 0.84557  0.41548  0.79434  Biso   1.000  C
  C374     1.0000 0.42000  0.20623  0.78551  Biso   1.000  C
  C375     1.0000 0.51480  0.16942  0.59808  Biso   1.000  C
  C376     1.0000 0.47532  0.15822  0.33836  Biso   1.000  C
  C377     1.0000 0.91340  0.41130  0.82674  Biso   1.000  C
  H337     1.0000 0.92000  0.42290  0.85040  Biso   1.000  H
  C378     1.0000 0.40277  0.20944  0.81797  Biso   1.000  C
  H338     1.0000 0.43290  0.19700  0.84130  Biso   1.000  H
  C379     1.0000 0.57750  0.18458  0.59555  Biso   1.000  C
  H339     1.0000 0.62620  0.17750  0.61370  Biso   1.000  H
  C380     1.0000 0.54283  0.17651  0.35938  Biso   1.000  C
  H340     1.0000 0.58740  0.16990  0.35630  Biso   1.000  H
  C381     1.0000 0.97110  0.39059  0.82504  Biso   1.000  C
  H341     1.0000 0.01610  0.38710  0.84780  Biso   1.000  H
  C382     1.0000 0.34277  0.23045  0.81661  Biso   1.000  C
  H342     1.0000 0.33290  0.23270  0.83920  Biso   1.000  H
  C383     1.0000 0.57110  0.21035  0.56671  Biso   1.000  C
  H343     1.0000 0.61500  0.22090  0.56570  Biso   1.000  H
  C384     1.0000 0.54499  0.20450  0.38501  Biso   1.000  C
  H344     1.0000 0.59120  0.21670  0.39950  Biso   1.000  H
  C385     1.0000 0.96417  0.37483  0.79028  Biso   1.000  C
  C386     1.0000 0.29735  0.24807  0.78324  Biso   1.000  C
  C387     1.0000 0.50070  0.22015  0.53997  Biso   1.000  C
  C388     1.0000 0.48017  0.21462  0.38939  Biso   1.000  C
  C389     1.0000 0.89850  0.37928  0.75771  Biso   1.000  C
  H345     1.0000 0.89350  0.36900  0.73370  Biso   1.000  H
  C390     1.0000 0.31210  0.24487  0.74998  Biso   1.000  C
  H346     1.0000 0.28070  0.25690  0.72660  Biso   1.000  H
  C391     1.0000 0.43630  0.20431  0.54125  Biso   1.000  C
  H347     1.0000 0.38740  0.21040  0.52240  Biso   1.000  H
  C392     1.0000 0.41243  0.19605  0.36905  Biso   1.000  C
  H348     1.0000 0.36810  0.20270  0.37240  Biso   1.000  H
  C393     1.0000 0.83900  0.39899  0.76005  Biso   1.000  C
  H349     1.0000 0.79300  0.40120  0.73760  Biso   1.000  H
  C394     1.0000 0.37316  0.22397  0.75150  Biso   1.000  C
  H350     1.0000 0.38310  0.22180  0.72890  Biso   1.000  H
  C395     1.0000 0.44530  0.17931  0.57082  Biso   1.000  C
  H351     1.0000 0.40160  0.16880  0.57210  Biso   1.000  H
  C396     1.0000 0.41035  0.16789  0.34398  Biso   1.000  C
  H352     1.0000 0.36450  0.15500  0.33050  Biso   1.000  H
  C397     1.0000 0.02690  0.35140  0.78890  Biso   1.000  C
  C398     1.0000 0.23355  0.27114  0.78268  Biso   1.000  C
  C399     1.0000 0.49280  0.24854  0.51005  Biso   1.000  C
  C400     1.0000 0.48107  0.24607  0.41528  Biso   1.000  C
  O57      1.0000 0.08276  0.34548  0.82052  Biso   1.000  O
  O58      1.0000 0.23122  0.27709  0.81526  Biso   1.000  O
  O59      1.0000 0.55360  0.25978  0.50845  Biso   1.000  O
  O60      1.0000 0.41871  0.25493  0.41580  Biso   1.000  O
  O61      1.0000 0.01854  0.33921  0.75605  Biso   1.000  O
  O62      1.0000 0.18595  0.28286  0.75018  Biso   1.000  O
  O63      1.0000 0.42705  0.25968  0.48942  Biso   1.000  O
  O64      1.0000 0.54324  0.26145  0.43385  Biso   1.000  O
