data_image0
_cell_length_a       15.3745
_cell_length_b       23.4023
_cell_length_c       25.3443
_cell_angle_alpha    90
_cell_angle_beta     90
_cell_angle_gamma    90

_symmetry_space_group_name_H-M    "P 1"
_symmetry_int_tables_number       1

loop_
  _symmetry_equiv_pos_as_xyz
  'x, y, z'

loop_
  _atom_site_label
  _atom_site_occupancy
  _atom_site_fract_x
  _atom_site_fract_y
  _atom_site_fract_z
  _atom_site_thermal_displace_type
  _atom_site_B_iso_or_equiv
  _atom_site_type_symbol
  Br1      1.0000 0.39305  0.62701  0.76485  Biso   1.000  Br
  C1       1.0000 0.34590  0.55330  0.75210  Biso   1.000  C
  C2       1.0000 0.25800  0.55260  0.74290  Biso   1.000  C
  C3       1.0000 0.40070  0.50540  0.75900  Biso   1.000  C
  C4       1.0000 0.19960  0.60430  0.74060  Biso   1.000  C
  N1       1.0000 0.20840  0.50410  0.73860  Biso   1.000  N
  C5       1.0000 0.49080  0.50420  0.78410  Biso   1.000  C
  N2       1.0000 0.37350  0.45230  0.74980  Biso   1.000  N
  C6       1.0000 0.11650  0.57860  0.76850  Biso   1.000  C
  H1       1.0000 0.22440  0.63630  0.76200  Biso   1.000  H
  C7       1.0000 0.18010  0.62420  0.68450  Biso   1.000  C
  C8       1.0000 0.12190  0.51710  0.74920  Biso   1.000  C
  Co1      1.0000 0.25556  0.42933  0.73348  Biso   1.000  Co
  C9       1.0000 0.52580  0.44750  0.76180  Biso   1.000  C
  C10      1.0000 0.55620  0.55270  0.77760  Biso   1.000  C
  C11      1.0000 0.47520  0.49580  0.84450  Biso   1.000  C
  C12      1.0000 0.44160  0.41230  0.75410  Biso   1.000  C
  C13      1.0000 0.13180  0.57660  0.82970  Biso   1.000  C
  C14      1.0000 0.03380  0.61320  0.75510  Biso   1.000  C
  H2       1.0000 0.14490  0.59450  0.66670  Biso   1.000  H
  H3       1.0000 0.14430  0.65930  0.68650  Biso   1.000  H
  C15      1.0000 0.25920  0.63660  0.65080  Biso   1.000  C
  C16      1.0000 0.05520  0.47840  0.74610  Biso   1.000  C
  N3       1.0000 0.14280  0.39880  0.71830  Biso   1.000  N
  N4       1.0000 0.22770  0.42390  0.80810  Biso   1.000  N
  N5       1.0000 0.28760  0.35150  0.73160  Biso   1.000  N
  N6       1.0000 0.28150  0.44230  0.65810  Biso   1.000  N
  H4       1.0000 0.56550  0.42850  0.78760  Biso   1.000  H
  C17      1.0000 0.56920  0.45250  0.70730  Biso   1.000  C
  H5       1.0000 0.61370  0.53980  0.78930  Biso   1.000  H
  H6       1.0000 0.53790  0.58550  0.79890  Biso   1.000  H
  H7       1.0000 0.55900  0.56390  0.74040  Biso   1.000  H
  H8       1.0000 0.53110  0.49020  0.86230  Biso   1.000  H
  H9       1.0000 0.43830  0.46220  0.85020  Biso   1.000  H
  H10      1.0000 0.44630  0.52970  0.85900  Biso   1.000  H
  C18      1.0000 0.44100  0.35520  0.74850  Biso   1.000  C
  H11      1.0000 0.08670  0.55210  0.84610  Biso   1.000  H
  H12      1.0000 0.18910  0.55900  0.83690  Biso   1.000  H
  C19      1.0000 0.12890  0.63510  0.85500  Biso   1.000  C
  H13      1.0000 0.01620  0.60520  0.71870  Biso   1.000  H
  H14      1.0000 0.04590  0.65410  0.75890  Biso   1.000  H
  H15      1.0000 0.98680  0.60230  0.77920  Biso   1.000  H
  H16      1.0000 0.29870  0.66250  0.67020  Biso   1.000  H
  H17      1.0000 0.29080  0.60050  0.64400  Biso   1.000  H
  C20      1.0000 0.23430  0.66370  0.59900  Biso   1.000  C
  C21      1.0000 0.06740  0.42240  0.72700  Biso   1.000  C
  C22      1.0000 0.96640  0.49430  0.76910  Biso   1.000  C
  C23      1.0000 0.13890  0.33700  0.70340  Biso   1.000  C
  N7       1.0000 0.26910  0.39580  0.83460  Biso   1.000  N
  C24      1.0000 0.36050  0.32460  0.74040  Biso   1.000  C
  C25      1.0000 0.21500  0.31130  0.73460  Biso   1.000  C
  C26      1.0000 0.35470  0.42750  0.63570  Biso   1.000  C
  C27      1.0000 0.23450  0.47040  0.61710  Biso   1.000  C
  H18      1.0000 0.54270  0.48540  0.68870  Biso   1.000  H
  H19      1.0000 0.55450  0.41780  0.68690  Biso   1.000  H
  C28      1.0000 0.66930  0.46010  0.70600  Biso   1.000  C
  C29      1.0000 0.52570  0.32290  0.75260  Biso   1.000  C
  N8       1.0000 0.05650  0.64690  0.88070  Biso   1.000  N
  O1       1.0000 0.18980  0.66860  0.85150  Biso   1.000  O
  N9       1.0000 0.28510  0.65030  0.55770  Biso   1.000  N
  O2       1.0000 0.17360  0.69740  0.59500  Biso   1.000  O
  C30      1.0000 0.99600  0.37950  0.71370  Biso   1.000  C
  H20      1.0000 0.97470  0.51700  0.80130  Biso   1.000  H
  H21      1.0000 0.93410  0.45940  0.77760  Biso   1.000  H
  H22      1.0000 0.93370  0.51680  0.74330  Biso   1.000  H
  C31      1.0000 0.04290  0.32140  0.72070  Biso   1.000  C
  C32      1.0000 0.15500  0.32980  0.64390  Biso   1.000  C
  N10      1.0000 0.31160  0.36810  0.86350  Biso   1.000  N
  C33      1.0000 0.34820  0.25930  0.74220  Biso   1.000  C
  C34      1.0000 0.25590  0.25500  0.71810  Biso   1.000  C
  H23      1.0000 0.19690  0.30800  0.77240  Biso   1.000  H
  H24      1.0000 0.39810  0.40620  0.65370  Biso   1.000  H
  N11      1.0000 0.36400  0.44470  0.58570  Biso   1.000  N
  C35      1.0000 0.15460  0.49580  0.61540  Biso   1.000  C
  C36      1.0000 0.28850  0.47270  0.57240  Biso   1.000  C
  H25      1.0000 0.68710  0.47540  0.67120  Biso   1.000  H
  H26      1.0000 0.68710  0.48790  0.73340  Biso   1.000  H
  C37      1.0000 0.71490  0.40260  0.71590  Biso   1.000  C
  H27      1.0000 0.57140  0.34870  0.76530  Biso   1.000  H
  H28      1.0000 0.54180  0.30790  0.71780  Biso   1.000  H
  H29      1.0000 0.51900  0.29110  0.77740  Biso   1.000  H
  H30      1.0000 0.05040  0.68020  0.89650  Biso   1.000  H
  H31      1.0000 0.01440  0.62150  0.88220  Biso   1.000  H
  Na1      1.0000 0.27044  0.75784  0.83861  Biso   1.000  Na
  H32      1.0000 0.27540  0.66590  0.52670  Biso   1.000  H
  H33      1.0000 0.32830  0.62600  0.56170  Biso   1.000  H
  H34      1.0000 0.94990  0.38240  0.74140  Biso   1.000  H
  C38      1.0000 0.95310  0.38920  0.65970  Biso   1.000  C
  C39      1.0000 0.00030  0.27360  0.69020  Biso   1.000  C
  C40      1.0000 0.04210  0.30660  0.78050  Biso   1.000  C
  H35      1.0000 0.11240  0.35250  0.62410  Biso   1.000  H
  H36      1.0000 0.14890  0.28940  0.63430  Biso   1.000  H
  H37      1.0000 0.21390  0.34290  0.63520  Biso   1.000  H
  C41      1.0000 0.35000  0.24210  0.80100  Biso   1.000  C
  C42      1.0000 0.41340  0.22310  0.71170  Biso   1.000  C
  H38      1.0000 0.26170  0.25510  0.67880  Biso   1.000  H
  C43      1.0000 0.20310  0.20140  0.73410  Biso   1.000  C
  C44      1.0000 0.43290  0.42540  0.54920  Biso   1.000  C
  H39      1.0000 0.11810  0.49470  0.64570  Biso   1.000  H
  C45      1.0000 0.12640  0.52280  0.57050  Biso   1.000  C
  C46      1.0000 0.26140  0.49770  0.52540  Biso   1.000  C
  N12      1.0000 0.75890  0.39950  0.76120  Biso   1.000  N
  O3       1.0000 0.70990  0.36390  0.68400  Biso   1.000  O
  H40      1.0000 0.99850  0.38550  0.63220  Biso   1.000  H
  H41      1.0000 0.91020  0.35830  0.65380  Biso   1.000  H
  C47      1.0000 0.90720  0.44640  0.65210  Biso   1.000  C
  H42      1.0000 0.93950  0.26980  0.70120  Biso   1.000  H
  H43      1.0000 0.03110  0.23770  0.69710  Biso   1.000  H
  H44      1.0000 0.00280  0.28210  0.65230  Biso   1.000  H
  H45      1.0000 0.08410  0.27520  0.78680  Biso   1.000  H
  H46      1.0000 0.06300  0.34040  0.80040  Biso   1.000  H
  C48      1.0000 0.95430  0.28870  0.80310  Biso   1.000  C
  H47      1.0000 0.40410  0.25570  0.81710  Biso   1.000  H
  H48      1.0000 0.34690  0.20040  0.80400  Biso   1.000  H
  H49      1.0000 0.30020  0.25920  0.81910  Biso   1.000  H
  H50      1.0000 0.46990  0.22470  0.73030  Biso   1.000  H
  H51      1.0000 0.39340  0.18290  0.71230  Biso   1.000  H
  C49      1.0000 0.42780  0.24040  0.65450  Biso   1.000  C
  H52      1.0000 0.21490  0.19240  0.77160  Biso   1.000  H
  H53      1.0000 0.14020  0.20980  0.73070  Biso   1.000  H
  C50      1.0000 0.22550  0.14950  0.70010  Biso   1.000  C
  C51      1.0000 0.41480  0.36440  0.53030  Biso   1.000  C
  H54      1.0000 0.43640  0.45180  0.51830  Biso   1.000  H
  O4       1.0000 0.51280  0.42519  0.57665  Biso   1.000  O
  C52      1.0000 0.18170  0.52240  0.52390  Biso   1.000  C
  C53      1.0000 0.03920  0.55260  0.56870  Biso   1.000  C
  H55      1.0000 0.29780  0.49750  0.49510  Biso   1.000  H
  H56      1.0000 0.78670  0.36790  0.76960  Biso   1.000  H
  H57      1.0000 0.76010  0.42900  0.78270  Biso   1.000  H
  H58      1.0000 0.95060  0.47760  0.65430  Biso   1.000  H
  H59      1.0000 0.86460  0.45200  0.68090  Biso   1.000  H
  C54      1.0000 0.85980  0.45020  0.59890  Biso   1.000  C
  N13      1.0000 0.95790  0.24810  0.83950  Biso   1.000  N
  O5       1.0000 0.88500  0.31110  0.79070  Biso   1.000  O
  H60      1.0000 0.37730  0.22840  0.63310  Biso   1.000  H
  H61      1.0000 0.43270  0.28250  0.65220  Biso   1.000  H
  C55      1.0000 0.50940  0.21340  0.63280  Biso   1.000  C
  N14      1.0000 0.22140  0.10000  0.72480  Biso   1.000  N
  O6       1.0000 0.24520  0.15460  0.65270  Biso   1.000  O
  C56      1.0000 0.50750  0.34290  0.52370  Biso   1.000  C
  H62      1.0000 0.38240  0.36400  0.49610  Biso   1.000  H
  O7       1.0000 0.37060  0.33425  0.56938  Biso   1.000  O
  C57      1.0000 0.55450  0.37060  0.56990  Biso   1.000  C
  C58      1.0000 0.14730  0.54850  0.47370  Biso   1.000  C
  H63      1.0000 0.01140  0.55010  0.60340  Biso   1.000  H
  H64      1.0000 0.00210  0.53410  0.54230  Biso   1.000  H
  H65      1.0000 0.04760  0.59280  0.55930  Biso   1.000  H
  O8       1.0000 0.58240  0.23090  0.64680  Biso   1.000  O
  N15      1.0000 0.81970  0.49880  0.59090  Biso   1.000  N
  O9       1.0000 0.86050  0.40960  0.56690  Biso   1.000  O
  H66      1.0000 0.91000  0.23660  0.85530  Biso   1.000  H
  H67      1.0000 0.00820  0.23260  0.84790  Biso   1.000  H
  N16      1.0000 0.49820  0.16940  0.60010  Biso   1.000  N
  H68      1.0000 0.23300  0.06810  0.70770  Biso   1.000  H
  H69      1.0000 0.20710  0.09880  0.75840  Biso   1.000  H
  Na2      1.0000 0.21220  0.14309  0.56683  Biso   1.000  Na
  H70      1.0000 0.53220  0.35720  0.48970  Biso   1.000  H
  O10      1.0000 0.51510  0.28328  0.52605  Biso   1.000  O
  H71      1.0000 0.36120  0.30070  0.55900  Biso   1.000  H
  H72      1.0000 0.54670  0.34690  0.60240  Biso   1.000  H
  C59      1.0000 0.65170  0.38020  0.55930  Biso   1.000  C
  H73      1.0000 0.08830  0.56290  0.47970  Biso   1.000  H
  H74      1.0000 0.14620  0.51950  0.44590  Biso   1.000  H
  H75      1.0000 0.18520  0.58010  0.46300  Biso   1.000  H
  H76      1.0000 0.79080  0.50450  0.56140  Biso   1.000  H
  H77      1.0000 0.82170  0.52580  0.61500  Biso   1.000  H
  C60      1.0000 0.57180  0.13920  0.57640  Biso   1.000  C
  H78      1.0000 0.44500  0.15830  0.59240  Biso   1.000  H
  P1       1.0000 0.54432  0.25021  0.47375  Biso   1.000  P
  H79      1.0000 0.67660  0.40390  0.58800  Biso   1.000  H
  H80      1.0000 0.68220  0.34290  0.55940  Biso   1.000  H
  O11      1.0000 0.66550  0.40730  0.51100  Biso   1.000  O
  H81      1.0000 0.55070  0.10280  0.56100  Biso   1.000  H
  H82      1.0000 0.61420  0.12960  0.60440  Biso   1.000  H
  C61      1.0000 0.61710  0.17300  0.53420  Biso   1.000  C
  O12      1.0000 0.55240  0.18760  0.49453  Biso   1.000  O
  O13      1.0000 0.62910  0.27469  0.45550  Biso   1.000  O
  O14      1.0000 0.47170  0.25110  0.43520  Biso   1.000  O
  H83      1.0000 0.68250  0.44610  0.50650  Biso   1.000  H
  H84      1.0000 0.64480  0.20810  0.54910  Biso   1.000  H
  C62      1.0000 0.68370  0.13560  0.50710  Biso   1.000  C
  H85      1.0000 0.72480  0.12080  0.53330  Biso   1.000  H
  H86      1.0000 0.71530  0.15810  0.48080  Biso   1.000  H
  H87      1.0000 0.65430  0.10360  0.48970  Biso   1.000  H
  Br2      1.0000 0.10695  0.37299  0.26485  Biso   1.000  Br
  C63      1.0000 0.15410  0.44670  0.25210  Biso   1.000  C
  C64      1.0000 0.24200  0.44740  0.24290  Biso   1.000  C
  C65      1.0000 0.09930  0.49460  0.25900  Biso   1.000  C
  C66      1.0000 0.30040  0.39570  0.24060  Biso   1.000  C
  N17      1.0000 0.29160  0.49590  0.23860  Biso   1.000  N
  C67      1.0000 0.00920  0.49580  0.28410  Biso   1.000  C
  N18      1.0000 0.12650  0.54770  0.24980  Biso   1.000  N
  C68      1.0000 0.38350  0.42140  0.26850  Biso   1.000  C
  H88      1.0000 0.27560  0.36370  0.26200  Biso   1.000  H
  C69      1.0000 0.31990  0.37580  0.18450  Biso   1.000  C
  C70      1.0000 0.37810  0.48290  0.24920  Biso   1.000  C
  Co2      1.0000 0.24444  0.57067  0.23348  Biso   1.000  Co
  C71      1.0000 0.97420  0.55250  0.26180  Biso   1.000  C
  C72      1.0000 0.94380  0.44730  0.27760  Biso   1.000  C
  C73      1.0000 0.02480  0.50420  0.34450  Biso   1.000  C
  C74      1.0000 0.05840  0.58770  0.25410  Biso   1.000  C
  C75      1.0000 0.36820  0.42340  0.32970  Biso   1.000  C
  C76      1.0000 0.46620  0.38680  0.25510  Biso   1.000  C
  H89      1.0000 0.35510  0.40550  0.16670  Biso   1.000  H
  H90      1.0000 0.35570  0.34070  0.18650  Biso   1.000  H
  C77      1.0000 0.24080  0.36340  0.15080  Biso   1.000  C
  C78      1.0000 0.44480  0.52160  0.24610  Biso   1.000  C
  N19      1.0000 0.35720  0.60120  0.21830  Biso   1.000  N
  N20      1.0000 0.27230  0.57610  0.30810  Biso   1.000  N
  N21      1.0000 0.21240  0.64850  0.23160  Biso   1.000  N
  N22      1.0000 0.21850  0.55770  0.15810  Biso   1.000  N
  H91      1.0000 0.93450  0.57150  0.28760  Biso   1.000  H
  C79      1.0000 0.93080  0.54750  0.20730  Biso   1.000  C
  H92      1.0000 0.88630  0.46020  0.28930  Biso   1.000  H
  H93      1.0000 0.96210  0.41450  0.29890  Biso   1.000  H
  H94      1.0000 0.94100  0.43610  0.24040  Biso   1.000  H
  H95      1.0000 0.96890  0.50980  0.36230  Biso   1.000  H
  H96      1.0000 0.06170  0.53780  0.35020  Biso   1.000  H
  H97      1.0000 0.05370  0.47030  0.35900  Biso   1.000  H
  C80      1.0000 0.05900  0.64480  0.24850  Biso   1.000  C
  H98      1.0000 0.41330  0.44790  0.34610  Biso   1.000  H
  H99      1.0000 0.31090  0.44100  0.33690  Biso   1.000  H
  C81      1.0000 0.37110  0.36490  0.35500  Biso   1.000  C
  H100     1.0000 0.48380  0.39480  0.21870  Biso   1.000  H
  H101     1.0000 0.45410  0.34590  0.25890  Biso   1.000  H
  H102     1.0000 0.51320  0.39770  0.27920  Biso   1.000  H
  H103     1.0000 0.20130  0.33750  0.17020  Biso   1.000  H
  H104     1.0000 0.20920  0.39950  0.14400  Biso   1.000  H
  C82      1.0000 0.26570  0.33630  0.09900  Biso   1.000  C
  C83      1.0000 0.43260  0.57760  0.22700  Biso   1.000  C
  C84      1.0000 0.53360  0.50570  0.26910  Biso   1.000  C
  C85      1.0000 0.36110  0.66300  0.20340  Biso   1.000  C
  N23      1.0000 0.23090  0.60420  0.33460  Biso   1.000  N
  C86      1.0000 0.13950  0.67540  0.24040  Biso   1.000  C
  C87      1.0000 0.28500  0.68870  0.23460  Biso   1.000  C
  C88      1.0000 0.14530  0.57250  0.13570  Biso   1.000  C
  C89      1.0000 0.26550  0.52960  0.11710  Biso   1.000  C
  H105     1.0000 0.95730  0.51460  0.18870  Biso   1.000  H
  H106     1.0000 0.94550  0.58220  0.18690  Biso   1.000  H
  C90      1.0000 0.83070  0.53990  0.20600  Biso   1.000  C
  C91      1.0000 0.97430  0.67710  0.25260  Biso   1.000  C
  N24      1.0000 0.44350  0.35310  0.38070  Biso   1.000  N
  O15      1.0000 0.31020  0.33140  0.35150  Biso   1.000  O
  N25      1.0000 0.21490  0.34970  0.05770  Biso   1.000  N
  O16      1.0000 0.32640  0.30260  0.09500  Biso   1.000  O
  C92      1.0000 0.50400  0.62050  0.21370  Biso   1.000  C
  H107     1.0000 0.52530  0.48300  0.30130  Biso   1.000  H
  H108     1.0000 0.56590  0.54060  0.27760  Biso   1.000  H
  H109     1.0000 0.56630  0.48320  0.24330  Biso   1.000  H
  C93      1.0000 0.45710  0.67860  0.22070  Biso   1.000  C
  C94      1.0000 0.34500  0.67020  0.14390  Biso   1.000  C
  N26      1.0000 0.18840  0.63190  0.36350  Biso   1.000  N
  C95      1.0000 0.15180  0.74070  0.24220  Biso   1.000  C
  C96      1.0000 0.24410  0.74500  0.21810  Biso   1.000  C
  H110     1.0000 0.30310  0.69200  0.27240  Biso   1.000  H
  H111     1.0000 0.10190  0.59380  0.15370  Biso   1.000  H
  N27      1.0000 0.13600  0.55530  0.08570  Biso   1.000  N
  C97      1.0000 0.34540  0.50420  0.11540  Biso   1.000  C
  C98      1.0000 0.21150  0.52730  0.07240  Biso   1.000  C
  H112     1.0000 0.81290  0.52460  0.17120  Biso   1.000  H
  H113     1.0000 0.81290  0.51210  0.23340  Biso   1.000  H
  C99      1.0000 0.78510  0.59740  0.21590  Biso   1.000  C
  H114     1.0000 0.92860  0.65130  0.26530  Biso   1.000  H
  H115     1.0000 0.95820  0.69210  0.21780  Biso   1.000  H
  H116     1.0000 0.98100  0.70890  0.27740  Biso   1.000  H
  H117     1.0000 0.44960  0.31980  0.39650  Biso   1.000  H
  H118     1.0000 0.48560  0.37850  0.38220  Biso   1.000  H
  Na3      1.0000 0.22956  0.24216  0.33861  Biso   1.000  Na
  H119     1.0000 0.22460  0.33410  0.02670  Biso   1.000  H
  H120     1.0000 0.17170  0.37400  0.06170  Biso   1.000  H
  H121     1.0000 0.55010  0.61760  0.24140  Biso   1.000  H
  C100     1.0000 0.54690  0.61080  0.15970  Biso   1.000  C
  C101     1.0000 0.49970  0.72640  0.19020  Biso   1.000  C
  C102     1.0000 0.45790  0.69340  0.28050  Biso   1.000  C
  H122     1.0000 0.38760  0.64750  0.12410  Biso   1.000  H
  H123     1.0000 0.35110  0.71060  0.13430  Biso   1.000  H
  H124     1.0000 0.28610  0.65710  0.13520  Biso   1.000  H
  C103     1.0000 0.15000  0.75790  0.30100  Biso   1.000  C
  C104     1.0000 0.08660  0.77690  0.21170  Biso   1.000  C
  H125     1.0000 0.23830  0.74490  0.17880  Biso   1.000  H
  C105     1.0000 0.29690  0.79860  0.23410  Biso   1.000  C
  C106     1.0000 0.06710  0.57460  0.04920  Biso   1.000  C
  H126     1.0000 0.38190  0.50530  0.14570  Biso   1.000  H
  C107     1.0000 0.37360  0.47720  0.07050  Biso   1.000  C
  C108     1.0000 0.23860  0.50230  0.02540  Biso   1.000  C
  N28      1.0000 0.74110  0.60050  0.26120  Biso   1.000  N
  O17      1.0000 0.79010  0.63610  0.18400  Biso   1.000  O
  H127     1.0000 0.50150  0.61450  0.13220  Biso   1.000  H
  H128     1.0000 0.58980  0.64170  0.15380  Biso   1.000  H
  C109     1.0000 0.59280  0.55360  0.15210  Biso   1.000  C
  H129     1.0000 0.56050  0.73020  0.20120  Biso   1.000  H
  H130     1.0000 0.46890  0.76230  0.19710  Biso   1.000  H
  H131     1.0000 0.49720  0.71790  0.15230  Biso   1.000  H
  H132     1.0000 0.41590  0.72480  0.28680  Biso   1.000  H
  H133     1.0000 0.43700  0.65960  0.30040  Biso   1.000  H
  C110     1.0000 0.54570  0.71130  0.30310  Biso   1.000  C
  H134     1.0000 0.09590  0.74430  0.31710  Biso   1.000  H
  H135     1.0000 0.15310  0.79960  0.30400  Biso   1.000  H
  H136     1.0000 0.19980  0.74080  0.31910  Biso   1.000  H
  H137     1.0000 0.03010  0.77530  0.23030  Biso   1.000  H
  H138     1.0000 0.10660  0.81710  0.21230  Biso   1.000  H
  C111     1.0000 0.07220  0.75960  0.15450  Biso   1.000  C
  H139     1.0000 0.28510  0.80760  0.27160  Biso   1.000  H
  H140     1.0000 0.35980  0.79020  0.23070  Biso   1.000  H
  C112     1.0000 0.27450  0.85050  0.20010  Biso   1.000  C
  C113     1.0000 0.08520  0.63560  0.03030  Biso   1.000  C
  H141     1.0000 0.06360  0.54820  0.01830  Biso   1.000  H
  O18      1.0000 0.98720  0.57481  0.07665  Biso   1.000  O
  C114     1.0000 0.31830  0.47760  0.02390  Biso   1.000  C
  C115     1.0000 0.46080  0.44740  0.06870  Biso   1.000  C
  H142     1.0000 0.20220  0.50250  0.99510  Biso   1.000  H
  H143     1.0000 0.71330  0.63210  0.26960  Biso   1.000  H
  H144     1.0000 0.73990  0.57100  0.28270  Biso   1.000  H
  H145     1.0000 0.54940  0.52240  0.15430  Biso   1.000  H
  H146     1.0000 0.63540  0.54800  0.18090  Biso   1.000  H
  C116     1.0000 0.64020  0.54980  0.09890  Biso   1.000  C
  N29      1.0000 0.54210  0.75190  0.33950  Biso   1.000  N
  O19      1.0000 0.61500  0.68890  0.29070  Biso   1.000  O
  H147     1.0000 0.12270  0.77160  0.13310  Biso   1.000  H
  H148     1.0000 0.06730  0.71750  0.15220  Biso   1.000  H
  C117     1.0000 0.99060  0.78660  0.13280  Biso   1.000  C
  N30      1.0000 0.27860  0.90000  0.22480  Biso   1.000  N
  O20      1.0000 0.25480  0.84540  0.15270  Biso   1.000  O
  C118     1.0000 0.99250  0.65710  0.02370  Biso   1.000  C
  H149     1.0000 0.11760  0.63600  0.99610  Biso   1.000  H
  O21      1.0000 0.12940  0.66575  0.06938  Biso   1.000  O
  C119     1.0000 0.94550  0.62940  0.06990  Biso   1.000  C
  C120     1.0000 0.35270  0.45150  0.97370  Biso   1.000  C
  H150     1.0000 0.48860  0.44990  0.10340  Biso   1.000  H
  H151     1.0000 0.49790  0.46590  0.04230  Biso   1.000  H
  H152     1.0000 0.45240  0.40720  0.05930  Biso   1.000  H
  O22      1.0000 0.91760  0.76910  0.14680  Biso   1.000  O
  N31      1.0000 0.68030  0.50120  0.09090  Biso   1.000  N
  O23      1.0000 0.63950  0.59040  0.06690  Biso   1.000  O
  H153     1.0000 0.59000  0.76340  0.35530  Biso   1.000  H
  H154     1.0000 0.49180  0.76740  0.34790  Biso   1.000  H
  N32      1.0000 0.00180  0.83060  0.10010  Biso   1.000  N
  H155     1.0000 0.26700  0.93190  0.20770  Biso   1.000  H
  H156     1.0000 0.29290  0.90120  0.25840  Biso   1.000  H
  Na4      1.0000 0.28780  0.85691  0.06683  Biso   1.000  Na
  H157     1.0000 0.96780  0.64280  0.98970  Biso   1.000  H
  O24      1.0000 0.98490  0.71672  0.02605  Biso   1.000  O
  H158     1.0000 0.13880  0.69930  0.05900  Biso   1.000  H
  H159     1.0000 0.95330  0.65310  0.10240  Biso   1.000  H
  C121     1.0000 0.84830  0.61980  0.05930  Biso   1.000  C
  H160     1.0000 0.41170  0.43710  0.97970  Biso   1.000  H
  H161     1.0000 0.35380  0.48050  0.94590  Biso   1.000  H
  H162     1.0000 0.31480  0.41990  0.96300  Biso   1.000  H
  H163     1.0000 0.70920  0.49550  0.06140  Biso   1.000  H
  H164     1.0000 0.67830  0.47420  0.11500  Biso   1.000  H
  C122     1.0000 0.92820  0.86080  0.07640  Biso   1.000  C
  H165     1.0000 0.05500  0.84170  0.09240  Biso   1.000  H
  P2       1.0000 0.95568  0.74979  0.97375  Biso   1.000  P
  H166     1.0000 0.82340  0.59610  0.08800  Biso   1.000  H
  H167     1.0000 0.81780  0.65710  0.05940  Biso   1.000  H
  O25      1.0000 0.83450  0.59270  0.01100  Biso   1.000  O
  H168     1.0000 0.94930  0.89720  0.06100  Biso   1.000  H
  H169     1.0000 0.88580  0.87040  0.10440  Biso   1.000  H
  C123     1.0000 0.88290  0.82700  0.03420  Biso   1.000  C
  O26      1.0000 0.94760  0.81240  0.99453  Biso   1.000  O
  O27      1.0000 0.87090  0.72531  0.95550  Biso   1.000  O
  O28      1.0000 0.02830  0.74890  0.93520  Biso   1.000  O
  H170     1.0000 0.81750  0.55390  0.00650  Biso   1.000  H
  H171     1.0000 0.85520  0.79190  0.04910  Biso   1.000  H
  C124     1.0000 0.81630  0.86440  0.00710  Biso   1.000  C
  H172     1.0000 0.77520  0.87920  0.03330  Biso   1.000  H
  H173     1.0000 0.78470  0.84190  0.98080  Biso   1.000  H
  H174     1.0000 0.84570  0.89640  0.98970  Biso   1.000  H
  Br3      1.0000 0.60695  0.12701  0.73515  Biso   1.000  Br
  C125     1.0000 0.65410  0.05330  0.74790  Biso   1.000  C
  C126     1.0000 0.74200  0.05260  0.75710  Biso   1.000  C
  C127     1.0000 0.59930  0.00540  0.74100  Biso   1.000  C
  C128     1.0000 0.80040  0.10430  0.75940  Biso   1.000  C
  N33      1.0000 0.79160  0.00410  0.76140  Biso   1.000  N
  C129     1.0000 0.50920  0.00420  0.71590  Biso   1.000  C
  N34      1.0000 0.62650  0.95230  0.75020  Biso   1.000  N
  C130     1.0000 0.88350  0.07860  0.73150  Biso   1.000  C
  H175     1.0000 0.77560  0.13630  0.73800  Biso   1.000  H
  C131     1.0000 0.81990  0.12420  0.81550  Biso   1.000  C
  C132     1.0000 0.87810  0.01710  0.75080  Biso   1.000  C
  Co3      1.0000 0.74444  0.92933  0.76652  Biso   1.000  Co
  C133     1.0000 0.47420  0.94750  0.73820  Biso   1.000  C
  C134     1.0000 0.44380  0.05270  0.72240  Biso   1.000  C
  C135     1.0000 0.52480  0.99580  0.65550  Biso   1.000  C
  C136     1.0000 0.55840  0.91230  0.74590  Biso   1.000  C
  C137     1.0000 0.86820  0.07660  0.67030  Biso   1.000  C
  C138     1.0000 0.96620  0.11320  0.74490  Biso   1.000  C
  H176     1.0000 0.85510  0.09450  0.83330  Biso   1.000  H
  H177     1.0000 0.85570  0.15930  0.81350  Biso   1.000  H
  C139     1.0000 0.74080  0.13660  0.84920  Biso   1.000  C
  C140     1.0000 0.94480  0.97840  0.75390  Biso   1.000  C
  N35      1.0000 0.85720  0.89880  0.78170  Biso   1.000  N
  N36      1.0000 0.77230  0.92390  0.69190  Biso   1.000  N
  N37      1.0000 0.71240  0.85150  0.76840  Biso   1.000  N
  N38      1.0000 0.71850  0.94230  0.84190  Biso   1.000  N
  H178     1.0000 0.43450  0.92850  0.71240  Biso   1.000  H
  C141     1.0000 0.43080  0.95250  0.79270  Biso   1.000  C
  H179     1.0000 0.38630  0.03980  0.71070  Biso   1.000  H
  H180     1.0000 0.46210  0.08550  0.70110  Biso   1.000  H
  H181     1.0000 0.44100  0.06390  0.75960  Biso   1.000  H
  H182     1.0000 0.46890  0.99020  0.63770  Biso   1.000  H
  H183     1.0000 0.56170  0.96220  0.64980  Biso   1.000  H
  H184     1.0000 0.55370  0.02970  0.64100  Biso   1.000  H
  C142     1.0000 0.55900  0.85520  0.75150  Biso   1.000  C
  H185     1.0000 0.91330  0.05210  0.65390  Biso   1.000  H
  H186     1.0000 0.81090  0.05900  0.66310  Biso   1.000  H
  C143     1.0000 0.87110  0.13510  0.64500  Biso   1.000  C
  H187     1.0000 0.98380  0.10520  0.78130  Biso   1.000  H
  H188     1.0000 0.95410  0.15410  0.74110  Biso   1.000  H
  H189     1.0000 0.01320  0.10230  0.72080  Biso   1.000  H
  H190     1.0000 0.70130  0.16250  0.82980  Biso   1.000  H
  H191     1.0000 0.70920  0.10050  0.85600  Biso   1.000  H
  C144     1.0000 0.76570  0.16370  0.90100  Biso   1.000  C
  C145     1.0000 0.93260  0.92240  0.77300  Biso   1.000  C
  C146     1.0000 0.03360  0.99430  0.73090  Biso   1.000  C
  C147     1.0000 0.86110  0.83700  0.79660  Biso   1.000  C
  N39      1.0000 0.73090  0.89580  0.66540  Biso   1.000  N
  C148     1.0000 0.63950  0.82460  0.75960  Biso   1.000  C
  C149     1.0000 0.78500  0.81130  0.76540  Biso   1.000  C
  C150     1.0000 0.64530  0.92750  0.86430  Biso   1.000  C
  C151     1.0000 0.76550  0.97040  0.88290  Biso   1.000  C
  H192     1.0000 0.45730  0.98540  0.81130  Biso   1.000  H
  H193     1.0000 0.44550  0.91780  0.81310  Biso   1.000  H
  C152     1.0000 0.33070  0.96010  0.79400  Biso   1.000  C
  C153     1.0000 0.47430  0.82290  0.74740  Biso   1.000  C
  N40      1.0000 0.94350  0.14690  0.61930  Biso   1.000  N
  O29      1.0000 0.81020  0.16860  0.64850  Biso   1.000  O
  N41      1.0000 0.71490  0.15030  0.94230  Biso   1.000  N
  O30      1.0000 0.82640  0.19740  0.90500  Biso   1.000  O
  C154     1.0000 0.00400  0.87950  0.78630  Biso   1.000  C
  H194     1.0000 0.02530  0.01700  0.69870  Biso   1.000  H
  H195     1.0000 0.06590  0.95940  0.72240  Biso   1.000  H
  H196     1.0000 0.06630  0.01680  0.75670  Biso   1.000  H
  C155     1.0000 0.95710  0.82140  0.77930  Biso   1.000  C
  C156     1.0000 0.84500  0.82980  0.85610  Biso   1.000  C
  N42      1.0000 0.68840  0.86810  0.63650  Biso   1.000  N
  C157     1.0000 0.65180  0.75930  0.75780  Biso   1.000  C
  C158     1.0000 0.74410  0.75500  0.78190  Biso   1.000  C
  H197     1.0000 0.80310  0.80800  0.72760  Biso   1.000  H
  H198     1.0000 0.60190  0.90620  0.84630  Biso   1.000  H
  N43      1.0000 0.63600  0.94470  0.91430  Biso   1.000  N
  C159     1.0000 0.84540  0.99580  0.88460  Biso   1.000  C
  C160     1.0000 0.71150  0.97270  0.92760  Biso   1.000  C
  H199     1.0000 0.31290  0.97540  0.82880  Biso   1.000  H
  H200     1.0000 0.31290  0.98790  0.76660  Biso   1.000  H
  C161     1.0000 0.28510  0.90260  0.78410  Biso   1.000  C
  H201     1.0000 0.42860  0.84870  0.73470  Biso   1.000  H
  H202     1.0000 0.45820  0.80790  0.78220  Biso   1.000  H
  H203     1.0000 0.48100  0.79110  0.72260  Biso   1.000  H
  H204     1.0000 0.94960  0.18020  0.60350  Biso   1.000  H
  H205     1.0000 0.98560  0.12150  0.61780  Biso   1.000  H
  Na5      1.0000 0.72956  0.25784  0.66139  Biso   1.000  Na
  H206     1.0000 0.72460  0.16590  0.97330  Biso   1.000  H
  H207     1.0000 0.67170  0.12600  0.93830  Biso   1.000  H
  H208     1.0000 0.05010  0.88240  0.75860  Biso   1.000  H
  C162     1.0000 0.04690  0.88920  0.84030  Biso   1.000  C
  C163     1.0000 0.99970  0.77360  0.80980  Biso   1.000  C
  C164     1.0000 0.95790  0.80660  0.71950  Biso   1.000  C
  H209     1.0000 0.88760  0.85250  0.87590  Biso   1.000  H
  H210     1.0000 0.85110  0.78940  0.86570  Biso   1.000  H
  H211     1.0000 0.78610  0.84290  0.86480  Biso   1.000  H
  C165     1.0000 0.65000  0.74210  0.69900  Biso   1.000  C
  C166     1.0000 0.58660  0.72310  0.78830  Biso   1.000  C
  H212     1.0000 0.73830  0.75510  0.82120  Biso   1.000  H
  C167     1.0000 0.79690  0.70140  0.76590  Biso   1.000  C
  C168     1.0000 0.56710  0.92540  0.95080  Biso   1.000  C
  H213     1.0000 0.88190  0.99470  0.85430  Biso   1.000  H
  C169     1.0000 0.87360  0.02280  0.92950  Biso   1.000  C
  C170     1.0000 0.73860  0.99770  0.97460  Biso   1.000  C
  N44      1.0000 0.24110  0.89950  0.73880  Biso   1.000  N
  O31      1.0000 0.29010  0.86390  0.81600  Biso   1.000  O
  H214     1.0000 0.00150  0.88550  0.86780  Biso   1.000  H
  H215     1.0000 0.08980  0.85830  0.84620  Biso   1.000  H
  C171     1.0000 0.09280  0.94640  0.84790  Biso   1.000  C
  H216     1.0000 0.06050  0.76980  0.79880  Biso   1.000  H
  H217     1.0000 0.96890  0.73770  0.80290  Biso   1.000  H
  H218     1.0000 0.99720  0.78210  0.84770  Biso   1.000  H
  H219     1.0000 0.91590  0.77520  0.71320  Biso   1.000  H
  H220     1.0000 0.93700  0.84040  0.69960  Biso   1.000  H
  C172     1.0000 0.04570  0.78870  0.69690  Biso   1.000  C
  H221     1.0000 0.59590  0.75570  0.68290  Biso   1.000  H
  H222     1.0000 0.65310  0.70040  0.69600  Biso   1.000  H
  H223     1.0000 0.69980  0.75920  0.68090  Biso   1.000  H
  H224     1.0000 0.53010  0.72470  0.76970  Biso   1.000  H
  H225     1.0000 0.60660  0.68290  0.78770  Biso   1.000  H
  C173     1.0000 0.57220  0.74040  0.84550  Biso   1.000  C
  H226     1.0000 0.78510  0.69240  0.72840  Biso   1.000  H
  H227     1.0000 0.85980  0.70980  0.76930  Biso   1.000  H
  C174     1.0000 0.77450  0.64950  0.79990  Biso   1.000  C
  C175     1.0000 0.58520  0.86440  0.96970  Biso   1.000  C
  H228     1.0000 0.56360  0.95180  0.98170  Biso   1.000  H
  O32      1.0000 0.48720  0.92519  0.92335  Biso   1.000  O
  C176     1.0000 0.81830  0.02240  0.97610  Biso   1.000  C
  C177     1.0000 0.96080  0.05260  0.93130  Biso   1.000  C
  H229     1.0000 0.70220  0.99750  0.00490  Biso   1.000  H
  H230     1.0000 0.21330  0.86790  0.73040  Biso   1.000  H
  H231     1.0000 0.23990  0.92900  0.71730  Biso   1.000  H
  H232     1.0000 0.04940  0.97760  0.84570  Biso   1.000  H
  H233     1.0000 0.13540  0.95200  0.81910  Biso   1.000  H
  C178     1.0000 0.14020  0.95020  0.90110  Biso   1.000  C
  N45      1.0000 0.04210  0.74810  0.66050  Biso   1.000  N
  O33      1.0000 0.11500  0.81110  0.70930  Biso   1.000  O
  H234     1.0000 0.62270  0.72840  0.86690  Biso   1.000  H
  H235     1.0000 0.56730  0.78250  0.84780  Biso   1.000  H
  C179     1.0000 0.49060  0.71340  0.86720  Biso   1.000  C
  N46      1.0000 0.77860  0.60000  0.77520  Biso   1.000  N
  O34      1.0000 0.75480  0.65460  0.84730  Biso   1.000  O
  C180     1.0000 0.49250  0.84290  0.97630  Biso   1.000  C
  H236     1.0000 0.61760  0.86400  0.00390  Biso   1.000  H
  O35      1.0000 0.62940  0.83425  0.93062  Biso   1.000  O
  C181     1.0000 0.44550  0.87060  0.93010  Biso   1.000  C
  C182     1.0000 0.85270  0.04850  0.02630  Biso   1.000  C
  H237     1.0000 0.98860  0.05010  0.89660  Biso   1.000  H
  H238     1.0000 0.99790  0.03410  0.95770  Biso   1.000  H
  H239     1.0000 0.95240  0.09280  0.94070  Biso   1.000  H
  O36      1.0000 0.41760  0.73090  0.85320  Biso   1.000  O
  N47      1.0000 0.18030  0.99880  0.90910  Biso   1.000  N
  O37      1.0000 0.13950  0.90960  0.93310  Biso   1.000  O
  H240     1.0000 0.09000  0.73660  0.64470  Biso   1.000  H
  H241     1.0000 0.99180  0.73260  0.65210  Biso   1.000  H
  N48      1.0000 0.50180  0.66940  0.89990  Biso   1.000  N
  H242     1.0000 0.76700  0.56810  0.79230  Biso   1.000  H
  H243     1.0000 0.79290  0.59880  0.74160  Biso   1.000  H
  Na6      1.0000 0.78780  0.64309  0.93317  Biso   1.000  Na
  H244     1.0000 0.46780  0.85720  0.01030  Biso   1.000  H
  O38      1.0000 0.48490  0.78328  0.97395  Biso   1.000  O
  H245     1.0000 0.63880  0.80070  0.94100  Biso   1.000  H
  H246     1.0000 0.45330  0.84690  0.89760  Biso   1.000  H
  C183     1.0000 0.34830  0.88020  0.94070  Biso   1.000  C
  H247     1.0000 0.91170  0.06290  0.02030  Biso   1.000  H
  H248     1.0000 0.85380  0.01950  0.05410  Biso   1.000  H
  H249     1.0000 0.81480  0.08010  0.03700  Biso   1.000  H
  H250     1.0000 0.20920  0.00450  0.93860  Biso   1.000  H
  H251     1.0000 0.17830  0.02580  0.88500  Biso   1.000  H
  C184     1.0000 0.42820  0.63920  0.92360  Biso   1.000  C
  H252     1.0000 0.55500  0.65830  0.90760  Biso   1.000  H
  P3       1.0000 0.45568  0.75021  0.02625  Biso   1.000  P
  H253     1.0000 0.32340  0.90390  0.91200  Biso   1.000  H
  H254     1.0000 0.31780  0.84290  0.94060  Biso   1.000  H
  O39      1.0000 0.33450  0.90730  0.98900  Biso   1.000  O
  H255     1.0000 0.44930  0.60280  0.93900  Biso   1.000  H
  H256     1.0000 0.38580  0.62960  0.89560  Biso   1.000  H
  C185     1.0000 0.38290  0.67300  0.96580  Biso   1.000  C
  O40      1.0000 0.44760  0.68760  0.00547  Biso   1.000  O
  O41      1.0000 0.37090  0.77469  0.04450  Biso   1.000  O
  O42      1.0000 0.52830  0.75110  0.06480  Biso   1.000  O
  H257     1.0000 0.31750  0.94610  0.99350  Biso   1.000  H
  H258     1.0000 0.35520  0.70810  0.95090  Biso   1.000  H
  C186     1.0000 0.31630  0.63560  0.99290  Biso   1.000  C
  H259     1.0000 0.27520  0.62080  0.96670  Biso   1.000  H
  H260     1.0000 0.28470  0.65810  0.01920  Biso   1.000  H
  H261     1.0000 0.34570  0.60360  0.01030  Biso   1.000  H
  Br4      1.0000 0.89305  0.87299  0.23515  Biso   1.000  Br
  C187     1.0000 0.84590  0.94670  0.24790  Biso   1.000  C
  C188     1.0000 0.75800  0.94740  0.25710  Biso   1.000  C
  C189     1.0000 0.90070  0.99460  0.24100  Biso   1.000  C
  C190     1.0000 0.69960  0.89570  0.25940  Biso   1.000  C
  N49      1.0000 0.70840  0.99590  0.26140  Biso   1.000  N
  C191     1.0000 0.99080  0.99580  0.21590  Biso   1.000  C
  N50      1.0000 0.87350  0.04770  0.25020  Biso   1.000  N
  C192     1.0000 0.61650  0.92140  0.23150  Biso   1.000  C
  H262     1.0000 0.72440  0.86370  0.23800  Biso   1.000  H
  C193     1.0000 0.68010  0.87580  0.31550  Biso   1.000  C
  C194     1.0000 0.62190  0.98290  0.25080  Biso   1.000  C
  Co4      1.0000 0.75556  0.07067  0.26652  Biso   1.000  Co
  C195     1.0000 0.02580  0.05250  0.23820  Biso   1.000  C
  C196     1.0000 0.05620  0.94730  0.22240  Biso   1.000  C
  C197     1.0000 0.97520  0.00420  0.15550  Biso   1.000  C
  C198     1.0000 0.94160  0.08770  0.24590  Biso   1.000  C
  C199     1.0000 0.63180  0.92340  0.17030  Biso   1.000  C
  C200     1.0000 0.53380  0.88680  0.24490  Biso   1.000  C
  H263     1.0000 0.64490  0.90550  0.33330  Biso   1.000  H
  H264     1.0000 0.64430  0.84070  0.31350  Biso   1.000  H
  C201     1.0000 0.75920  0.86340  0.34920  Biso   1.000  C
  C202     1.0000 0.55520  0.02160  0.25390  Biso   1.000  C
  N51      1.0000 0.64280  0.10120  0.28170  Biso   1.000  N
  N52      1.0000 0.72770  0.07610  0.19190  Biso   1.000  N
  N53      1.0000 0.78760  0.14850  0.26840  Biso   1.000  N
  N54      1.0000 0.78150  0.05770  0.34190  Biso   1.000  N
  H265     1.0000 0.06550  0.07150  0.21240  Biso   1.000  H
  C203     1.0000 0.06920  0.04750  0.29270  Biso   1.000  C
  H266     1.0000 0.11370  0.96020  0.21070  Biso   1.000  H
  H267     1.0000 0.03790  0.91450  0.20110  Biso   1.000  H
  H268     1.0000 0.05900  0.93610  0.25960  Biso   1.000  H
  H269     1.0000 0.03110  0.00980  0.13770  Biso   1.000  H
  H270     1.0000 0.93830  0.03780  0.14980  Biso   1.000  H
  H271     1.0000 0.94630  0.97030  0.14100  Biso   1.000  H
  C204     1.0000 0.94100  0.14480  0.25150  Biso   1.000  C
  H272     1.0000 0.58670  0.94790  0.15390  Biso   1.000  H
  H273     1.0000 0.68910  0.94100  0.16310  Biso   1.000  H
  C205     1.0000 0.62890  0.86490  0.14500  Biso   1.000  C
  H274     1.0000 0.51620  0.89480  0.28130  Biso   1.000  H
  H275     1.0000 0.54590  0.84590  0.24110  Biso   1.000  H
  H276     1.0000 0.48680  0.89770  0.22080  Biso   1.000  H
  H277     1.0000 0.79870  0.83750  0.32980  Biso   1.000  H
  H278     1.0000 0.79080  0.89950  0.35600  Biso   1.000  H
  C206     1.0000 0.73430  0.83630  0.40100  Biso   1.000  C
  C207     1.0000 0.56740  0.07760  0.27300  Biso   1.000  C
  C208     1.0000 0.46640  0.00570  0.23090  Biso   1.000  C
  C209     1.0000 0.63890  0.16300  0.29660  Biso   1.000  C
  N55      1.0000 0.76910  0.10420  0.16540  Biso   1.000  N
  C210     1.0000 0.86050  0.17540  0.25960  Biso   1.000  C
  C211     1.0000 0.71500  0.18870  0.26540  Biso   1.000  C
  C212     1.0000 0.85470  0.07250  0.36430  Biso   1.000  C
  C213     1.0000 0.73450  0.02960  0.38290  Biso   1.000  C
  H279     1.0000 0.04270  0.01460  0.31130  Biso   1.000  H
  H280     1.0000 0.05450  0.08220  0.31310  Biso   1.000  H
  C214     1.0000 0.16930  0.03990  0.29400  Biso   1.000  C
  C215     1.0000 0.02570  0.17710  0.24740  Biso   1.000  C
  N56      1.0000 0.55650  0.85310  0.11930  Biso   1.000  N
  O43      1.0000 0.68980  0.83140  0.14850  Biso   1.000  O
  N57      1.0000 0.78510  0.84970  0.44230  Biso   1.000  N
  O44      1.0000 0.67360  0.80260  0.40500  Biso   1.000  O
  C216     1.0000 0.49600  0.12050  0.28630  Biso   1.000  C
  H281     1.0000 0.47470  0.98300  0.19870  Biso   1.000  H
  H282     1.0000 0.43410  0.04060  0.22240  Biso   1.000  H
  H283     1.0000 0.43370  0.98320  0.25670  Biso   1.000  H
  C217     1.0000 0.54290  0.17860  0.27930  Biso   1.000  C
  C218     1.0000 0.65500  0.17020  0.35610  Biso   1.000  C
  N58      1.0000 0.81160  0.13190  0.13650  Biso   1.000  N
  C219     1.0000 0.84820  0.24070  0.25780  Biso   1.000  C
  C220     1.0000 0.75590  0.24500  0.28190  Biso   1.000  C
  H284     1.0000 0.69690  0.19200  0.22760  Biso   1.000  H
  H285     1.0000 0.89810  0.09380  0.34630  Biso   1.000  H
  N59      1.0000 0.86400  0.05530  0.41430  Biso   1.000  N
  C221     1.0000 0.65460  0.00420  0.38460  Biso   1.000  C
  C222     1.0000 0.78850  0.02730  0.42760  Biso   1.000  C
  H286     1.0000 0.18710  0.02460  0.32880  Biso   1.000  H
  H287     1.0000 0.18710  0.01210  0.26660  Biso   1.000  H
  C223     1.0000 0.21490  0.09740  0.28410  Biso   1.000  C
  H288     1.0000 0.07140  0.15130  0.23470  Biso   1.000  H
  H289     1.0000 0.04180  0.19210  0.28220  Biso   1.000  H
  H290     1.0000 0.01900  0.20890  0.22260  Biso   1.000  H
  H291     1.0000 0.55040  0.81980  0.10350  Biso   1.000  H
  H292     1.0000 0.51440  0.87850  0.11780  Biso   1.000  H
  Na7      1.0000 0.77044  0.74216  0.16139  Biso   1.000  Na
  H293     1.0000 0.77540  0.83410  0.47330  Biso   1.000  H
  H294     1.0000 0.82830  0.87400  0.43830  Biso   1.000  H
  H295     1.0000 0.44990  0.11760  0.25860  Biso   1.000  H
  C224     1.0000 0.45310  0.11080  0.34030  Biso   1.000  C
  C225     1.0000 0.50030  0.22640  0.30980  Biso   1.000  C
  C226     1.0000 0.54210  0.19340  0.21950  Biso   1.000  C
  H296     1.0000 0.61240  0.14750  0.37590  Biso   1.000  H
  H297     1.0000 0.64890  0.21060  0.36570  Biso   1.000  H
  H298     1.0000 0.71390  0.15710  0.36480  Biso   1.000  H
  C227     1.0000 0.85000  0.25790  0.19900  Biso   1.000  C
  C228     1.0000 0.91340  0.27690  0.28830  Biso   1.000  C
  H299     1.0000 0.76170  0.24490  0.32120  Biso   1.000  H
  C229     1.0000 0.70310  0.29860  0.26590  Biso   1.000  C
  C230     1.0000 0.93290  0.07460  0.45080  Biso   1.000  C
  H300     1.0000 0.61810  0.00530  0.35430  Biso   1.000  H
  C231     1.0000 0.62640  0.97720  0.42950  Biso   1.000  C
  C232     1.0000 0.76140  0.00230  0.47460  Biso   1.000  C
  N60      1.0000 0.25890  0.10050  0.23880  Biso   1.000  N
  O45      1.0000 0.20990  0.13610  0.31600  Biso   1.000  O
  H301     1.0000 0.49850  0.11450  0.36780  Biso   1.000  H
  H302     1.0000 0.41020  0.14170  0.34620  Biso   1.000  H
  C233     1.0000 0.40720  0.05360  0.34790  Biso   1.000  C
  H303     1.0000 0.43950  0.23020  0.29880  Biso   1.000  H
  H304     1.0000 0.53110  0.26230  0.30290  Biso   1.000  H
  H305     1.0000 0.50280  0.21790  0.34770  Biso   1.000  H
  H306     1.0000 0.58410  0.22480  0.21320  Biso   1.000  H
  H307     1.0000 0.56300  0.15960  0.19960  Biso   1.000  H
  C234     1.0000 0.45430  0.21130  0.19690  Biso   1.000  C
  H308     1.0000 0.90410  0.24430  0.18290  Biso   1.000  H
  H309     1.0000 0.84690  0.29960  0.19600  Biso   1.000  H
  H310     1.0000 0.80020  0.24080  0.18090  Biso   1.000  H
  H311     1.0000 0.96990  0.27530  0.26970  Biso   1.000  H
  H312     1.0000 0.89340  0.31710  0.28770  Biso   1.000  H
  C235     1.0000 0.92780  0.25960  0.34550  Biso   1.000  C
  H313     1.0000 0.71490  0.30760  0.22840  Biso   1.000  H
  H314     1.0000 0.64020  0.29020  0.26930  Biso   1.000  H
  C236     1.0000 0.72550  0.35050  0.29990  Biso   1.000  C
  C237     1.0000 0.91480  0.13560  0.46970  Biso   1.000  C
  H315     1.0000 0.93640  0.04820  0.48170  Biso   1.000  H
  O46      1.0000 0.01280  0.07481  0.42335  Biso   1.000  O
  C238     1.0000 0.68170  0.97760  0.47610  Biso   1.000  C
  C239     1.0000 0.53920  0.94740  0.43130  Biso   1.000  C
  H316     1.0000 0.79780  0.00250  0.50490  Biso   1.000  H
  H317     1.0000 0.28670  0.13210  0.23040  Biso   1.000  H
  H318     1.0000 0.26010  0.07100  0.21730  Biso   1.000  H
  H319     1.0000 0.45060  0.02240  0.34570  Biso   1.000  H
  H320     1.0000 0.36460  0.04800  0.31910  Biso   1.000  H
  C240     1.0000 0.35980  0.04980  0.40110  Biso   1.000  C
  N61      1.0000 0.45790  0.25190  0.16050  Biso   1.000  N
  O47      1.0000 0.38500  0.18890  0.20930  Biso   1.000  O
  H321     1.0000 0.87730  0.27160  0.36690  Biso   1.000  H
  H322     1.0000 0.93270  0.21750  0.34780  Biso   1.000  H
  C241     1.0000 0.00940  0.28660  0.36720  Biso   1.000  C
  N62      1.0000 0.72140  0.40000  0.27520  Biso   1.000  N
  O48      1.0000 0.74520  0.34540  0.34730  Biso   1.000  O
  C242     1.0000 0.00750  0.15710  0.47630  Biso   1.000  C
  H323     1.0000 0.88240  0.13600  0.50390  Biso   1.000  H
  O49      1.0000 0.87060  0.16575  0.43062  Biso   1.000  O
  C243     1.0000 0.05450  0.12940  0.43010  Biso   1.000  C
  C244     1.0000 0.64730  0.95150  0.52630  Biso   1.000  C
  H324     1.0000 0.51140  0.94990  0.39660  Biso   1.000  H
  H325     1.0000 0.50210  0.96590  0.45770  Biso   1.000  H
  H326     1.0000 0.54760  0.90720  0.44070  Biso   1.000  H
  O50      1.0000 0.08240  0.26910  0.35320  Biso   1.000  O
  N63      1.0000 0.31970  0.00120  0.40910  Biso   1.000  N
  O51      1.0000 0.36050  0.09040  0.43310  Biso   1.000  O
  H327     1.0000 0.41000  0.26340  0.14470  Biso   1.000  H
  H328     1.0000 0.50820  0.26740  0.15210  Biso   1.000  H
  N64      1.0000 0.99820  0.33060  0.39990  Biso   1.000  N
  H329     1.0000 0.73300  0.43190  0.29230  Biso   1.000  H
  H330     1.0000 0.70710  0.40120  0.24160  Biso   1.000  H
  Na8      1.0000 0.71220  0.35691  0.43317  Biso   1.000  Na
  H331     1.0000 0.03220  0.14280  0.51030  Biso   1.000  H
  O52      1.0000 0.01510  0.21672  0.47395  Biso   1.000  O
  H332     1.0000 0.86120  0.19930  0.44100  Biso   1.000  H
  H333     1.0000 0.04670  0.15310  0.39760  Biso   1.000  H
  C245     1.0000 0.15170  0.11980  0.44070  Biso   1.000  C
  H334     1.0000 0.58830  0.93710  0.52030  Biso   1.000  H
  H335     1.0000 0.64620  0.98050  0.55410  Biso   1.000  H
  H336     1.0000 0.68520  0.91990  0.53700  Biso   1.000  H
  H337     1.0000 0.29080  0.99550  0.43860  Biso   1.000  H
  H338     1.0000 0.32170  0.97420  0.38500  Biso   1.000  H
  C246     1.0000 0.07180  0.36080  0.42360  Biso   1.000  C
  H339     1.0000 0.94500  0.34170  0.40760  Biso   1.000  H
  P4       1.0000 0.04432  0.24979  0.52625  Biso   1.000  P
  H340     1.0000 0.17660  0.09610  0.41200  Biso   1.000  H
  H341     1.0000 0.18220  0.15710  0.44060  Biso   1.000  H
  O53      1.0000 0.16550  0.09270  0.48900  Biso   1.000  O
  H342     1.0000 0.05070  0.39720  0.43900  Biso   1.000  H
  H343     1.0000 0.11420  0.37040  0.39560  Biso   1.000  H
  C247     1.0000 0.11710  0.32700  0.46580  Biso   1.000  C
  O54      1.0000 0.05240  0.31240  0.50547  Biso   1.000  O
  O55      1.0000 0.12910  0.22531  0.54450  Biso   1.000  O
  O56      1.0000 0.97170  0.24890  0.56480  Biso   1.000  O
  H344     1.0000 0.18250  0.05390  0.49350  Biso   1.000  H
  H345     1.0000 0.14480  0.29190  0.45090  Biso   1.000  H
  C248     1.0000 0.18370  0.36440  0.49290  Biso   1.000  C
  H346     1.0000 0.22480  0.37920  0.46670  Biso   1.000  H
  H347     1.0000 0.21530  0.34190  0.51920  Biso   1.000  H
  H348     1.0000 0.15430  0.39640  0.51030  Biso   1.000  H
