data_image0
_cell_length_a       14.234
_cell_length_b       14.234
_cell_length_c       63.76
_cell_angle_alpha    90
_cell_angle_beta     90
_cell_angle_gamma    90

_symmetry_space_group_name_H-M    "P 1"
_symmetry_int_tables_number       1

loop_
  _symmetry_equiv_pos_as_xyz
  'x, y, z'

loop_
  _atom_site_label
  _atom_site_occupancy
  _atom_site_fract_x
  _atom_site_fract_y
  _atom_site_fract_z
  _atom_site_thermal_displace_type
  _atom_site_B_iso_or_equiv
  _atom_site_type_symbol
  Tb1      1.0000 0.22408  0.98323  0.43820  Biso   1.000  Tb
  O1       1.0000 0.36910  0.03910  0.42818  Biso   1.000  O
  O2       1.0000 0.50520  0.11270  0.43022  Biso   1.000  O
  O3       1.0000 0.32380  0.00720  0.34779  Biso   1.000  O
  O4       1.0000 0.31800  0.13610  0.32923  Biso   1.000  O
  O5       1.0000 0.40590  0.12830  0.47003  Biso   1.000  O
  O6       1.0000 0.25480  0.09340  0.46430  Biso   1.000  O
  O7       1.0000 0.11160  0.21900  0.53200  Biso   1.000  O
  O8       1.0000 0.09270  0.37180  0.53451  Biso   1.000  O
  O9       1.0000 0.07520  0.01070  0.44945  Biso   1.000  O
  N1       1.0000 0.54020  0.39440  0.44220  Biso   1.000  N
  C1       1.0000 0.42910  0.09910  0.42146  Biso   1.000  C
  C2       1.0000 0.40610  0.15170  0.40145  Biso   1.000  C
  C3       1.0000 0.38110  0.10380  0.38384  Biso   1.000  C
  H1       1.0000 0.37570  0.03870  0.38420  Biso   1.000  H
  C4       1.0000 0.36380  0.15090  0.36559  Biso   1.000  C
  C5       1.0000 0.33290  0.09230  0.34593  Biso   1.000  C
  C6       1.0000 0.37410  0.24670  0.36447  Biso   1.000  C
  H2       1.0000 0.36710  0.27740  0.35170  Biso   1.000  H
  C7       1.0000 0.39440  0.29600  0.38191  Biso   1.000  C
  H3       1.0000 0.39620  0.36130  0.38120  Biso   1.000  H
  C8       1.0000 0.41290  0.25100  0.40116  Biso   1.000  C
  C9       1.0000 0.43020  0.30110  0.42074  Biso   1.000  C
  C10      1.0000 0.52050  0.35120  0.42412  Biso   1.000  C
  H4       1.0000 0.56450  0.35250  0.41340  Biso   1.000  H
  C11      1.0000 0.47770  0.38230  0.45813  Biso   1.000  C
  H5       1.0000 0.49360  0.40960  0.47090  Biso   1.000  H
  C12      1.0000 0.39460  0.33500  0.45755  Biso   1.000  C
  C13      1.0000 0.36880  0.29350  0.43793  Biso   1.000  C
  H6       1.0000 0.31200  0.26180  0.43660  Biso   1.000  H
  C14      1.0000 0.32860  0.32440  0.47582  Biso   1.000  C
  C15      1.0000 0.29270  0.23710  0.48139  Biso   1.000  C
  C16      1.0000 0.32050  0.14590  0.47118  Biso   1.000  C
  C17      1.0000 0.22860  0.23540  0.49690  Biso   1.000  C
  H7       1.0000 0.19910  0.17870  0.49990  Biso   1.000  H
  C18      1.0000 0.20380  0.31520  0.50880  Biso   1.000  C
  C19      1.0000 0.23730  0.39860  0.50291  Biso   1.000  C
  H8       1.0000 0.21640  0.45350  0.50930  Biso   1.000  H
  C20      1.0000 0.30490  0.40220  0.48680  Biso   1.000  C
  H9       1.0000 0.33380  0.45910  0.48370  Biso   1.000  H
  C21      1.0000 0.13260  0.29910  0.52630  Biso   1.000  C
  Tb2      1.0000 0.72408  0.48323  0.93820  Biso   1.000  Tb
  O10      1.0000 0.86910  0.53910  0.92818  Biso   1.000  O
  O11      1.0000 0.00520  0.61270  0.93022  Biso   1.000  O
  O12      1.0000 0.82380  0.50720  0.84779  Biso   1.000  O
  O13      1.0000 0.81800  0.63610  0.82923  Biso   1.000  O
  O14      1.0000 0.90590  0.62830  0.97003  Biso   1.000  O
  O15      1.0000 0.75480  0.59340  0.96430  Biso   1.000  O
  O16      1.0000 0.61160  0.71900  0.03200  Biso   1.000  O
  O17      1.0000 0.59270  0.87180  0.03451  Biso   1.000  O
  O18      1.0000 0.57520  0.51070  0.94945  Biso   1.000  O
  N2       1.0000 0.04020  0.89440  0.94220  Biso   1.000  N
  C22      1.0000 0.92910  0.59910  0.92146  Biso   1.000  C
  C23      1.0000 0.90610  0.65170  0.90145  Biso   1.000  C
  C24      1.0000 0.88110  0.60380  0.88384  Biso   1.000  C
  H10      1.0000 0.87570  0.53870  0.88420  Biso   1.000  H
  C25      1.0000 0.86380  0.65090  0.86559  Biso   1.000  C
  C26      1.0000 0.83290  0.59230  0.84593  Biso   1.000  C
  C27      1.0000 0.87410  0.74670  0.86447  Biso   1.000  C
  H11      1.0000 0.86710  0.77740  0.85170  Biso   1.000  H
  C28      1.0000 0.89440  0.79600  0.88191  Biso   1.000  C
  H12      1.0000 0.89620  0.86130  0.88120  Biso   1.000  H
  C29      1.0000 0.91290  0.75100  0.90116  Biso   1.000  C
  C30      1.0000 0.93020  0.80110  0.92074  Biso   1.000  C
  C31      1.0000 0.02050  0.85120  0.92412  Biso   1.000  C
  H13      1.0000 0.06450  0.85250  0.91340  Biso   1.000  H
  C32      1.0000 0.97770  0.88230  0.95813  Biso   1.000  C
  H14      1.0000 0.99360  0.90960  0.97090  Biso   1.000  H
  C33      1.0000 0.89460  0.83500  0.95755  Biso   1.000  C
  C34      1.0000 0.86880  0.79350  0.93793  Biso   1.000  C
  H15      1.0000 0.81200  0.76180  0.93660  Biso   1.000  H
  C35      1.0000 0.82860  0.82440  0.97582  Biso   1.000  C
  C36      1.0000 0.79270  0.73710  0.98139  Biso   1.000  C
  C37      1.0000 0.82050  0.64590  0.97118  Biso   1.000  C
  C38      1.0000 0.72860  0.73540  0.99690  Biso   1.000  C
  H16      1.0000 0.69910  0.67870  0.99990  Biso   1.000  H
  C39      1.0000 0.70380  0.81520  0.00880  Biso   1.000  C
  C40      1.0000 0.73730  0.89860  0.00291  Biso   1.000  C
  H17      1.0000 0.71640  0.95350  0.00930  Biso   1.000  H
  C41      1.0000 0.80490  0.90220  0.98680  Biso   1.000  C
  H18      1.0000 0.83380  0.95910  0.98370  Biso   1.000  H
  C42      1.0000 0.63260  0.79910  0.02630  Biso   1.000  C
  Tb3      1.0000 0.77592  0.01677  0.43820  Biso   1.000  Tb
  O19      1.0000 0.63090  0.96090  0.42818  Biso   1.000  O
  O20      1.0000 0.49480  0.88730  0.43022  Biso   1.000  O
  O21      1.0000 0.67620  0.99280  0.34779  Biso   1.000  O
  O22      1.0000 0.68200  0.86390  0.32923  Biso   1.000  O
  O23      1.0000 0.59410  0.87170  0.47003  Biso   1.000  O
  O24      1.0000 0.74520  0.90660  0.46430  Biso   1.000  O
  O25      1.0000 0.88840  0.78100  0.53200  Biso   1.000  O
  O26      1.0000 0.90730  0.62820  0.53451  Biso   1.000  O
  O27      1.0000 0.92480  0.98930  0.44945  Biso   1.000  O
  N3       1.0000 0.45980  0.60560  0.44220  Biso   1.000  N
  C43      1.0000 0.57090  0.90090  0.42146  Biso   1.000  C
  C44      1.0000 0.59390  0.84830  0.40145  Biso   1.000  C
  C45      1.0000 0.61890  0.89620  0.38384  Biso   1.000  C
  H19      1.0000 0.62430  0.96130  0.38420  Biso   1.000  H
  C46      1.0000 0.63620  0.84910  0.36559  Biso   1.000  C
  C47      1.0000 0.66710  0.90770  0.34593  Biso   1.000  C
  C48      1.0000 0.62590  0.75330  0.36447  Biso   1.000  C
  H20      1.0000 0.63290  0.72260  0.35170  Biso   1.000  H
  C49      1.0000 0.60560  0.70400  0.38191  Biso   1.000  C
  H21      1.0000 0.60380  0.63870  0.38120  Biso   1.000  H
  C50      1.0000 0.58710  0.74900  0.40116  Biso   1.000  C
  C51      1.0000 0.56980  0.69890  0.42074  Biso   1.000  C
  C52      1.0000 0.47950  0.64880  0.42412  Biso   1.000  C
  H22      1.0000 0.43550  0.64750  0.41340  Biso   1.000  H
  C53      1.0000 0.52230  0.61770  0.45813  Biso   1.000  C
  H23      1.0000 0.50640  0.59040  0.47090  Biso   1.000  H
  C54      1.0000 0.60540  0.66500  0.45755  Biso   1.000  C
  C55      1.0000 0.63120  0.70650  0.43793  Biso   1.000  C
  H24      1.0000 0.68800  0.73820  0.43660  Biso   1.000  H
  C56      1.0000 0.67140  0.67560  0.47582  Biso   1.000  C
  C57      1.0000 0.70730  0.76290  0.48139  Biso   1.000  C
  C58      1.0000 0.67950  0.85410  0.47118  Biso   1.000  C
  C59      1.0000 0.77140  0.76460  0.49690  Biso   1.000  C
  H25      1.0000 0.80090  0.82130  0.49990  Biso   1.000  H
  C60      1.0000 0.79620  0.68480  0.50880  Biso   1.000  C
  C61      1.0000 0.76270  0.60140  0.50291  Biso   1.000  C
  H26      1.0000 0.78360  0.54650  0.50930  Biso   1.000  H
  C62      1.0000 0.69510  0.59780  0.48680  Biso   1.000  C
  H27      1.0000 0.66620  0.54090  0.48370  Biso   1.000  H
  C63      1.0000 0.86740  0.70090  0.52630  Biso   1.000  C
  Tb4      1.0000 0.27592  0.51677  0.93820  Biso   1.000  Tb
  O28      1.0000 0.13090  0.46090  0.92818  Biso   1.000  O
  O29      1.0000 0.99480  0.38730  0.93022  Biso   1.000  O
  O30      1.0000 0.17620  0.49280  0.84779  Biso   1.000  O
  O31      1.0000 0.18200  0.36390  0.82923  Biso   1.000  O
  O32      1.0000 0.09410  0.37170  0.97003  Biso   1.000  O
  O33      1.0000 0.24520  0.40660  0.96430  Biso   1.000  O
  O34      1.0000 0.38840  0.28100  0.03200  Biso   1.000  O
  O35      1.0000 0.40730  0.12820  0.03451  Biso   1.000  O
  O36      1.0000 0.42480  0.48930  0.94945  Biso   1.000  O
  N4       1.0000 0.95980  0.10560  0.94220  Biso   1.000  N
  C64      1.0000 0.07090  0.40090  0.92146  Biso   1.000  C
  C65      1.0000 0.09390  0.34830  0.90145  Biso   1.000  C
  C66      1.0000 0.11890  0.39620  0.88384  Biso   1.000  C
  H28      1.0000 0.12430  0.46130  0.88420  Biso   1.000  H
  C67      1.0000 0.13620  0.34910  0.86559  Biso   1.000  C
  C68      1.0000 0.16710  0.40770  0.84593  Biso   1.000  C
  C69      1.0000 0.12590  0.25330  0.86447  Biso   1.000  C
  H29      1.0000 0.13290  0.22260  0.85170  Biso   1.000  H
  C70      1.0000 0.10560  0.20400  0.88191  Biso   1.000  C
  H30      1.0000 0.10380  0.13870  0.88120  Biso   1.000  H
  C71      1.0000 0.08710  0.24900  0.90116  Biso   1.000  C
  C72      1.0000 0.06980  0.19890  0.92074  Biso   1.000  C
  C73      1.0000 0.97950  0.14880  0.92412  Biso   1.000  C
  H31      1.0000 0.93550  0.14750  0.91340  Biso   1.000  H
  C74      1.0000 0.02230  0.11770  0.95813  Biso   1.000  C
  H32      1.0000 0.00640  0.09040  0.97090  Biso   1.000  H
  C75      1.0000 0.10540  0.16500  0.95755  Biso   1.000  C
  C76      1.0000 0.13120  0.20650  0.93793  Biso   1.000  C
  H33      1.0000 0.18800  0.23820  0.93660  Biso   1.000  H
  C77      1.0000 0.17140  0.17560  0.97582  Biso   1.000  C
  C78      1.0000 0.20730  0.26290  0.98139  Biso   1.000  C
  C79      1.0000 0.17950  0.35410  0.97118  Biso   1.000  C
  C80      1.0000 0.27140  0.26460  0.99690  Biso   1.000  C
  H34      1.0000 0.30090  0.32130  0.99990  Biso   1.000  H
  C81      1.0000 0.29620  0.18480  0.00880  Biso   1.000  C
  C82      1.0000 0.26270  0.10140  0.00291  Biso   1.000  C
  H35      1.0000 0.28360  0.04650  0.00930  Biso   1.000  H
  C83      1.0000 0.19510  0.09780  0.98680  Biso   1.000  C
  H36      1.0000 0.16620  0.04090  0.98370  Biso   1.000  H
  C84      1.0000 0.36740  0.20090  0.02630  Biso   1.000  C
  Tb5      1.0000 0.98323  0.77592  0.56180  Biso   1.000  Tb
  O37      1.0000 0.03910  0.63090  0.57182  Biso   1.000  O
  O38      1.0000 0.11270  0.49480  0.56978  Biso   1.000  O
  O39      1.0000 0.00720  0.67620  0.65221  Biso   1.000  O
  O40      1.0000 0.13610  0.68200  0.67077  Biso   1.000  O
  O41      1.0000 0.12830  0.59410  0.52997  Biso   1.000  O
  O42      1.0000 0.09340  0.74520  0.53570  Biso   1.000  O
  O43      1.0000 0.21900  0.88840  0.46800  Biso   1.000  O
  O44      1.0000 0.37180  0.90730  0.46549  Biso   1.000  O
  O45      1.0000 0.01070  0.92480  0.55055  Biso   1.000  O
  N5       1.0000 0.39440  0.45980  0.55780  Biso   1.000  N
  C85      1.0000 0.09910  0.57090  0.57854  Biso   1.000  C
  C86      1.0000 0.15170  0.59390  0.59855  Biso   1.000  C
  C87      1.0000 0.10380  0.61890  0.61616  Biso   1.000  C
  H37      1.0000 0.03870  0.62430  0.61580  Biso   1.000  H
  C88      1.0000 0.15090  0.63620  0.63441  Biso   1.000  C
  C89      1.0000 0.09230  0.66710  0.65407  Biso   1.000  C
  C90      1.0000 0.24670  0.62590  0.63553  Biso   1.000  C
  H38      1.0000 0.27740  0.63290  0.64830  Biso   1.000  H
  C91      1.0000 0.29600  0.60560  0.61809  Biso   1.000  C
  H39      1.0000 0.36130  0.60380  0.61880  Biso   1.000  H
  C92      1.0000 0.25100  0.58710  0.59884  Biso   1.000  C
  C93      1.0000 0.30110  0.56980  0.57926  Biso   1.000  C
  C94      1.0000 0.35120  0.47950  0.57588  Biso   1.000  C
  H40      1.0000 0.35250  0.43550  0.58660  Biso   1.000  H
  C95      1.0000 0.38230  0.52230  0.54187  Biso   1.000  C
  H41      1.0000 0.40960  0.50640  0.52910  Biso   1.000  H
  C96      1.0000 0.33500  0.60540  0.54245  Biso   1.000  C
  C97      1.0000 0.29350  0.63120  0.56207  Biso   1.000  C
  H42      1.0000 0.26180  0.68800  0.56340  Biso   1.000  H
  C98      1.0000 0.32440  0.67140  0.52418  Biso   1.000  C
  C99      1.0000 0.23710  0.70730  0.51861  Biso   1.000  C
  C100     1.0000 0.14590  0.67950  0.52882  Biso   1.000  C
  C101     1.0000 0.23540  0.77140  0.50310  Biso   1.000  C
  H43      1.0000 0.17870  0.80090  0.50010  Biso   1.000  H
  C102     1.0000 0.31520  0.79620  0.49120  Biso   1.000  C
  C103     1.0000 0.39860  0.76270  0.49709  Biso   1.000  C
  H44      1.0000 0.45350  0.78360  0.49070  Biso   1.000  H
  C104     1.0000 0.40220  0.69510  0.51320  Biso   1.000  C
  H45      1.0000 0.45910  0.66620  0.51630  Biso   1.000  H
  C105     1.0000 0.29910  0.86740  0.47370  Biso   1.000  C
  Tb6      1.0000 0.48323  0.27592  0.06180  Biso   1.000  Tb
  O46      1.0000 0.53910  0.13090  0.07182  Biso   1.000  O
  O47      1.0000 0.61270  0.99480  0.06978  Biso   1.000  O
  O48      1.0000 0.50720  0.17620  0.15221  Biso   1.000  O
  O49      1.0000 0.63610  0.18200  0.17077  Biso   1.000  O
  O50      1.0000 0.62830  0.09410  0.02997  Biso   1.000  O
  O51      1.0000 0.59340  0.24520  0.03570  Biso   1.000  O
  O52      1.0000 0.71900  0.38840  0.96800  Biso   1.000  O
  O53      1.0000 0.87180  0.40730  0.96549  Biso   1.000  O
  O54      1.0000 0.51070  0.42480  0.05055  Biso   1.000  O
  N6       1.0000 0.89440  0.95980  0.05780  Biso   1.000  N
  C106     1.0000 0.59910  0.07090  0.07854  Biso   1.000  C
  C107     1.0000 0.65170  0.09390  0.09855  Biso   1.000  C
  C108     1.0000 0.60380  0.11890  0.11616  Biso   1.000  C
  H46      1.0000 0.53870  0.12430  0.11580  Biso   1.000  H
  C109     1.0000 0.65090  0.13620  0.13441  Biso   1.000  C
  C110     1.0000 0.59230  0.16710  0.15407  Biso   1.000  C
  C111     1.0000 0.74670  0.12590  0.13553  Biso   1.000  C
  H47      1.0000 0.77740  0.13290  0.14830  Biso   1.000  H
  C112     1.0000 0.79600  0.10560  0.11809  Biso   1.000  C
  H48      1.0000 0.86130  0.10380  0.11880  Biso   1.000  H
  C113     1.0000 0.75100  0.08710  0.09884  Biso   1.000  C
  C114     1.0000 0.80110  0.06980  0.07926  Biso   1.000  C
  C115     1.0000 0.85120  0.97950  0.07588  Biso   1.000  C
  H49      1.0000 0.85250  0.93550  0.08660  Biso   1.000  H
  C116     1.0000 0.88230  0.02230  0.04187  Biso   1.000  C
  H50      1.0000 0.90960  0.00640  0.02910  Biso   1.000  H
  C117     1.0000 0.83500  0.10540  0.04245  Biso   1.000  C
  C118     1.0000 0.79350  0.13120  0.06207  Biso   1.000  C
  H51      1.0000 0.76180  0.18800  0.06340  Biso   1.000  H
  C119     1.0000 0.82440  0.17140  0.02418  Biso   1.000  C
  C120     1.0000 0.73710  0.20730  0.01861  Biso   1.000  C
  C121     1.0000 0.64590  0.17950  0.02882  Biso   1.000  C
  C122     1.0000 0.73540  0.27140  0.00310  Biso   1.000  C
  H52      1.0000 0.67870  0.30090  0.00010  Biso   1.000  H
  C123     1.0000 0.81520  0.29620  0.99120  Biso   1.000  C
  C124     1.0000 0.89860  0.26270  0.99709  Biso   1.000  C
  H53      1.0000 0.95350  0.28360  0.99070  Biso   1.000  H
  C125     1.0000 0.90220  0.19510  0.01320  Biso   1.000  C
  H54      1.0000 0.95910  0.16620  0.01630  Biso   1.000  H
  C126     1.0000 0.79910  0.36740  0.97370  Biso   1.000  C
  Tb7      1.0000 0.01677  0.22408  0.56180  Biso   1.000  Tb
  O55      1.0000 0.96090  0.36910  0.57182  Biso   1.000  O
  O56      1.0000 0.88730  0.50520  0.56978  Biso   1.000  O
  O57      1.0000 0.99280  0.32380  0.65221  Biso   1.000  O
  O58      1.0000 0.86390  0.31800  0.67077  Biso   1.000  O
  O59      1.0000 0.87170  0.40590  0.52997  Biso   1.000  O
  O60      1.0000 0.90660  0.25480  0.53570  Biso   1.000  O
  O61      1.0000 0.78100  0.11160  0.46800  Biso   1.000  O
  O62      1.0000 0.62820  0.09270  0.46549  Biso   1.000  O
  O63      1.0000 0.98930  0.07520  0.55055  Biso   1.000  O
  N7       1.0000 0.60560  0.54020  0.55780  Biso   1.000  N
  C127     1.0000 0.90090  0.42910  0.57854  Biso   1.000  C
  C128     1.0000 0.84830  0.40610  0.59855  Biso   1.000  C
  C129     1.0000 0.89620  0.38110  0.61616  Biso   1.000  C
  H55      1.0000 0.96130  0.37570  0.61580  Biso   1.000  H
  C130     1.0000 0.84910  0.36380  0.63441  Biso   1.000  C
  C131     1.0000 0.90770  0.33290  0.65407  Biso   1.000  C
  C132     1.0000 0.75330  0.37410  0.63553  Biso   1.000  C
  H56      1.0000 0.72260  0.36710  0.64830  Biso   1.000  H
  C133     1.0000 0.70400  0.39440  0.61809  Biso   1.000  C
  H57      1.0000 0.63870  0.39620  0.61880  Biso   1.000  H
  C134     1.0000 0.74900  0.41290  0.59884  Biso   1.000  C
  C135     1.0000 0.69890  0.43020  0.57926  Biso   1.000  C
  C136     1.0000 0.64880  0.52050  0.57588  Biso   1.000  C
  H58      1.0000 0.64750  0.56450  0.58660  Biso   1.000  H
  C137     1.0000 0.61770  0.47770  0.54187  Biso   1.000  C
  H59      1.0000 0.59040  0.49360  0.52910  Biso   1.000  H
  C138     1.0000 0.66500  0.39460  0.54245  Biso   1.000  C
  C139     1.0000 0.70650  0.36880  0.56207  Biso   1.000  C
  H60      1.0000 0.73820  0.31200  0.56340  Biso   1.000  H
  C140     1.0000 0.67560  0.32860  0.52418  Biso   1.000  C
  C141     1.0000 0.76290  0.29270  0.51861  Biso   1.000  C
  C142     1.0000 0.85410  0.32050  0.52882  Biso   1.000  C
  C143     1.0000 0.76460  0.22860  0.50310  Biso   1.000  C
  H61      1.0000 0.82130  0.19910  0.50010  Biso   1.000  H
  C144     1.0000 0.68480  0.20380  0.49120  Biso   1.000  C
  C145     1.0000 0.60140  0.23730  0.49709  Biso   1.000  C
  H62      1.0000 0.54650  0.21640  0.49070  Biso   1.000  H
  C146     1.0000 0.59780  0.30490  0.51320  Biso   1.000  C
  H63      1.0000 0.54090  0.33380  0.51630  Biso   1.000  H
  C147     1.0000 0.70090  0.13260  0.47370  Biso   1.000  C
  Tb8      1.0000 0.51677  0.72408  0.06180  Biso   1.000  Tb
  O64      1.0000 0.46090  0.86910  0.07182  Biso   1.000  O
  O65      1.0000 0.38730  0.00520  0.06978  Biso   1.000  O
  O66      1.0000 0.49280  0.82380  0.15221  Biso   1.000  O
  O67      1.0000 0.36390  0.81800  0.17077  Biso   1.000  O
  O68      1.0000 0.37170  0.90590  0.02997  Biso   1.000  O
  O69      1.0000 0.40660  0.75480  0.03570  Biso   1.000  O
  O70      1.0000 0.28100  0.61160  0.96800  Biso   1.000  O
  O71      1.0000 0.12820  0.59270  0.96549  Biso   1.000  O
  O72      1.0000 0.48930  0.57520  0.05055  Biso   1.000  O
  N8       1.0000 0.10560  0.04020  0.05780  Biso   1.000  N
  C148     1.0000 0.40090  0.92910  0.07854  Biso   1.000  C
  C149     1.0000 0.34830  0.90610  0.09855  Biso   1.000  C
  C150     1.0000 0.39620  0.88110  0.11616  Biso   1.000  C
  H64      1.0000 0.46130  0.87570  0.11580  Biso   1.000  H
  C151     1.0000 0.34910  0.86380  0.13441  Biso   1.000  C
  C152     1.0000 0.40770  0.83290  0.15407  Biso   1.000  C
  C153     1.0000 0.25330  0.87410  0.13553  Biso   1.000  C
  H65      1.0000 0.22260  0.86710  0.14830  Biso   1.000  H
  C154     1.0000 0.20400  0.89440  0.11809  Biso   1.000  C
  H66      1.0000 0.13870  0.89620  0.11880  Biso   1.000  H
  C155     1.0000 0.24900  0.91290  0.09884  Biso   1.000  C
  C156     1.0000 0.19890  0.93020  0.07926  Biso   1.000  C
  C157     1.0000 0.14880  0.02050  0.07588  Biso   1.000  C
  H67      1.0000 0.14750  0.06450  0.08660  Biso   1.000  H
  C158     1.0000 0.11770  0.97770  0.04187  Biso   1.000  C
  H68      1.0000 0.09040  0.99360  0.02910  Biso   1.000  H
  C159     1.0000 0.16500  0.89460  0.04245  Biso   1.000  C
  C160     1.0000 0.20650  0.86880  0.06207  Biso   1.000  C
  H69      1.0000 0.23820  0.81200  0.06340  Biso   1.000  H
  C161     1.0000 0.17560  0.82860  0.02418  Biso   1.000  C
  C162     1.0000 0.26290  0.79270  0.01861  Biso   1.000  C
  C163     1.0000 0.35410  0.82050  0.02882  Biso   1.000  C
  C164     1.0000 0.26460  0.72860  0.00310  Biso   1.000  C
  H70      1.0000 0.32130  0.69910  0.00010  Biso   1.000  H
  C165     1.0000 0.18480  0.70380  0.99120  Biso   1.000  C
  C166     1.0000 0.10140  0.73730  0.99709  Biso   1.000  C
  H71      1.0000 0.04650  0.71640  0.99070  Biso   1.000  H
  C167     1.0000 0.09780  0.80490  0.01320  Biso   1.000  C
  H72      1.0000 0.04090  0.83380  0.01630  Biso   1.000  H
  C168     1.0000 0.20090  0.63260  0.97370  Biso   1.000  C
  Tb9      1.0000 0.27592  0.98323  0.31180  Biso   1.000  Tb
  O73      1.0000 0.13090  0.03910  0.32182  Biso   1.000  O
  O74      1.0000 0.99480  0.11270  0.31978  Biso   1.000  O
  O75      1.0000 0.17620  0.00720  0.40221  Biso   1.000  O
  O76      1.0000 0.18200  0.13610  0.42077  Biso   1.000  O
  O77      1.0000 0.09410  0.12830  0.27997  Biso   1.000  O
  O78      1.0000 0.24520  0.09340  0.28570  Biso   1.000  O
  O79      1.0000 0.38840  0.21900  0.21800  Biso   1.000  O
  O80      1.0000 0.40730  0.37180  0.21549  Biso   1.000  O
  O81      1.0000 0.42480  0.01070  0.30055  Biso   1.000  O
  N9       1.0000 0.95980  0.39440  0.30780  Biso   1.000  N
  C169     1.0000 0.07090  0.09910  0.32854  Biso   1.000  C
  C170     1.0000 0.09390  0.15170  0.34855  Biso   1.000  C
  C171     1.0000 0.11890  0.10380  0.36616  Biso   1.000  C
  H73      1.0000 0.12430  0.03870  0.36580  Biso   1.000  H
  C172     1.0000 0.13620  0.15090  0.38441  Biso   1.000  C
  C173     1.0000 0.16710  0.09230  0.40407  Biso   1.000  C
  C174     1.0000 0.12590  0.24670  0.38553  Biso   1.000  C
  H74      1.0000 0.13290  0.27740  0.39830  Biso   1.000  H
  C175     1.0000 0.10560  0.29600  0.36809  Biso   1.000  C
  H75      1.0000 0.10380  0.36130  0.36880  Biso   1.000  H
  C176     1.0000 0.08710  0.25100  0.34884  Biso   1.000  C
  C177     1.0000 0.06980  0.30110  0.32926  Biso   1.000  C
  C178     1.0000 0.97950  0.35120  0.32588  Biso   1.000  C
  H76      1.0000 0.93550  0.35250  0.33660  Biso   1.000  H
  C179     1.0000 0.02230  0.38230  0.29187  Biso   1.000  C
  H77      1.0000 0.00640  0.40960  0.27910  Biso   1.000  H
  C180     1.0000 0.10540  0.33500  0.29245  Biso   1.000  C
  C181     1.0000 0.13120  0.29350  0.31207  Biso   1.000  C
  H78      1.0000 0.18800  0.26180  0.31340  Biso   1.000  H
  C182     1.0000 0.17140  0.32440  0.27418  Biso   1.000  C
  C183     1.0000 0.20730  0.23710  0.26861  Biso   1.000  C
  C184     1.0000 0.17950  0.14590  0.27882  Biso   1.000  C
  C185     1.0000 0.27140  0.23540  0.25310  Biso   1.000  C
  H79      1.0000 0.30090  0.17870  0.25010  Biso   1.000  H
  C186     1.0000 0.29620  0.31520  0.24120  Biso   1.000  C
  C187     1.0000 0.26270  0.39860  0.24709  Biso   1.000  C
  H80      1.0000 0.28360  0.45350  0.24070  Biso   1.000  H
  C188     1.0000 0.19510  0.40220  0.26320  Biso   1.000  C
  H81      1.0000 0.16620  0.45910  0.26630  Biso   1.000  H
  C189     1.0000 0.36740  0.29910  0.22370  Biso   1.000  C
  Tb10     1.0000 0.77592  0.48323  0.81180  Biso   1.000  Tb
  O82      1.0000 0.63090  0.53910  0.82182  Biso   1.000  O
  O83      1.0000 0.49480  0.61270  0.81978  Biso   1.000  O
  O84      1.0000 0.67620  0.50720  0.90221  Biso   1.000  O
  O85      1.0000 0.68200  0.63610  0.92077  Biso   1.000  O
  O86      1.0000 0.59410  0.62830  0.77997  Biso   1.000  O
  O87      1.0000 0.74520  0.59340  0.78570  Biso   1.000  O
  O88      1.0000 0.88840  0.71900  0.71800  Biso   1.000  O
  O89      1.0000 0.90730  0.87180  0.71549  Biso   1.000  O
  O90      1.0000 0.92480  0.51070  0.80055  Biso   1.000  O
  N10      1.0000 0.45980  0.89440  0.80780  Biso   1.000  N
  C190     1.0000 0.57090  0.59910  0.82854  Biso   1.000  C
  C191     1.0000 0.59390  0.65170  0.84855  Biso   1.000  C
  C192     1.0000 0.61890  0.60380  0.86616  Biso   1.000  C
  H82      1.0000 0.62430  0.53870  0.86580  Biso   1.000  H
  C193     1.0000 0.63620  0.65090  0.88441  Biso   1.000  C
  C194     1.0000 0.66710  0.59230  0.90407  Biso   1.000  C
  C195     1.0000 0.62590  0.74670  0.88553  Biso   1.000  C
  H83      1.0000 0.63290  0.77740  0.89830  Biso   1.000  H
  C196     1.0000 0.60560  0.79600  0.86809  Biso   1.000  C
  H84      1.0000 0.60380  0.86130  0.86880  Biso   1.000  H
  C197     1.0000 0.58710  0.75100  0.84884  Biso   1.000  C
  C198     1.0000 0.56980  0.80110  0.82926  Biso   1.000  C
  C199     1.0000 0.47950  0.85120  0.82588  Biso   1.000  C
  H85      1.0000 0.43550  0.85250  0.83660  Biso   1.000  H
  C200     1.0000 0.52230  0.88230  0.79187  Biso   1.000  C
  H86      1.0000 0.50640  0.90960  0.77910  Biso   1.000  H
  C201     1.0000 0.60540  0.83500  0.79245  Biso   1.000  C
  C202     1.0000 0.63120  0.79350  0.81207  Biso   1.000  C
  H87      1.0000 0.68800  0.76180  0.81340  Biso   1.000  H
  C203     1.0000 0.67140  0.82440  0.77418  Biso   1.000  C
  C204     1.0000 0.70730  0.73710  0.76861  Biso   1.000  C
  C205     1.0000 0.67950  0.64590  0.77882  Biso   1.000  C
  C206     1.0000 0.77140  0.73540  0.75310  Biso   1.000  C
  H88      1.0000 0.80090  0.67870  0.75010  Biso   1.000  H
  C207     1.0000 0.79620  0.81520  0.74120  Biso   1.000  C
  C208     1.0000 0.76270  0.89860  0.74709  Biso   1.000  C
  H89      1.0000 0.78360  0.95350  0.74070  Biso   1.000  H
  C209     1.0000 0.69510  0.90220  0.76320  Biso   1.000  C
  H90      1.0000 0.66620  0.95910  0.76630  Biso   1.000  H
  C210     1.0000 0.86740  0.79910  0.72370  Biso   1.000  C
  Tb11     1.0000 0.72408  0.01677  0.31180  Biso   1.000  Tb
  O91      1.0000 0.86910  0.96090  0.32182  Biso   1.000  O
  O92      1.0000 0.00520  0.88730  0.31978  Biso   1.000  O
  O93      1.0000 0.82380  0.99280  0.40221  Biso   1.000  O
  O94      1.0000 0.81800  0.86390  0.42077  Biso   1.000  O
  O95      1.0000 0.90590  0.87170  0.27997  Biso   1.000  O
  O96      1.0000 0.75480  0.90660  0.28570  Biso   1.000  O
  O97      1.0000 0.61160  0.78100  0.21800  Biso   1.000  O
  O98      1.0000 0.59270  0.62820  0.21549  Biso   1.000  O
  O99      1.0000 0.57520  0.98930  0.30055  Biso   1.000  O
  N11      1.0000 0.04020  0.60560  0.30780  Biso   1.000  N
  C211     1.0000 0.92910  0.90090  0.32854  Biso   1.000  C
  C212     1.0000 0.90610  0.84830  0.34855  Biso   1.000  C
  C213     1.0000 0.88110  0.89620  0.36616  Biso   1.000  C
  H91      1.0000 0.87570  0.96130  0.36580  Biso   1.000  H
  C214     1.0000 0.86380  0.84910  0.38441  Biso   1.000  C
  C215     1.0000 0.83290  0.90770  0.40407  Biso   1.000  C
  C216     1.0000 0.87410  0.75330  0.38553  Biso   1.000  C
  H92      1.0000 0.86710  0.72260  0.39830  Biso   1.000  H
  C217     1.0000 0.89440  0.70400  0.36809  Biso   1.000  C
  H93      1.0000 0.89620  0.63870  0.36880  Biso   1.000  H
  C218     1.0000 0.91290  0.74900  0.34884  Biso   1.000  C
  C219     1.0000 0.93020  0.69890  0.32926  Biso   1.000  C
  C220     1.0000 0.02050  0.64880  0.32588  Biso   1.000  C
  H94      1.0000 0.06450  0.64750  0.33660  Biso   1.000  H
  C221     1.0000 0.97770  0.61770  0.29187  Biso   1.000  C
  H95      1.0000 0.99360  0.59040  0.27910  Biso   1.000  H
  C222     1.0000 0.89460  0.66500  0.29245  Biso   1.000  C
  C223     1.0000 0.86880  0.70650  0.31207  Biso   1.000  C
  H96      1.0000 0.81200  0.73820  0.31340  Biso   1.000  H
  C224     1.0000 0.82860  0.67560  0.27418  Biso   1.000  C
  C225     1.0000 0.79270  0.76290  0.26861  Biso   1.000  C
  C226     1.0000 0.82050  0.85410  0.27882  Biso   1.000  C
  C227     1.0000 0.72860  0.76460  0.25310  Biso   1.000  C
  H97      1.0000 0.69910  0.82130  0.25010  Biso   1.000  H
  C228     1.0000 0.70380  0.68480  0.24120  Biso   1.000  C
  C229     1.0000 0.73730  0.60140  0.24709  Biso   1.000  C
  H98      1.0000 0.71640  0.54650  0.24070  Biso   1.000  H
  C230     1.0000 0.80490  0.59780  0.26320  Biso   1.000  C
  H99      1.0000 0.83380  0.54090  0.26630  Biso   1.000  H
  C231     1.0000 0.63260  0.70090  0.22370  Biso   1.000  C
  Tb12     1.0000 0.22408  0.51677  0.81180  Biso   1.000  Tb
  O100     1.0000 0.36910  0.46090  0.82182  Biso   1.000  O
  O101     1.0000 0.50520  0.38730  0.81978  Biso   1.000  O
  O102     1.0000 0.32380  0.49280  0.90221  Biso   1.000  O
  O103     1.0000 0.31800  0.36390  0.92077  Biso   1.000  O
  O104     1.0000 0.40590  0.37170  0.77997  Biso   1.000  O
  O105     1.0000 0.25480  0.40660  0.78570  Biso   1.000  O
  O106     1.0000 0.11160  0.28100  0.71800  Biso   1.000  O
  O107     1.0000 0.09270  0.12820  0.71549  Biso   1.000  O
  O108     1.0000 0.07520  0.48930  0.80055  Biso   1.000  O
  N12      1.0000 0.54020  0.10560  0.80780  Biso   1.000  N
  C232     1.0000 0.42910  0.40090  0.82854  Biso   1.000  C
  C233     1.0000 0.40610  0.34830  0.84855  Biso   1.000  C
  C234     1.0000 0.38110  0.39620  0.86616  Biso   1.000  C
  H100     1.0000 0.37570  0.46130  0.86580  Biso   1.000  H
  C235     1.0000 0.36380  0.34910  0.88441  Biso   1.000  C
  C236     1.0000 0.33290  0.40770  0.90407  Biso   1.000  C
  C237     1.0000 0.37410  0.25330  0.88553  Biso   1.000  C
  H101     1.0000 0.36710  0.22260  0.89830  Biso   1.000  H
  C238     1.0000 0.39440  0.20400  0.86809  Biso   1.000  C
  H102     1.0000 0.39620  0.13870  0.86880  Biso   1.000  H
  C239     1.0000 0.41290  0.24900  0.84884  Biso   1.000  C
  C240     1.0000 0.43020  0.19890  0.82926  Biso   1.000  C
  C241     1.0000 0.52050  0.14880  0.82588  Biso   1.000  C
  H103     1.0000 0.56450  0.14750  0.83660  Biso   1.000  H
  C242     1.0000 0.47770  0.11770  0.79187  Biso   1.000  C
  H104     1.0000 0.49360  0.09040  0.77910  Biso   1.000  H
  C243     1.0000 0.39460  0.16500  0.79245  Biso   1.000  C
  C244     1.0000 0.36880  0.20650  0.81207  Biso   1.000  C
  H105     1.0000 0.31200  0.23820  0.81340  Biso   1.000  H
  C245     1.0000 0.32860  0.17560  0.77418  Biso   1.000  C
  C246     1.0000 0.29270  0.26290  0.76861  Biso   1.000  C
  C247     1.0000 0.32050  0.35410  0.77882  Biso   1.000  C
  C248     1.0000 0.22860  0.26460  0.75310  Biso   1.000  C
  H106     1.0000 0.19910  0.32130  0.75010  Biso   1.000  H
  C249     1.0000 0.20380  0.18480  0.74120  Biso   1.000  C
  C250     1.0000 0.23730  0.10140  0.74709  Biso   1.000  C
  H107     1.0000 0.21640  0.04650  0.74070  Biso   1.000  H
  C251     1.0000 0.30490  0.09780  0.76320  Biso   1.000  C
  H108     1.0000 0.33380  0.04090  0.76630  Biso   1.000  H
  C252     1.0000 0.13260  0.20090  0.72370  Biso   1.000  C
  Tb13     1.0000 0.51677  0.77592  0.18820  Biso   1.000  Tb
  O109     1.0000 0.46090  0.63090  0.17818  Biso   1.000  O
  O110     1.0000 0.38730  0.49480  0.18022  Biso   1.000  O
  O111     1.0000 0.49280  0.67620  0.09779  Biso   1.000  O
  O112     1.0000 0.36390  0.68200  0.07923  Biso   1.000  O
  O113     1.0000 0.37170  0.59410  0.22003  Biso   1.000  O
  O114     1.0000 0.40660  0.74520  0.21430  Biso   1.000  O
  O115     1.0000 0.28100  0.88840  0.28200  Biso   1.000  O
  O116     1.0000 0.12820  0.90730  0.28451  Biso   1.000  O
  O117     1.0000 0.48930  0.92480  0.19945  Biso   1.000  O
  N13      1.0000 0.10560  0.45980  0.19220  Biso   1.000  N
  C253     1.0000 0.40090  0.57090  0.17146  Biso   1.000  C
  C254     1.0000 0.34830  0.59390  0.15145  Biso   1.000  C
  C255     1.0000 0.39620  0.61890  0.13384  Biso   1.000  C
  H109     1.0000 0.46130  0.62430  0.13420  Biso   1.000  H
  C256     1.0000 0.34910  0.63620  0.11559  Biso   1.000  C
  C257     1.0000 0.40770  0.66710  0.09593  Biso   1.000  C
  C258     1.0000 0.25330  0.62590  0.11447  Biso   1.000  C
  H110     1.0000 0.22260  0.63290  0.10170  Biso   1.000  H
  C259     1.0000 0.20400  0.60560  0.13191  Biso   1.000  C
  H111     1.0000 0.13870  0.60380  0.13120  Biso   1.000  H
  C260     1.0000 0.24900  0.58710  0.15116  Biso   1.000  C
  C261     1.0000 0.19890  0.56980  0.17074  Biso   1.000  C
  C262     1.0000 0.14880  0.47950  0.17412  Biso   1.000  C
  H112     1.0000 0.14750  0.43550  0.16340  Biso   1.000  H
  C263     1.0000 0.11770  0.52230  0.20813  Biso   1.000  C
  H113     1.0000 0.09040  0.50640  0.22090  Biso   1.000  H
  C264     1.0000 0.16500  0.60540  0.20755  Biso   1.000  C
  C265     1.0000 0.20650  0.63120  0.18793  Biso   1.000  C
  H114     1.0000 0.23820  0.68800  0.18660  Biso   1.000  H
  C266     1.0000 0.17560  0.67140  0.22582  Biso   1.000  C
  C267     1.0000 0.26290  0.70730  0.23139  Biso   1.000  C
  C268     1.0000 0.35410  0.67950  0.22118  Biso   1.000  C
  C269     1.0000 0.26460  0.77140  0.24690  Biso   1.000  C
  H115     1.0000 0.32130  0.80090  0.24990  Biso   1.000  H
  C270     1.0000 0.18480  0.79620  0.25880  Biso   1.000  C
  C271     1.0000 0.10140  0.76270  0.25291  Biso   1.000  C
  H116     1.0000 0.04650  0.78360  0.25930  Biso   1.000  H
  C272     1.0000 0.09780  0.69510  0.23680  Biso   1.000  C
  H117     1.0000 0.04090  0.66620  0.23370  Biso   1.000  H
  C273     1.0000 0.20090  0.86740  0.27630  Biso   1.000  C
  Tb14     1.0000 0.01677  0.27592  0.68820  Biso   1.000  Tb
  O118     1.0000 0.96090  0.13090  0.67818  Biso   1.000  O
  O119     1.0000 0.88730  0.99480  0.68022  Biso   1.000  O
  O120     1.0000 0.99280  0.17620  0.59779  Biso   1.000  O
  O121     1.0000 0.86390  0.18200  0.57923  Biso   1.000  O
  O122     1.0000 0.87170  0.09410  0.72003  Biso   1.000  O
  O123     1.0000 0.90660  0.24520  0.71430  Biso   1.000  O
  O124     1.0000 0.78100  0.38840  0.78200  Biso   1.000  O
  O125     1.0000 0.62820  0.40730  0.78451  Biso   1.000  O
  O126     1.0000 0.98930  0.42480  0.69945  Biso   1.000  O
  N14      1.0000 0.60560  0.95980  0.69220  Biso   1.000  N
  C274     1.0000 0.90090  0.07090  0.67146  Biso   1.000  C
  C275     1.0000 0.84830  0.09390  0.65145  Biso   1.000  C
  C276     1.0000 0.89620  0.11890  0.63384  Biso   1.000  C
  H118     1.0000 0.96130  0.12430  0.63420  Biso   1.000  H
  C277     1.0000 0.84910  0.13620  0.61559  Biso   1.000  C
  C278     1.0000 0.90770  0.16710  0.59593  Biso   1.000  C
  C279     1.0000 0.75330  0.12590  0.61447  Biso   1.000  C
  H119     1.0000 0.72260  0.13290  0.60170  Biso   1.000  H
  C280     1.0000 0.70400  0.10560  0.63191  Biso   1.000  C
  H120     1.0000 0.63870  0.10380  0.63120  Biso   1.000  H
  C281     1.0000 0.74900  0.08710  0.65116  Biso   1.000  C
  C282     1.0000 0.69890  0.06980  0.67074  Biso   1.000  C
  C283     1.0000 0.64880  0.97950  0.67412  Biso   1.000  C
  H121     1.0000 0.64750  0.93550  0.66340  Biso   1.000  H
  C284     1.0000 0.61770  0.02230  0.70813  Biso   1.000  C
  H122     1.0000 0.59040  0.00640  0.72090  Biso   1.000  H
  C285     1.0000 0.66500  0.10540  0.70755  Biso   1.000  C
  C286     1.0000 0.70650  0.13120  0.68793  Biso   1.000  C
  H123     1.0000 0.73820  0.18800  0.68660  Biso   1.000  H
  C287     1.0000 0.67560  0.17140  0.72582  Biso   1.000  C
  C288     1.0000 0.76290  0.20730  0.73139  Biso   1.000  C
  C289     1.0000 0.85410  0.17950  0.72118  Biso   1.000  C
  C290     1.0000 0.76460  0.27140  0.74690  Biso   1.000  C
  H124     1.0000 0.82130  0.30090  0.74990  Biso   1.000  H
  C291     1.0000 0.68480  0.29620  0.75880  Biso   1.000  C
  C292     1.0000 0.60140  0.26270  0.75291  Biso   1.000  C
  H125     1.0000 0.54650  0.28360  0.75930  Biso   1.000  H
  C293     1.0000 0.59780  0.19510  0.73680  Biso   1.000  C
  H126     1.0000 0.54090  0.16620  0.73370  Biso   1.000  H
  C294     1.0000 0.70090  0.36740  0.77630  Biso   1.000  C
  Tb15     1.0000 0.48323  0.22408  0.18820  Biso   1.000  Tb
  O127     1.0000 0.53910  0.36910  0.17818  Biso   1.000  O
  O128     1.0000 0.61270  0.50520  0.18022  Biso   1.000  O
  O129     1.0000 0.50720  0.32380  0.09779  Biso   1.000  O
  O130     1.0000 0.63610  0.31800  0.07923  Biso   1.000  O
  O131     1.0000 0.62830  0.40590  0.22003  Biso   1.000  O
  O132     1.0000 0.59340  0.25480  0.21430  Biso   1.000  O
  O133     1.0000 0.71900  0.11160  0.28200  Biso   1.000  O
  O134     1.0000 0.87180  0.09270  0.28451  Biso   1.000  O
  O135     1.0000 0.51070  0.07520  0.19945  Biso   1.000  O
  N15      1.0000 0.89440  0.54020  0.19220  Biso   1.000  N
  C295     1.0000 0.59910  0.42910  0.17146  Biso   1.000  C
  C296     1.0000 0.65170  0.40610  0.15145  Biso   1.000  C
  C297     1.0000 0.60380  0.38110  0.13384  Biso   1.000  C
  H127     1.0000 0.53870  0.37570  0.13420  Biso   1.000  H
  C298     1.0000 0.65090  0.36380  0.11559  Biso   1.000  C
  C299     1.0000 0.59230  0.33290  0.09593  Biso   1.000  C
  C300     1.0000 0.74670  0.37410  0.11447  Biso   1.000  C
  H128     1.0000 0.77740  0.36710  0.10170  Biso   1.000  H
  C301     1.0000 0.79600  0.39440  0.13191  Biso   1.000  C
  H129     1.0000 0.86130  0.39620  0.13120  Biso   1.000  H
  C302     1.0000 0.75100  0.41290  0.15116  Biso   1.000  C
  C303     1.0000 0.80110  0.43020  0.17074  Biso   1.000  C
  C304     1.0000 0.85120  0.52050  0.17412  Biso   1.000  C
  H130     1.0000 0.85250  0.56450  0.16340  Biso   1.000  H
  C305     1.0000 0.88230  0.47770  0.20813  Biso   1.000  C
  H131     1.0000 0.90960  0.49360  0.22090  Biso   1.000  H
  C306     1.0000 0.83500  0.39460  0.20755  Biso   1.000  C
  C307     1.0000 0.79350  0.36880  0.18793  Biso   1.000  C
  H132     1.0000 0.76180  0.31200  0.18660  Biso   1.000  H
  C308     1.0000 0.82440  0.32860  0.22582  Biso   1.000  C
  C309     1.0000 0.73710  0.29270  0.23139  Biso   1.000  C
  C310     1.0000 0.64590  0.32050  0.22118  Biso   1.000  C
  C311     1.0000 0.73540  0.22860  0.24690  Biso   1.000  C
  H133     1.0000 0.67870  0.19910  0.24990  Biso   1.000  H
  C312     1.0000 0.81520  0.20380  0.25880  Biso   1.000  C
  C313     1.0000 0.89860  0.23730  0.25291  Biso   1.000  C
  H134     1.0000 0.95350  0.21640  0.25930  Biso   1.000  H
  C314     1.0000 0.90220  0.30490  0.23680  Biso   1.000  C
  H135     1.0000 0.95910  0.33380  0.23370  Biso   1.000  H
  C315     1.0000 0.79910  0.13260  0.27630  Biso   1.000  C
  Tb16     1.0000 0.98323  0.72408  0.68820  Biso   1.000  Tb
  O136     1.0000 0.03910  0.86910  0.67818  Biso   1.000  O
  O137     1.0000 0.11270  0.00520  0.68022  Biso   1.000  O
  O138     1.0000 0.00720  0.82380  0.59779  Biso   1.000  O
  O139     1.0000 0.13610  0.81800  0.57923  Biso   1.000  O
  O140     1.0000 0.12830  0.90590  0.72003  Biso   1.000  O
  O141     1.0000 0.09340  0.75480  0.71430  Biso   1.000  O
  O142     1.0000 0.21900  0.61160  0.78200  Biso   1.000  O
  O143     1.0000 0.37180  0.59270  0.78451  Biso   1.000  O
  O144     1.0000 0.01070  0.57520  0.69945  Biso   1.000  O
  N16      1.0000 0.39440  0.04020  0.69220  Biso   1.000  N
  C316     1.0000 0.09910  0.92910  0.67146  Biso   1.000  C
  C317     1.0000 0.15170  0.90610  0.65145  Biso   1.000  C
  C318     1.0000 0.10380  0.88110  0.63384  Biso   1.000  C
  H136     1.0000 0.03870  0.87570  0.63420  Biso   1.000  H
  C319     1.0000 0.15090  0.86380  0.61559  Biso   1.000  C
  C320     1.0000 0.09230  0.83290  0.59593  Biso   1.000  C
  C321     1.0000 0.24670  0.87410  0.61447  Biso   1.000  C
  H137     1.0000 0.27740  0.86710  0.60170  Biso   1.000  H
  C322     1.0000 0.29600  0.89440  0.63191  Biso   1.000  C
  H138     1.0000 0.36130  0.89620  0.63120  Biso   1.000  H
  C323     1.0000 0.25100  0.91290  0.65116  Biso   1.000  C
  C324     1.0000 0.30110  0.93020  0.67074  Biso   1.000  C
  C325     1.0000 0.35120  0.02050  0.67412  Biso   1.000  C
  H139     1.0000 0.35250  0.06450  0.66340  Biso   1.000  H
  C326     1.0000 0.38230  0.97770  0.70813  Biso   1.000  C
  H140     1.0000 0.40960  0.99360  0.72090  Biso   1.000  H
  C327     1.0000 0.33500  0.89460  0.70755  Biso   1.000  C
  C328     1.0000 0.29350  0.86880  0.68793  Biso   1.000  C
  H141     1.0000 0.26180  0.81200  0.68660  Biso   1.000  H
  C329     1.0000 0.32440  0.82860  0.72582  Biso   1.000  C
  C330     1.0000 0.23710  0.79270  0.73139  Biso   1.000  C
  C331     1.0000 0.14590  0.82050  0.72118  Biso   1.000  C
  C332     1.0000 0.23540  0.72860  0.74690  Biso   1.000  C
  H142     1.0000 0.17870  0.69910  0.74990  Biso   1.000  H
  C333     1.0000 0.31520  0.70380  0.75880  Biso   1.000  C
  C334     1.0000 0.39860  0.73730  0.75291  Biso   1.000  C
  H143     1.0000 0.45350  0.71640  0.75930  Biso   1.000  H
  C335     1.0000 0.40220  0.80490  0.73680  Biso   1.000  C
  H144     1.0000 0.45910  0.83380  0.73370  Biso   1.000  H
  C336     1.0000 0.29910  0.63260  0.77630  Biso   1.000  C
  Tb17     1.0000 0.50000  0.00000  0.45941  Biso   1.000  Tb
  Tb18     1.0000 0.00000  0.50000  0.95941  Biso   1.000  Tb
  Tb19     1.0000 0.00000  0.50000  0.54059  Biso   1.000  Tb
  Tb20     1.0000 0.50000  0.00000  0.04059  Biso   1.000  Tb
  Tb21     1.0000 0.00000  0.00000  0.29059  Biso   1.000  Tb
  Tb22     1.0000 0.50000  0.50000  0.79059  Biso   1.000  Tb
  Tb23     1.0000 0.50000  0.50000  0.20941  Biso   1.000  Tb
  Tb24     1.0000 0.00000  0.00000  0.70941  Biso   1.000  Tb
  C337     1.0000 0.00000  0.00000  0.44170  Biso   1.000  C
  H145     1.0000 0.00000  0.00000  0.42710  Biso   1.000  H
  C338     1.0000 0.50000  0.50000  0.94170  Biso   1.000  C
  H146     1.0000 0.50000  0.50000  0.92710  Biso   1.000  H
  C339     1.0000 0.00000  0.00000  0.55830  Biso   1.000  C
  H147     1.0000 0.00000  0.00000  0.57290  Biso   1.000  H
  C340     1.0000 0.50000  0.50000  0.05830  Biso   1.000  C
  H148     1.0000 0.50000  0.50000  0.07290  Biso   1.000  H
  C341     1.0000 0.50000  0.00000  0.30830  Biso   1.000  C
  H149     1.0000 0.50000  0.00000  0.32290  Biso   1.000  H
  C342     1.0000 0.00000  0.50000  0.80830  Biso   1.000  C
  H150     1.0000 0.00000  0.50000  0.82290  Biso   1.000  H
  C343     1.0000 0.50000  0.00000  0.19170  Biso   1.000  C
  H151     1.0000 0.50000  0.00000  0.17710  Biso   1.000  H
  C344     1.0000 0.00000  0.50000  0.69170  Biso   1.000  C
  H152     1.0000 0.00000  0.50000  0.67710  Biso   1.000  H
