data_image0
_cell_length_a       30.5919
_cell_length_b       30.5919
_cell_length_c       44.8181
_cell_angle_alpha    90
_cell_angle_beta     90
_cell_angle_gamma    90

_symmetry_space_group_name_H-M    "P 1"
_symmetry_int_tables_number       1

loop_
  _symmetry_equiv_pos_as_xyz
  'x, y, z'

loop_
  _atom_site_label
  _atom_site_occupancy
  _atom_site_fract_x
  _atom_site_fract_y
  _atom_site_fract_z
  _atom_site_thermal_displace_type
  _atom_site_B_iso_or_equiv
  _atom_site_type_symbol
  Zn1      1.0000 0.09537  0.84830  0.62816  Biso   1.000  Zn
  Zn2      1.0000 0.13349  0.78925  0.67398  Biso   1.000  Zn
  O1       1.0000 0.11116  0.31593  0.53174  Biso   1.000  O
  O2       1.0000 0.10038  0.24531  0.53162  Biso   1.000  O
  O3       1.0000 0.16365  0.15485  0.61041  Biso   1.000  O
  O4       1.0000 0.20137  0.18644  0.64731  Biso   1.000  O
  O5       1.0000 0.29543  0.42784  0.80985  Biso   1.000  O
  O6       1.0000 0.34449  0.45376  0.84158  Biso   1.000  O
  O7       1.0000 0.37438  0.60899  0.84462  Biso   1.000  O
  O8       1.0000 0.35251  0.65185  0.80731  Biso   1.000  O
  O9       1.0000 0.10971  0.74675  0.64305  Biso   1.000  O
  O10      1.0000 0.07430  0.79151  0.61196  Biso   1.000  O
  O11      1.0000 0.98749  0.72849  0.53103  Biso   1.000  O
  O12      1.0000 0.97621  0.65725  0.53072  Biso   1.000  O
  O13      1.0000 0.16800  0.39590  0.59980  Biso   1.000  O
  O14      1.0000 0.27440  0.48510  0.71751  Biso   1.000  O
  O15      1.0000 0.15040  0.61240  0.62940  Biso   1.000  O
  N1       1.0000 0.21390  0.34300  0.61793  Biso   1.000  N
  H1       1.0000 0.23700  0.33840  0.62910  Biso   1.000  H
  N2       1.0000 0.22390  0.41200  0.63230  Biso   1.000  N
  H2       1.0000 0.24740  0.40140  0.64110  Biso   1.000  H
  N3       1.0000 0.28170  0.55370  0.73409  Biso   1.000  N
  H3       1.0000 0.27610  0.58110  0.72960  Biso   1.000  H
  N4       1.0000 0.24810  0.54210  0.69097  Biso   1.000  N
  H4       1.0000 0.24590  0.57080  0.69120  Biso   1.000  H
  N5       1.0000 0.14430  0.54410  0.60910  Biso   1.000  N
  H5       1.0000 0.13320  0.52900  0.59420  Biso   1.000  H
  N6       1.0000 0.09990  0.59870  0.59230  Biso   1.000  N
  H6       1.0000 0.09420  0.57960  0.57810  Biso   1.000  H
  C1       1.0000 0.11670  0.27881  0.54158  Biso   1.000  C
  C2       1.0000 0.17970  0.18750  0.62367  Biso   1.000  C
  C3       1.0000 0.14650  0.27360  0.56822  Biso   1.000  C
  C4       1.0000 0.15140  0.23320  0.58161  Biso   1.000  C
  H7       1.0000 0.13730  0.20830  0.57340  Biso   1.000  H
  C5       1.0000 0.17730  0.22920  0.60755  Biso   1.000  C
  C6       1.0000 0.19630  0.26480  0.61948  Biso   1.000  C
  H8       1.0000 0.21170  0.26260  0.63780  Biso   1.000  H
  C7       1.0000 0.19310  0.30720  0.60423  Biso   1.000  C
  C8       1.0000 0.16780  0.30980  0.57872  Biso   1.000  C
  H9       1.0000 0.16520  0.33680  0.56840  Biso   1.000  H
  C9       1.0000 0.31950  0.45720  0.82007  Biso   1.000  C
  C10      1.0000 0.35590  0.61570  0.82092  Biso   1.000  C
  C11      1.0000 0.32010  0.50030  0.80475  Biso   1.000  C
  C12      1.0000 0.33950  0.53610  0.81837  Biso   1.000  C
  H10      1.0000 0.35380  0.53310  0.83710  Biso   1.000  H
  C13      1.0000 0.33770  0.57730  0.80384  Biso   1.000  C
  C14      1.0000 0.32010  0.58220  0.77699  Biso   1.000  C
  H11      1.0000 0.32070  0.60990  0.76750  Biso   1.000  H
  C15      1.0000 0.30080  0.54670  0.76270  Biso   1.000  C
  C16      1.0000 0.30060  0.50520  0.77680  Biso   1.000  C
  H12      1.0000 0.28730  0.48090  0.76730  Biso   1.000  H
  C17      1.0000 0.08510  0.75440  0.62118  Biso   1.000  C
  C18      1.0000 0.99380  0.69120  0.54050  Biso   1.000  C
  C19      1.0000 0.07290  0.71610  0.60249  Biso   1.000  C
  C20      1.0000 0.04240  0.72090  0.57920  Biso   1.000  C
  H13      1.0000 0.03130  0.74910  0.57440  Biso   1.000  H
  C21      1.0000 0.02890  0.68540  0.56375  Biso   1.000  C
  C22      1.0000 0.04570  0.64470  0.56980  Biso   1.000  C
  H14      1.0000 0.03610  0.61990  0.55880  Biso   1.000  H
  C23      1.0000 0.07670  0.64010  0.59210  Biso   1.000  C
  C24      1.0000 0.09080  0.67710  0.60860  Biso   1.000  C
  H15      1.0000 0.11240  0.67430  0.62370  Biso   1.000  H
  C25      1.0000 0.19920  0.38430  0.61440  Biso   1.000  C
  C26      1.0000 0.27100  0.52400  0.71280  Biso   1.000  C
  C27      1.0000 0.13040  0.58760  0.61370  Biso   1.000  C
  C28      1.0000 0.21290  0.45710  0.63724  Biso   1.000  C
  C29      1.0000 0.23610  0.47570  0.66132  Biso   1.000  C
  H16      1.0000 0.25660  0.45930  0.67260  Biso   1.000  H
  C30      1.0000 0.22710  0.52030  0.66772  Biso   1.000  C
  C31      1.0000 0.19770  0.54500  0.65185  Biso   1.000  C
  H17      1.0000 0.19240  0.57480  0.65670  Biso   1.000  H
  C32      1.0000 0.17550  0.52430  0.62800  Biso   1.000  C
  C33      1.0000 0.18190  0.47950  0.61940  Biso   1.000  C
  H18      1.0000 0.16670  0.46620  0.60330  Biso   1.000  H
  Zn3      1.0000 0.59537  0.34830  0.12816  Biso   1.000  Zn
  Zn4      1.0000 0.63349  0.28925  0.17398  Biso   1.000  Zn
  O16      1.0000 0.61116  0.81593  0.03174  Biso   1.000  O
  O17      1.0000 0.60038  0.74531  0.03162  Biso   1.000  O
  O18      1.0000 0.66365  0.65485  0.11041  Biso   1.000  O
  O19      1.0000 0.70137  0.68644  0.14731  Biso   1.000  O
  O20      1.0000 0.79543  0.92784  0.30985  Biso   1.000  O
  O21      1.0000 0.84449  0.95376  0.34158  Biso   1.000  O
  O22      1.0000 0.87438  0.10899  0.34462  Biso   1.000  O
  O23      1.0000 0.85251  0.15185  0.30731  Biso   1.000  O
  O24      1.0000 0.60971  0.24675  0.14305  Biso   1.000  O
  O25      1.0000 0.57430  0.29151  0.11196  Biso   1.000  O
  O26      1.0000 0.48749  0.22849  0.03103  Biso   1.000  O
  O27      1.0000 0.47621  0.15725  0.03072  Biso   1.000  O
  O28      1.0000 0.66800  0.89590  0.09980  Biso   1.000  O
  O29      1.0000 0.77440  0.98510  0.21751  Biso   1.000  O
  O30      1.0000 0.65040  0.11240  0.12940  Biso   1.000  O
  N7       1.0000 0.71390  0.84300  0.11793  Biso   1.000  N
  H19      1.0000 0.73700  0.83840  0.12910  Biso   1.000  H
  N8       1.0000 0.72390  0.91200  0.13230  Biso   1.000  N
  H20      1.0000 0.74740  0.90140  0.14110  Biso   1.000  H
  N9       1.0000 0.78170  0.05370  0.23409  Biso   1.000  N
  H21      1.0000 0.77610  0.08110  0.22960  Biso   1.000  H
  N10      1.0000 0.74810  0.04210  0.19097  Biso   1.000  N
  H22      1.0000 0.74590  0.07080  0.19120  Biso   1.000  H
  N11      1.0000 0.64430  0.04410  0.10910  Biso   1.000  N
  H23      1.0000 0.63320  0.02900  0.09420  Biso   1.000  H
  N12      1.0000 0.59990  0.09870  0.09230  Biso   1.000  N
  H24      1.0000 0.59420  0.07960  0.07810  Biso   1.000  H
  C34      1.0000 0.61670  0.77881  0.04158  Biso   1.000  C
  C35      1.0000 0.67970  0.68750  0.12367  Biso   1.000  C
  C36      1.0000 0.64650  0.77360  0.06822  Biso   1.000  C
  C37      1.0000 0.65140  0.73320  0.08161  Biso   1.000  C
  H25      1.0000 0.63730  0.70830  0.07340  Biso   1.000  H
  C38      1.0000 0.67730  0.72920  0.10755  Biso   1.000  C
  C39      1.0000 0.69630  0.76480  0.11948  Biso   1.000  C
  H26      1.0000 0.71170  0.76260  0.13780  Biso   1.000  H
  C40      1.0000 0.69310  0.80720  0.10423  Biso   1.000  C
  C41      1.0000 0.66780  0.80980  0.07872  Biso   1.000  C
  H27      1.0000 0.66520  0.83680  0.06840  Biso   1.000  H
  C42      1.0000 0.81950  0.95720  0.32007  Biso   1.000  C
  C43      1.0000 0.85590  0.11570  0.32092  Biso   1.000  C
  C44      1.0000 0.82010  0.00030  0.30475  Biso   1.000  C
  C45      1.0000 0.83950  0.03610  0.31837  Biso   1.000  C
  H28      1.0000 0.85380  0.03310  0.33710  Biso   1.000  H
  C46      1.0000 0.83770  0.07730  0.30384  Biso   1.000  C
  C47      1.0000 0.82010  0.08220  0.27699  Biso   1.000  C
  H29      1.0000 0.82070  0.10990  0.26750  Biso   1.000  H
  C48      1.0000 0.80080  0.04670  0.26270  Biso   1.000  C
  C49      1.0000 0.80060  0.00520  0.27680  Biso   1.000  C
  H30      1.0000 0.78730  0.98090  0.26730  Biso   1.000  H
  C50      1.0000 0.58510  0.25440  0.12118  Biso   1.000  C
  C51      1.0000 0.49380  0.19120  0.04050  Biso   1.000  C
  C52      1.0000 0.57290  0.21610  0.10249  Biso   1.000  C
  C53      1.0000 0.54240  0.22090  0.07920  Biso   1.000  C
  H31      1.0000 0.53130  0.24910  0.07440  Biso   1.000  H
  C54      1.0000 0.52890  0.18540  0.06375  Biso   1.000  C
  C55      1.0000 0.54570  0.14470  0.06980  Biso   1.000  C
  H32      1.0000 0.53610  0.11990  0.05880  Biso   1.000  H
  C56      1.0000 0.57670  0.14010  0.09210  Biso   1.000  C
  C57      1.0000 0.59080  0.17710  0.10860  Biso   1.000  C
  H33      1.0000 0.61240  0.17430  0.12370  Biso   1.000  H
  C58      1.0000 0.69920  0.88430  0.11440  Biso   1.000  C
  C59      1.0000 0.77100  0.02400  0.21280  Biso   1.000  C
  C60      1.0000 0.63040  0.08760  0.11370  Biso   1.000  C
  C61      1.0000 0.71290  0.95710  0.13724  Biso   1.000  C
  C62      1.0000 0.73610  0.97570  0.16132  Biso   1.000  C
  H34      1.0000 0.75660  0.95930  0.17260  Biso   1.000  H
  C63      1.0000 0.72710  0.02030  0.16772  Biso   1.000  C
  C64      1.0000 0.69770  0.04500  0.15185  Biso   1.000  C
  H35      1.0000 0.69240  0.07480  0.15670  Biso   1.000  H
  C65      1.0000 0.67550  0.02430  0.12800  Biso   1.000  C
  C66      1.0000 0.68190  0.97950  0.11940  Biso   1.000  C
  H36      1.0000 0.66670  0.96620  0.10330  Biso   1.000  H
  Zn5      1.0000 0.90463  0.15170  0.62816  Biso   1.000  Zn
  Zn6      1.0000 0.86651  0.21075  0.67398  Biso   1.000  Zn
  O31      1.0000 0.88884  0.68407  0.53174  Biso   1.000  O
  O32      1.0000 0.89962  0.75469  0.53162  Biso   1.000  O
  O33      1.0000 0.83635  0.84515  0.61041  Biso   1.000  O
  O34      1.0000 0.79863  0.81356  0.64731  Biso   1.000  O
  O35      1.0000 0.70457  0.57216  0.80985  Biso   1.000  O
  O36      1.0000 0.65551  0.54624  0.84158  Biso   1.000  O
  O37      1.0000 0.62562  0.39101  0.84462  Biso   1.000  O
  O38      1.0000 0.64749  0.34815  0.80731  Biso   1.000  O
  O39      1.0000 0.89029  0.25325  0.64305  Biso   1.000  O
  O40      1.0000 0.92570  0.20849  0.61196  Biso   1.000  O
  O41      1.0000 0.01251  0.27151  0.53103  Biso   1.000  O
  O42      1.0000 0.02379  0.34275  0.53072  Biso   1.000  O
  O43      1.0000 0.83200  0.60410  0.59980  Biso   1.000  O
  O44      1.0000 0.72560  0.51490  0.71751  Biso   1.000  O
  O45      1.0000 0.84960  0.38760  0.62940  Biso   1.000  O
  N13      1.0000 0.78610  0.65700  0.61793  Biso   1.000  N
  H37      1.0000 0.76300  0.66160  0.62910  Biso   1.000  H
  N14      1.0000 0.77610  0.58800  0.63230  Biso   1.000  N
  H38      1.0000 0.75260  0.59860  0.64110  Biso   1.000  H
  N15      1.0000 0.71830  0.44630  0.73409  Biso   1.000  N
  H39      1.0000 0.72390  0.41890  0.72960  Biso   1.000  H
  N16      1.0000 0.75190  0.45790  0.69097  Biso   1.000  N
  H40      1.0000 0.75410  0.42920  0.69120  Biso   1.000  H
  N17      1.0000 0.85570  0.45590  0.60910  Biso   1.000  N
  H41      1.0000 0.86680  0.47100  0.59420  Biso   1.000  H
  N18      1.0000 0.90010  0.40130  0.59230  Biso   1.000  N
  H42      1.0000 0.90580  0.42040  0.57810  Biso   1.000  H
  C67      1.0000 0.88330  0.72119  0.54158  Biso   1.000  C
  C68      1.0000 0.82030  0.81250  0.62367  Biso   1.000  C
  C69      1.0000 0.85350  0.72640  0.56822  Biso   1.000  C
  C70      1.0000 0.84860  0.76680  0.58161  Biso   1.000  C
  H43      1.0000 0.86270  0.79170  0.57340  Biso   1.000  H
  C71      1.0000 0.82270  0.77080  0.60755  Biso   1.000  C
  C72      1.0000 0.80370  0.73520  0.61948  Biso   1.000  C
  H44      1.0000 0.78830  0.73740  0.63780  Biso   1.000  H
  C73      1.0000 0.80690  0.69280  0.60423  Biso   1.000  C
  C74      1.0000 0.83220  0.69020  0.57872  Biso   1.000  C
  H45      1.0000 0.83480  0.66320  0.56840  Biso   1.000  H
  C75      1.0000 0.68050  0.54280  0.82007  Biso   1.000  C
  C76      1.0000 0.64410  0.38430  0.82092  Biso   1.000  C
  C77      1.0000 0.67990  0.49970  0.80475  Biso   1.000  C
  C78      1.0000 0.66050  0.46390  0.81837  Biso   1.000  C
  H46      1.0000 0.64620  0.46690  0.83710  Biso   1.000  H
  C79      1.0000 0.66230  0.42270  0.80384  Biso   1.000  C
  C80      1.0000 0.67990  0.41780  0.77699  Biso   1.000  C
  H47      1.0000 0.67930  0.39010  0.76750  Biso   1.000  H
  C81      1.0000 0.69920  0.45330  0.76270  Biso   1.000  C
  C82      1.0000 0.69940  0.49480  0.77680  Biso   1.000  C
  H48      1.0000 0.71270  0.51910  0.76730  Biso   1.000  H
  C83      1.0000 0.91490  0.24560  0.62118  Biso   1.000  C
  C84      1.0000 0.00620  0.30880  0.54050  Biso   1.000  C
  C85      1.0000 0.92710  0.28390  0.60249  Biso   1.000  C
  C86      1.0000 0.95760  0.27910  0.57920  Biso   1.000  C
  H49      1.0000 0.96870  0.25090  0.57440  Biso   1.000  H
  C87      1.0000 0.97110  0.31460  0.56375  Biso   1.000  C
  C88      1.0000 0.95430  0.35530  0.56980  Biso   1.000  C
  H50      1.0000 0.96390  0.38010  0.55880  Biso   1.000  H
  C89      1.0000 0.92330  0.35990  0.59210  Biso   1.000  C
  C90      1.0000 0.90920  0.32290  0.60860  Biso   1.000  C
  H51      1.0000 0.88760  0.32570  0.62370  Biso   1.000  H
  C91      1.0000 0.80080  0.61570  0.61440  Biso   1.000  C
  C92      1.0000 0.72900  0.47600  0.71280  Biso   1.000  C
  C93      1.0000 0.86960  0.41240  0.61370  Biso   1.000  C
  C94      1.0000 0.78710  0.54290  0.63724  Biso   1.000  C
  C95      1.0000 0.76390  0.52430  0.66132  Biso   1.000  C
  H52      1.0000 0.74340  0.54070  0.67260  Biso   1.000  H
  C96      1.0000 0.77290  0.47970  0.66772  Biso   1.000  C
  C97      1.0000 0.80230  0.45500  0.65185  Biso   1.000  C
  H53      1.0000 0.80760  0.42520  0.65670  Biso   1.000  H
  C98      1.0000 0.82450  0.47570  0.62800  Biso   1.000  C
  C99      1.0000 0.81810  0.52050  0.61940  Biso   1.000  C
  H54      1.0000 0.83330  0.53380  0.60330  Biso   1.000  H
  Zn7      1.0000 0.40463  0.65170  0.12816  Biso   1.000  Zn
  Zn8      1.0000 0.36651  0.71075  0.17398  Biso   1.000  Zn
  O46      1.0000 0.38884  0.18407  0.03174  Biso   1.000  O
  O47      1.0000 0.39962  0.25469  0.03162  Biso   1.000  O
  O48      1.0000 0.33635  0.34515  0.11041  Biso   1.000  O
  O49      1.0000 0.29863  0.31356  0.14731  Biso   1.000  O
  O50      1.0000 0.20457  0.07216  0.30985  Biso   1.000  O
  O51      1.0000 0.15551  0.04624  0.34158  Biso   1.000  O
  O52      1.0000 0.12562  0.89101  0.34462  Biso   1.000  O
  O53      1.0000 0.14749  0.84815  0.30731  Biso   1.000  O
  O54      1.0000 0.39029  0.75325  0.14305  Biso   1.000  O
  O55      1.0000 0.42570  0.70849  0.11196  Biso   1.000  O
  O56      1.0000 0.51251  0.77151  0.03103  Biso   1.000  O
  O57      1.0000 0.52379  0.84275  0.03072  Biso   1.000  O
  O58      1.0000 0.33200  0.10410  0.09980  Biso   1.000  O
  O59      1.0000 0.22560  0.01490  0.21751  Biso   1.000  O
  O60      1.0000 0.34960  0.88760  0.12940  Biso   1.000  O
  N19      1.0000 0.28610  0.15700  0.11793  Biso   1.000  N
  H55      1.0000 0.26300  0.16160  0.12910  Biso   1.000  H
  N20      1.0000 0.27610  0.08800  0.13230  Biso   1.000  N
  H56      1.0000 0.25260  0.09860  0.14110  Biso   1.000  H
  N21      1.0000 0.21830  0.94630  0.23409  Biso   1.000  N
  H57      1.0000 0.22390  0.91890  0.22960  Biso   1.000  H
  N22      1.0000 0.25190  0.95790  0.19097  Biso   1.000  N
  H58      1.0000 0.25410  0.92920  0.19120  Biso   1.000  H
  N23      1.0000 0.35570  0.95590  0.10910  Biso   1.000  N
  H59      1.0000 0.36680  0.97100  0.09420  Biso   1.000  H
  N24      1.0000 0.40010  0.90130  0.09230  Biso   1.000  N
  H60      1.0000 0.40580  0.92040  0.07810  Biso   1.000  H
  C100     1.0000 0.38330  0.22119  0.04158  Biso   1.000  C
  C101     1.0000 0.32030  0.31250  0.12367  Biso   1.000  C
  C102     1.0000 0.35350  0.22640  0.06822  Biso   1.000  C
  C103     1.0000 0.34860  0.26680  0.08161  Biso   1.000  C
  H61      1.0000 0.36270  0.29170  0.07340  Biso   1.000  H
  C104     1.0000 0.32270  0.27080  0.10755  Biso   1.000  C
  C105     1.0000 0.30370  0.23520  0.11948  Biso   1.000  C
  H62      1.0000 0.28830  0.23740  0.13780  Biso   1.000  H
  C106     1.0000 0.30690  0.19280  0.10423  Biso   1.000  C
  C107     1.0000 0.33220  0.19020  0.07872  Biso   1.000  C
  H63      1.0000 0.33480  0.16320  0.06840  Biso   1.000  H
  C108     1.0000 0.18050  0.04280  0.32007  Biso   1.000  C
  C109     1.0000 0.14410  0.88430  0.32092  Biso   1.000  C
  C110     1.0000 0.17990  0.99970  0.30475  Biso   1.000  C
  C111     1.0000 0.16050  0.96390  0.31837  Biso   1.000  C
  H64      1.0000 0.14620  0.96690  0.33710  Biso   1.000  H
  C112     1.0000 0.16230  0.92270  0.30384  Biso   1.000  C
  C113     1.0000 0.17990  0.91780  0.27699  Biso   1.000  C
  H65      1.0000 0.17930  0.89010  0.26750  Biso   1.000  H
  C114     1.0000 0.19920  0.95330  0.26270  Biso   1.000  C
  C115     1.0000 0.19940  0.99480  0.27680  Biso   1.000  C
  H66      1.0000 0.21270  0.01910  0.26730  Biso   1.000  H
  C116     1.0000 0.41490  0.74560  0.12118  Biso   1.000  C
  C117     1.0000 0.50620  0.80880  0.04050  Biso   1.000  C
  C118     1.0000 0.42710  0.78390  0.10249  Biso   1.000  C
  C119     1.0000 0.45760  0.77910  0.07920  Biso   1.000  C
  H67      1.0000 0.46870  0.75090  0.07440  Biso   1.000  H
  C120     1.0000 0.47110  0.81460  0.06375  Biso   1.000  C
  C121     1.0000 0.45430  0.85530  0.06980  Biso   1.000  C
  H68      1.0000 0.46390  0.88010  0.05880  Biso   1.000  H
  C122     1.0000 0.42330  0.85990  0.09210  Biso   1.000  C
  C123     1.0000 0.40920  0.82290  0.10860  Biso   1.000  C
  H69      1.0000 0.38760  0.82570  0.12370  Biso   1.000  H
  C124     1.0000 0.30080  0.11570  0.11440  Biso   1.000  C
  C125     1.0000 0.22900  0.97600  0.21280  Biso   1.000  C
  C126     1.0000 0.36960  0.91240  0.11370  Biso   1.000  C
  C127     1.0000 0.28710  0.04290  0.13724  Biso   1.000  C
  C128     1.0000 0.26390  0.02430  0.16132  Biso   1.000  C
  H70      1.0000 0.24340  0.04070  0.17260  Biso   1.000  H
  C129     1.0000 0.27290  0.97970  0.16772  Biso   1.000  C
  C130     1.0000 0.30230  0.95500  0.15185  Biso   1.000  C
  H71      1.0000 0.30760  0.92520  0.15670  Biso   1.000  H
  C131     1.0000 0.32450  0.97570  0.12800  Biso   1.000  C
  C132     1.0000 0.31810  0.02050  0.11940  Biso   1.000  C
  H72      1.0000 0.33330  0.03380  0.10330  Biso   1.000  H
  Zn9      1.0000 0.15170  0.09537  0.62816  Biso   1.000  Zn
  Zn10     1.0000 0.21075  0.13349  0.67398  Biso   1.000  Zn
  O61      1.0000 0.68407  0.11116  0.53174  Biso   1.000  O
  O62      1.0000 0.75469  0.10038  0.53162  Biso   1.000  O
  O63      1.0000 0.84515  0.16365  0.61041  Biso   1.000  O
  O64      1.0000 0.81356  0.20137  0.64731  Biso   1.000  O
  O65      1.0000 0.57216  0.29543  0.80985  Biso   1.000  O
  O66      1.0000 0.54624  0.34449  0.84158  Biso   1.000  O
  O67      1.0000 0.39101  0.37438  0.84462  Biso   1.000  O
  O68      1.0000 0.34815  0.35251  0.80731  Biso   1.000  O
  O69      1.0000 0.25325  0.10971  0.64305  Biso   1.000  O
  O70      1.0000 0.20849  0.07430  0.61196  Biso   1.000  O
  O71      1.0000 0.27151  0.98749  0.53103  Biso   1.000  O
  O72      1.0000 0.34275  0.97621  0.53072  Biso   1.000  O
  O73      1.0000 0.60410  0.16800  0.59980  Biso   1.000  O
  O74      1.0000 0.51490  0.27440  0.71751  Biso   1.000  O
  O75      1.0000 0.38760  0.15040  0.62940  Biso   1.000  O
  N25      1.0000 0.65700  0.21390  0.61793  Biso   1.000  N
  H73      1.0000 0.66160  0.23700  0.62910  Biso   1.000  H
  N26      1.0000 0.58800  0.22390  0.63230  Biso   1.000  N
  H74      1.0000 0.59860  0.24740  0.64110  Biso   1.000  H
  N27      1.0000 0.44630  0.28170  0.73409  Biso   1.000  N
  H75      1.0000 0.41890  0.27610  0.72960  Biso   1.000  H
  N28      1.0000 0.45790  0.24810  0.69097  Biso   1.000  N
  H76      1.0000 0.42920  0.24590  0.69120  Biso   1.000  H
  N29      1.0000 0.45590  0.14430  0.60910  Biso   1.000  N
  H77      1.0000 0.47100  0.13320  0.59420  Biso   1.000  H
  N30      1.0000 0.40130  0.09990  0.59230  Biso   1.000  N
  H78      1.0000 0.42040  0.09420  0.57810  Biso   1.000  H
  C133     1.0000 0.72119  0.11670  0.54158  Biso   1.000  C
  C134     1.0000 0.81250  0.17970  0.62367  Biso   1.000  C
  C135     1.0000 0.72640  0.14650  0.56822  Biso   1.000  C
  C136     1.0000 0.76680  0.15140  0.58161  Biso   1.000  C
  H79      1.0000 0.79170  0.13730  0.57340  Biso   1.000  H
  C137     1.0000 0.77080  0.17730  0.60755  Biso   1.000  C
  C138     1.0000 0.73520  0.19630  0.61948  Biso   1.000  C
  H80      1.0000 0.73740  0.21170  0.63780  Biso   1.000  H
  C139     1.0000 0.69280  0.19310  0.60423  Biso   1.000  C
  C140     1.0000 0.69020  0.16780  0.57872  Biso   1.000  C
  H81      1.0000 0.66320  0.16520  0.56840  Biso   1.000  H
  C141     1.0000 0.54280  0.31950  0.82007  Biso   1.000  C
  C142     1.0000 0.38430  0.35590  0.82092  Biso   1.000  C
  C143     1.0000 0.49970  0.32010  0.80475  Biso   1.000  C
  C144     1.0000 0.46390  0.33950  0.81837  Biso   1.000  C
  H82      1.0000 0.46690  0.35380  0.83710  Biso   1.000  H
  C145     1.0000 0.42270  0.33770  0.80384  Biso   1.000  C
  C146     1.0000 0.41780  0.32010  0.77699  Biso   1.000  C
  H83      1.0000 0.39010  0.32070  0.76750  Biso   1.000  H
  C147     1.0000 0.45330  0.30080  0.76270  Biso   1.000  C
  C148     1.0000 0.49480  0.30060  0.77680  Biso   1.000  C
  H84      1.0000 0.51910  0.28730  0.76730  Biso   1.000  H
  C149     1.0000 0.24560  0.08510  0.62118  Biso   1.000  C
  C150     1.0000 0.30880  0.99380  0.54050  Biso   1.000  C
  C151     1.0000 0.28390  0.07290  0.60249  Biso   1.000  C
  C152     1.0000 0.27910  0.04240  0.57920  Biso   1.000  C
  H85      1.0000 0.25090  0.03130  0.57440  Biso   1.000  H
  C153     1.0000 0.31460  0.02890  0.56375  Biso   1.000  C
  C154     1.0000 0.35530  0.04570  0.56980  Biso   1.000  C
  H86      1.0000 0.38010  0.03610  0.55880  Biso   1.000  H
  C155     1.0000 0.35990  0.07670  0.59210  Biso   1.000  C
  C156     1.0000 0.32290  0.09080  0.60860  Biso   1.000  C
  H87      1.0000 0.32570  0.11240  0.62370  Biso   1.000  H
  C157     1.0000 0.61570  0.19920  0.61440  Biso   1.000  C
  C158     1.0000 0.47600  0.27100  0.71280  Biso   1.000  C
  C159     1.0000 0.41240  0.13040  0.61370  Biso   1.000  C
  C160     1.0000 0.54290  0.21290  0.63724  Biso   1.000  C
  C161     1.0000 0.52430  0.23610  0.66132  Biso   1.000  C
  H88      1.0000 0.54070  0.25660  0.67260  Biso   1.000  H
  C162     1.0000 0.47970  0.22710  0.66772  Biso   1.000  C
  C163     1.0000 0.45500  0.19770  0.65185  Biso   1.000  C
  H89      1.0000 0.42520  0.19240  0.65670  Biso   1.000  H
  C164     1.0000 0.47570  0.17550  0.62800  Biso   1.000  C
  C165     1.0000 0.52050  0.18190  0.61940  Biso   1.000  C
  H90      1.0000 0.53380  0.16670  0.60330  Biso   1.000  H
  Zn11     1.0000 0.65170  0.59537  0.12816  Biso   1.000  Zn
  Zn12     1.0000 0.71075  0.63349  0.17398  Biso   1.000  Zn
  O76      1.0000 0.18407  0.61116  0.03174  Biso   1.000  O
  O77      1.0000 0.25469  0.60038  0.03162  Biso   1.000  O
  O78      1.0000 0.34515  0.66365  0.11041  Biso   1.000  O
  O79      1.0000 0.31356  0.70137  0.14731  Biso   1.000  O
  O80      1.0000 0.07216  0.79543  0.30985  Biso   1.000  O
  O81      1.0000 0.04624  0.84449  0.34158  Biso   1.000  O
  O82      1.0000 0.89101  0.87438  0.34462  Biso   1.000  O
  O83      1.0000 0.84815  0.85251  0.30731  Biso   1.000  O
  O84      1.0000 0.75325  0.60971  0.14305  Biso   1.000  O
  O85      1.0000 0.70849  0.57430  0.11196  Biso   1.000  O
  O86      1.0000 0.77151  0.48749  0.03103  Biso   1.000  O
  O87      1.0000 0.84275  0.47621  0.03072  Biso   1.000  O
  O88      1.0000 0.10410  0.66800  0.09980  Biso   1.000  O
  O89      1.0000 0.01490  0.77440  0.21751  Biso   1.000  O
  O90      1.0000 0.88760  0.65040  0.12940  Biso   1.000  O
  N31      1.0000 0.15700  0.71390  0.11793  Biso   1.000  N
  H91      1.0000 0.16160  0.73700  0.12910  Biso   1.000  H
  N32      1.0000 0.08800  0.72390  0.13230  Biso   1.000  N
  H92      1.0000 0.09860  0.74740  0.14110  Biso   1.000  H
  N33      1.0000 0.94630  0.78170  0.23409  Biso   1.000  N
  H93      1.0000 0.91890  0.77610  0.22960  Biso   1.000  H
  N34      1.0000 0.95790  0.74810  0.19097  Biso   1.000  N
  H94      1.0000 0.92920  0.74590  0.19120  Biso   1.000  H
  N35      1.0000 0.95590  0.64430  0.10910  Biso   1.000  N
  H95      1.0000 0.97100  0.63320  0.09420  Biso   1.000  H
  N36      1.0000 0.90130  0.59990  0.09230  Biso   1.000  N
  H96      1.0000 0.92040  0.59420  0.07810  Biso   1.000  H
  C166     1.0000 0.22119  0.61670  0.04158  Biso   1.000  C
  C167     1.0000 0.31250  0.67970  0.12367  Biso   1.000  C
  C168     1.0000 0.22640  0.64650  0.06822  Biso   1.000  C
  C169     1.0000 0.26680  0.65140  0.08161  Biso   1.000  C
  H97      1.0000 0.29170  0.63730  0.07340  Biso   1.000  H
  C170     1.0000 0.27080  0.67730  0.10755  Biso   1.000  C
  C171     1.0000 0.23520  0.69630  0.11948  Biso   1.000  C
  H98      1.0000 0.23740  0.71170  0.13780  Biso   1.000  H
  C172     1.0000 0.19280  0.69310  0.10423  Biso   1.000  C
  C173     1.0000 0.19020  0.66780  0.07872  Biso   1.000  C
  H99      1.0000 0.16320  0.66520  0.06840  Biso   1.000  H
  C174     1.0000 0.04280  0.81950  0.32007  Biso   1.000  C
  C175     1.0000 0.88430  0.85590  0.32092  Biso   1.000  C
  C176     1.0000 0.99970  0.82010  0.30475  Biso   1.000  C
  C177     1.0000 0.96390  0.83950  0.31837  Biso   1.000  C
  H100     1.0000 0.96690  0.85380  0.33710  Biso   1.000  H
  C178     1.0000 0.92270  0.83770  0.30384  Biso   1.000  C
  C179     1.0000 0.91780  0.82010  0.27699  Biso   1.000  C
  H101     1.0000 0.89010  0.82070  0.26750  Biso   1.000  H
  C180     1.0000 0.95330  0.80080  0.26270  Biso   1.000  C
  C181     1.0000 0.99480  0.80060  0.27680  Biso   1.000  C
  H102     1.0000 0.01910  0.78730  0.26730  Biso   1.000  H
  C182     1.0000 0.74560  0.58510  0.12118  Biso   1.000  C
  C183     1.0000 0.80880  0.49380  0.04050  Biso   1.000  C
  C184     1.0000 0.78390  0.57290  0.10249  Biso   1.000  C
  C185     1.0000 0.77910  0.54240  0.07920  Biso   1.000  C
  H103     1.0000 0.75090  0.53130  0.07440  Biso   1.000  H
  C186     1.0000 0.81460  0.52890  0.06375  Biso   1.000  C
  C187     1.0000 0.85530  0.54570  0.06980  Biso   1.000  C
  H104     1.0000 0.88010  0.53610  0.05880  Biso   1.000  H
  C188     1.0000 0.85990  0.57670  0.09210  Biso   1.000  C
  C189     1.0000 0.82290  0.59080  0.10860  Biso   1.000  C
  H105     1.0000 0.82570  0.61240  0.12370  Biso   1.000  H
  C190     1.0000 0.11570  0.69920  0.11440  Biso   1.000  C
  C191     1.0000 0.97600  0.77100  0.21280  Biso   1.000  C
  C192     1.0000 0.91240  0.63040  0.11370  Biso   1.000  C
  C193     1.0000 0.04290  0.71290  0.13724  Biso   1.000  C
  C194     1.0000 0.02430  0.73610  0.16132  Biso   1.000  C
  H106     1.0000 0.04070  0.75660  0.17260  Biso   1.000  H
  C195     1.0000 0.97970  0.72710  0.16772  Biso   1.000  C
  C196     1.0000 0.95500  0.69770  0.15185  Biso   1.000  C
  H107     1.0000 0.92520  0.69240  0.15670  Biso   1.000  H
  C197     1.0000 0.97570  0.67550  0.12800  Biso   1.000  C
  C198     1.0000 0.02050  0.68190  0.11940  Biso   1.000  C
  H108     1.0000 0.03380  0.66670  0.10330  Biso   1.000  H
  Zn13     1.0000 0.84830  0.90463  0.62816  Biso   1.000  Zn
  Zn14     1.0000 0.78925  0.86651  0.67398  Biso   1.000  Zn
  O91      1.0000 0.31593  0.88884  0.53174  Biso   1.000  O
  O92      1.0000 0.24531  0.89962  0.53162  Biso   1.000  O
  O93      1.0000 0.15485  0.83635  0.61041  Biso   1.000  O
  O94      1.0000 0.18644  0.79863  0.64731  Biso   1.000  O
  O95      1.0000 0.42784  0.70457  0.80985  Biso   1.000  O
  O96      1.0000 0.45376  0.65551  0.84158  Biso   1.000  O
  O97      1.0000 0.60899  0.62562  0.84462  Biso   1.000  O
  O98      1.0000 0.65185  0.64749  0.80731  Biso   1.000  O
  O99      1.0000 0.74675  0.89029  0.64305  Biso   1.000  O
  O100     1.0000 0.79151  0.92570  0.61196  Biso   1.000  O
  O101     1.0000 0.72849  0.01251  0.53103  Biso   1.000  O
  O102     1.0000 0.65725  0.02379  0.53072  Biso   1.000  O
  O103     1.0000 0.39590  0.83200  0.59980  Biso   1.000  O
  O104     1.0000 0.48510  0.72560  0.71751  Biso   1.000  O
  O105     1.0000 0.61240  0.84960  0.62940  Biso   1.000  O
  N37      1.0000 0.34300  0.78610  0.61793  Biso   1.000  N
  H109     1.0000 0.33840  0.76300  0.62910  Biso   1.000  H
  N38      1.0000 0.41200  0.77610  0.63230  Biso   1.000  N
  H110     1.0000 0.40140  0.75260  0.64110  Biso   1.000  H
  N39      1.0000 0.55370  0.71830  0.73409  Biso   1.000  N
  H111     1.0000 0.58110  0.72390  0.72960  Biso   1.000  H
  N40      1.0000 0.54210  0.75190  0.69097  Biso   1.000  N
  H112     1.0000 0.57080  0.75410  0.69120  Biso   1.000  H
  N41      1.0000 0.54410  0.85570  0.60910  Biso   1.000  N
  H113     1.0000 0.52900  0.86680  0.59420  Biso   1.000  H
  N42      1.0000 0.59870  0.90010  0.59230  Biso   1.000  N
  H114     1.0000 0.57960  0.90580  0.57810  Biso   1.000  H
  C199     1.0000 0.27881  0.88330  0.54158  Biso   1.000  C
  C200     1.0000 0.18750  0.82030  0.62367  Biso   1.000  C
  C201     1.0000 0.27360  0.85350  0.56822  Biso   1.000  C
  C202     1.0000 0.23320  0.84860  0.58161  Biso   1.000  C
  H115     1.0000 0.20830  0.86270  0.57340  Biso   1.000  H
  C203     1.0000 0.22920  0.82270  0.60755  Biso   1.000  C
  C204     1.0000 0.26480  0.80370  0.61948  Biso   1.000  C
  H116     1.0000 0.26260  0.78830  0.63780  Biso   1.000  H
  C205     1.0000 0.30720  0.80690  0.60423  Biso   1.000  C
  C206     1.0000 0.30980  0.83220  0.57872  Biso   1.000  C
  H117     1.0000 0.33680  0.83480  0.56840  Biso   1.000  H
  C207     1.0000 0.45720  0.68050  0.82007  Biso   1.000  C
  C208     1.0000 0.61570  0.64410  0.82092  Biso   1.000  C
  C209     1.0000 0.50030  0.67990  0.80475  Biso   1.000  C
  C210     1.0000 0.53610  0.66050  0.81837  Biso   1.000  C
  H118     1.0000 0.53310  0.64620  0.83710  Biso   1.000  H
  C211     1.0000 0.57730  0.66230  0.80384  Biso   1.000  C
  C212     1.0000 0.58220  0.67990  0.77699  Biso   1.000  C
  H119     1.0000 0.60990  0.67930  0.76750  Biso   1.000  H
  C213     1.0000 0.54670  0.69920  0.76270  Biso   1.000  C
  C214     1.0000 0.50520  0.69940  0.77680  Biso   1.000  C
  H120     1.0000 0.48090  0.71270  0.76730  Biso   1.000  H
  C215     1.0000 0.75440  0.91490  0.62118  Biso   1.000  C
  C216     1.0000 0.69120  0.00620  0.54050  Biso   1.000  C
  C217     1.0000 0.71610  0.92710  0.60249  Biso   1.000  C
  C218     1.0000 0.72090  0.95760  0.57920  Biso   1.000  C
  H121     1.0000 0.74910  0.96870  0.57440  Biso   1.000  H
  C219     1.0000 0.68540  0.97110  0.56375  Biso   1.000  C
  C220     1.0000 0.64470  0.95430  0.56980  Biso   1.000  C
  H122     1.0000 0.61990  0.96390  0.55880  Biso   1.000  H
  C221     1.0000 0.64010  0.92330  0.59210  Biso   1.000  C
  C222     1.0000 0.67710  0.90920  0.60860  Biso   1.000  C
  H123     1.0000 0.67430  0.88760  0.62370  Biso   1.000  H
  C223     1.0000 0.38430  0.80080  0.61440  Biso   1.000  C
  C224     1.0000 0.52400  0.72900  0.71280  Biso   1.000  C
  C225     1.0000 0.58760  0.86960  0.61370  Biso   1.000  C
  C226     1.0000 0.45710  0.78710  0.63724  Biso   1.000  C
  C227     1.0000 0.47570  0.76390  0.66132  Biso   1.000  C
  H124     1.0000 0.45930  0.74340  0.67260  Biso   1.000  H
  C228     1.0000 0.52030  0.77290  0.66772  Biso   1.000  C
  C229     1.0000 0.54500  0.80230  0.65185  Biso   1.000  C
  H125     1.0000 0.57480  0.80760  0.65670  Biso   1.000  H
  C230     1.0000 0.52430  0.82450  0.62800  Biso   1.000  C
  C231     1.0000 0.47950  0.81810  0.61940  Biso   1.000  C
  H126     1.0000 0.46620  0.83330  0.60330  Biso   1.000  H
  Zn15     1.0000 0.34830  0.40463  0.12816  Biso   1.000  Zn
  Zn16     1.0000 0.28925  0.36651  0.17398  Biso   1.000  Zn
  O106     1.0000 0.81593  0.38884  0.03174  Biso   1.000  O
  O107     1.0000 0.74531  0.39962  0.03162  Biso   1.000  O
  O108     1.0000 0.65485  0.33635  0.11041  Biso   1.000  O
  O109     1.0000 0.68644  0.29863  0.14731  Biso   1.000  O
  O110     1.0000 0.92784  0.20457  0.30985  Biso   1.000  O
  O111     1.0000 0.95376  0.15551  0.34158  Biso   1.000  O
  O112     1.0000 0.10899  0.12562  0.34462  Biso   1.000  O
  O113     1.0000 0.15185  0.14749  0.30731  Biso   1.000  O
  O114     1.0000 0.24675  0.39029  0.14305  Biso   1.000  O
  O115     1.0000 0.29151  0.42570  0.11196  Biso   1.000  O
  O116     1.0000 0.22849  0.51251  0.03103  Biso   1.000  O
  O117     1.0000 0.15725  0.52379  0.03072  Biso   1.000  O
  O118     1.0000 0.89590  0.33200  0.09980  Biso   1.000  O
  O119     1.0000 0.98510  0.22560  0.21751  Biso   1.000  O
  O120     1.0000 0.11240  0.34960  0.12940  Biso   1.000  O
  N43      1.0000 0.84300  0.28610  0.11793  Biso   1.000  N
  H127     1.0000 0.83840  0.26300  0.12910  Biso   1.000  H
  N44      1.0000 0.91200  0.27610  0.13230  Biso   1.000  N
  H128     1.0000 0.90140  0.25260  0.14110  Biso   1.000  H
  N45      1.0000 0.05370  0.21830  0.23409  Biso   1.000  N
  H129     1.0000 0.08110  0.22390  0.22960  Biso   1.000  H
  N46      1.0000 0.04210  0.25190  0.19097  Biso   1.000  N
  H130     1.0000 0.07080  0.25410  0.19120  Biso   1.000  H
  N47      1.0000 0.04410  0.35570  0.10910  Biso   1.000  N
  H131     1.0000 0.02900  0.36680  0.09420  Biso   1.000  H
  N48      1.0000 0.09870  0.40010  0.09230  Biso   1.000  N
  H132     1.0000 0.07960  0.40580  0.07810  Biso   1.000  H
  C232     1.0000 0.77881  0.38330  0.04158  Biso   1.000  C
  C233     1.0000 0.68750  0.32030  0.12367  Biso   1.000  C
  C234     1.0000 0.77360  0.35350  0.06822  Biso   1.000  C
  C235     1.0000 0.73320  0.34860  0.08161  Biso   1.000  C
  H133     1.0000 0.70830  0.36270  0.07340  Biso   1.000  H
  C236     1.0000 0.72920  0.32270  0.10755  Biso   1.000  C
  C237     1.0000 0.76480  0.30370  0.11948  Biso   1.000  C
  H134     1.0000 0.76260  0.28830  0.13780  Biso   1.000  H
  C238     1.0000 0.80720  0.30690  0.10423  Biso   1.000  C
  C239     1.0000 0.80980  0.33220  0.07872  Biso   1.000  C
  H135     1.0000 0.83680  0.33480  0.06840  Biso   1.000  H
  C240     1.0000 0.95720  0.18050  0.32007  Biso   1.000  C
  C241     1.0000 0.11570  0.14410  0.32092  Biso   1.000  C
  C242     1.0000 0.00030  0.17990  0.30475  Biso   1.000  C
  C243     1.0000 0.03610  0.16050  0.31837  Biso   1.000  C
  H136     1.0000 0.03310  0.14620  0.33710  Biso   1.000  H
  C244     1.0000 0.07730  0.16230  0.30384  Biso   1.000  C
  C245     1.0000 0.08220  0.17990  0.27699  Biso   1.000  C
  H137     1.0000 0.10990  0.17930  0.26750  Biso   1.000  H
  C246     1.0000 0.04670  0.19920  0.26270  Biso   1.000  C
  C247     1.0000 0.00520  0.19940  0.27680  Biso   1.000  C
  H138     1.0000 0.98090  0.21270  0.26730  Biso   1.000  H
  C248     1.0000 0.25440  0.41490  0.12118  Biso   1.000  C
  C249     1.0000 0.19120  0.50620  0.04050  Biso   1.000  C
  C250     1.0000 0.21610  0.42710  0.10249  Biso   1.000  C
  C251     1.0000 0.22090  0.45760  0.07920  Biso   1.000  C
  H139     1.0000 0.24910  0.46870  0.07440  Biso   1.000  H
  C252     1.0000 0.18540  0.47110  0.06375  Biso   1.000  C
  C253     1.0000 0.14470  0.45430  0.06980  Biso   1.000  C
  H140     1.0000 0.11990  0.46390  0.05880  Biso   1.000  H
  C254     1.0000 0.14010  0.42330  0.09210  Biso   1.000  C
  C255     1.0000 0.17710  0.40920  0.10860  Biso   1.000  C
  H141     1.0000 0.17430  0.38760  0.12370  Biso   1.000  H
  C256     1.0000 0.88430  0.30080  0.11440  Biso   1.000  C
  C257     1.0000 0.02400  0.22900  0.21280  Biso   1.000  C
  C258     1.0000 0.08760  0.36960  0.11370  Biso   1.000  C
  C259     1.0000 0.95710  0.28710  0.13724  Biso   1.000  C
  C260     1.0000 0.97570  0.26390  0.16132  Biso   1.000  C
  H142     1.0000 0.95930  0.24340  0.17260  Biso   1.000  H
  C261     1.0000 0.02030  0.27290  0.16772  Biso   1.000  C
  C262     1.0000 0.04500  0.30230  0.15185  Biso   1.000  C
  H143     1.0000 0.07480  0.30760  0.15670  Biso   1.000  H
  C263     1.0000 0.02430  0.32450  0.12800  Biso   1.000  C
  C264     1.0000 0.97950  0.31810  0.11940  Biso   1.000  C
  H144     1.0000 0.96620  0.33330  0.10330  Biso   1.000  H
  Zn17     1.0000 0.90463  0.15170  0.37184  Biso   1.000  Zn
  Zn18     1.0000 0.86651  0.21075  0.32602  Biso   1.000  Zn
  O121     1.0000 0.88884  0.68407  0.46826  Biso   1.000  O
  O122     1.0000 0.89962  0.75469  0.46838  Biso   1.000  O
  O123     1.0000 0.83635  0.84515  0.38959  Biso   1.000  O
  O124     1.0000 0.79863  0.81356  0.35269  Biso   1.000  O
  O125     1.0000 0.70457  0.57216  0.19015  Biso   1.000  O
  O126     1.0000 0.65551  0.54624  0.15842  Biso   1.000  O
  O127     1.0000 0.62562  0.39101  0.15538  Biso   1.000  O
  O128     1.0000 0.64749  0.34815  0.19269  Biso   1.000  O
  O129     1.0000 0.89029  0.25325  0.35695  Biso   1.000  O
  O130     1.0000 0.92570  0.20849  0.38804  Biso   1.000  O
  O131     1.0000 0.01251  0.27151  0.46897  Biso   1.000  O
  O132     1.0000 0.02379  0.34275  0.46928  Biso   1.000  O
  O133     1.0000 0.83200  0.60410  0.40020  Biso   1.000  O
  O134     1.0000 0.72560  0.51490  0.28249  Biso   1.000  O
  O135     1.0000 0.84960  0.38760  0.37060  Biso   1.000  O
  N49      1.0000 0.78610  0.65700  0.38207  Biso   1.000  N
  H145     1.0000 0.76300  0.66160  0.37090  Biso   1.000  H
  N50      1.0000 0.77610  0.58800  0.36770  Biso   1.000  N
  H146     1.0000 0.75260  0.59860  0.35890  Biso   1.000  H
  N51      1.0000 0.71830  0.44630  0.26591  Biso   1.000  N
  H147     1.0000 0.72390  0.41890  0.27040  Biso   1.000  H
  N52      1.0000 0.75190  0.45790  0.30903  Biso   1.000  N
  H148     1.0000 0.75410  0.42920  0.30880  Biso   1.000  H
  N53      1.0000 0.85570  0.45590  0.39090  Biso   1.000  N
  H149     1.0000 0.86680  0.47100  0.40580  Biso   1.000  H
  N54      1.0000 0.90010  0.40130  0.40770  Biso   1.000  N
  H150     1.0000 0.90580  0.42040  0.42190  Biso   1.000  H
  C265     1.0000 0.88330  0.72119  0.45842  Biso   1.000  C
  C266     1.0000 0.82030  0.81250  0.37633  Biso   1.000  C
  C267     1.0000 0.85350  0.72640  0.43178  Biso   1.000  C
  C268     1.0000 0.84860  0.76680  0.41839  Biso   1.000  C
  H151     1.0000 0.86270  0.79170  0.42660  Biso   1.000  H
  C269     1.0000 0.82270  0.77080  0.39245  Biso   1.000  C
  C270     1.0000 0.80370  0.73520  0.38052  Biso   1.000  C
  H152     1.0000 0.78830  0.73740  0.36220  Biso   1.000  H
  C271     1.0000 0.80690  0.69280  0.39577  Biso   1.000  C
  C272     1.0000 0.83220  0.69020  0.42128  Biso   1.000  C
  H153     1.0000 0.83480  0.66320  0.43160  Biso   1.000  H
  C273     1.0000 0.68050  0.54280  0.17993  Biso   1.000  C
  C274     1.0000 0.64410  0.38430  0.17908  Biso   1.000  C
  C275     1.0000 0.67990  0.49970  0.19525  Biso   1.000  C
  C276     1.0000 0.66050  0.46390  0.18163  Biso   1.000  C
  H154     1.0000 0.64620  0.46690  0.16290  Biso   1.000  H
  C277     1.0000 0.66230  0.42270  0.19616  Biso   1.000  C
  C278     1.0000 0.67990  0.41780  0.22301  Biso   1.000  C
  H155     1.0000 0.67930  0.39010  0.23250  Biso   1.000  H
  C279     1.0000 0.69920  0.45330  0.23730  Biso   1.000  C
  C280     1.0000 0.69940  0.49480  0.22320  Biso   1.000  C
  H156     1.0000 0.71270  0.51910  0.23270  Biso   1.000  H
  C281     1.0000 0.91490  0.24560  0.37882  Biso   1.000  C
  C282     1.0000 0.00620  0.30880  0.45950  Biso   1.000  C
  C283     1.0000 0.92710  0.28390  0.39751  Biso   1.000  C
  C284     1.0000 0.95760  0.27910  0.42080  Biso   1.000  C
  H157     1.0000 0.96870  0.25090  0.42560  Biso   1.000  H
  C285     1.0000 0.97110  0.31460  0.43625  Biso   1.000  C
  C286     1.0000 0.95430  0.35530  0.43020  Biso   1.000  C
  H158     1.0000 0.96390  0.38010  0.44120  Biso   1.000  H
  C287     1.0000 0.92330  0.35990  0.40790  Biso   1.000  C
  C288     1.0000 0.90920  0.32290  0.39140  Biso   1.000  C
  H159     1.0000 0.88760  0.32570  0.37630  Biso   1.000  H
  C289     1.0000 0.80080  0.61570  0.38560  Biso   1.000  C
  C290     1.0000 0.72900  0.47600  0.28720  Biso   1.000  C
  C291     1.0000 0.86960  0.41240  0.38630  Biso   1.000  C
  C292     1.0000 0.78710  0.54290  0.36276  Biso   1.000  C
  C293     1.0000 0.76390  0.52430  0.33868  Biso   1.000  C
  H160     1.0000 0.74340  0.54070  0.32740  Biso   1.000  H
  C294     1.0000 0.77290  0.47970  0.33228  Biso   1.000  C
  C295     1.0000 0.80230  0.45500  0.34815  Biso   1.000  C
  H161     1.0000 0.80760  0.42520  0.34330  Biso   1.000  H
  C296     1.0000 0.82450  0.47570  0.37200  Biso   1.000  C
  C297     1.0000 0.81810  0.52050  0.38060  Biso   1.000  C
  H162     1.0000 0.83330  0.53380  0.39670  Biso   1.000  H
  Zn19     1.0000 0.40463  0.65170  0.87184  Biso   1.000  Zn
  Zn20     1.0000 0.36651  0.71075  0.82602  Biso   1.000  Zn
  O136     1.0000 0.38884  0.18407  0.96826  Biso   1.000  O
  O137     1.0000 0.39962  0.25469  0.96838  Biso   1.000  O
  O138     1.0000 0.33635  0.34515  0.88959  Biso   1.000  O
  O139     1.0000 0.29863  0.31356  0.85269  Biso   1.000  O
  O140     1.0000 0.20457  0.07216  0.69015  Biso   1.000  O
  O141     1.0000 0.15551  0.04624  0.65842  Biso   1.000  O
  O142     1.0000 0.12562  0.89101  0.65538  Biso   1.000  O
  O143     1.0000 0.14749  0.84815  0.69269  Biso   1.000  O
  O144     1.0000 0.39029  0.75325  0.85695  Biso   1.000  O
  O145     1.0000 0.42570  0.70849  0.88804  Biso   1.000  O
  O146     1.0000 0.51251  0.77151  0.96897  Biso   1.000  O
  O147     1.0000 0.52379  0.84275  0.96928  Biso   1.000  O
  O148     1.0000 0.33200  0.10410  0.90020  Biso   1.000  O
  O149     1.0000 0.22560  0.01490  0.78249  Biso   1.000  O
  O150     1.0000 0.34960  0.88760  0.87060  Biso   1.000  O
  N55      1.0000 0.28610  0.15700  0.88207  Biso   1.000  N
  H163     1.0000 0.26300  0.16160  0.87090  Biso   1.000  H
  N56      1.0000 0.27610  0.08800  0.86770  Biso   1.000  N
  H164     1.0000 0.25260  0.09860  0.85890  Biso   1.000  H
  N57      1.0000 0.21830  0.94630  0.76591  Biso   1.000  N
  H165     1.0000 0.22390  0.91890  0.77040  Biso   1.000  H
  N58      1.0000 0.25190  0.95790  0.80903  Biso   1.000  N
  H166     1.0000 0.25410  0.92920  0.80880  Biso   1.000  H
  N59      1.0000 0.35570  0.95590  0.89090  Biso   1.000  N
  H167     1.0000 0.36680  0.97100  0.90580  Biso   1.000  H
  N60      1.0000 0.40010  0.90130  0.90770  Biso   1.000  N
  H168     1.0000 0.40580  0.92040  0.92190  Biso   1.000  H
  C298     1.0000 0.38330  0.22119  0.95842  Biso   1.000  C
  C299     1.0000 0.32030  0.31250  0.87633  Biso   1.000  C
  C300     1.0000 0.35350  0.22640  0.93178  Biso   1.000  C
  C301     1.0000 0.34860  0.26680  0.91839  Biso   1.000  C
  H169     1.0000 0.36270  0.29170  0.92660  Biso   1.000  H
  C302     1.0000 0.32270  0.27080  0.89245  Biso   1.000  C
  C303     1.0000 0.30370  0.23520  0.88052  Biso   1.000  C
  H170     1.0000 0.28830  0.23740  0.86220  Biso   1.000  H
  C304     1.0000 0.30690  0.19280  0.89577  Biso   1.000  C
  C305     1.0000 0.33220  0.19020  0.92128  Biso   1.000  C
  H171     1.0000 0.33480  0.16320  0.93160  Biso   1.000  H
  C306     1.0000 0.18050  0.04280  0.67993  Biso   1.000  C
  C307     1.0000 0.14410  0.88430  0.67908  Biso   1.000  C
  C308     1.0000 0.17990  0.99970  0.69525  Biso   1.000  C
  C309     1.0000 0.16050  0.96390  0.68163  Biso   1.000  C
  H172     1.0000 0.14620  0.96690  0.66290  Biso   1.000  H
  C310     1.0000 0.16230  0.92270  0.69616  Biso   1.000  C
  C311     1.0000 0.17990  0.91780  0.72301  Biso   1.000  C
  H173     1.0000 0.17930  0.89010  0.73250  Biso   1.000  H
  C312     1.0000 0.19920  0.95330  0.73730  Biso   1.000  C
  C313     1.0000 0.19940  0.99480  0.72320  Biso   1.000  C
  H174     1.0000 0.21270  0.01910  0.73270  Biso   1.000  H
  C314     1.0000 0.41490  0.74560  0.87882  Biso   1.000  C
  C315     1.0000 0.50620  0.80880  0.95950  Biso   1.000  C
  C316     1.0000 0.42710  0.78390  0.89751  Biso   1.000  C
  C317     1.0000 0.45760  0.77910  0.92080  Biso   1.000  C
  H175     1.0000 0.46870  0.75090  0.92560  Biso   1.000  H
  C318     1.0000 0.47110  0.81460  0.93625  Biso   1.000  C
  C319     1.0000 0.45430  0.85530  0.93020  Biso   1.000  C
  H176     1.0000 0.46390  0.88010  0.94120  Biso   1.000  H
  C320     1.0000 0.42330  0.85990  0.90790  Biso   1.000  C
  C321     1.0000 0.40920  0.82290  0.89140  Biso   1.000  C
  H177     1.0000 0.38760  0.82570  0.87630  Biso   1.000  H
  C322     1.0000 0.30080  0.11570  0.88560  Biso   1.000  C
  C323     1.0000 0.22900  0.97600  0.78720  Biso   1.000  C
  C324     1.0000 0.36960  0.91240  0.88630  Biso   1.000  C
  C325     1.0000 0.28710  0.04290  0.86276  Biso   1.000  C
  C326     1.0000 0.26390  0.02430  0.83868  Biso   1.000  C
  H178     1.0000 0.24340  0.04070  0.82740  Biso   1.000  H
  C327     1.0000 0.27290  0.97970  0.83228  Biso   1.000  C
  C328     1.0000 0.30230  0.95500  0.84815  Biso   1.000  C
  H179     1.0000 0.30760  0.92520  0.84330  Biso   1.000  H
  C329     1.0000 0.32450  0.97570  0.87200  Biso   1.000  C
  C330     1.0000 0.31810  0.02050  0.88060  Biso   1.000  C
  H180     1.0000 0.33330  0.03380  0.89670  Biso   1.000  H
  Zn21     1.0000 0.09537  0.84830  0.37184  Biso   1.000  Zn
  Zn22     1.0000 0.13349  0.78925  0.32602  Biso   1.000  Zn
  O151     1.0000 0.11116  0.31593  0.46826  Biso   1.000  O
  O152     1.0000 0.10038  0.24531  0.46838  Biso   1.000  O
  O153     1.0000 0.16365  0.15485  0.38959  Biso   1.000  O
  O154     1.0000 0.20137  0.18644  0.35269  Biso   1.000  O
  O155     1.0000 0.29543  0.42784  0.19015  Biso   1.000  O
  O156     1.0000 0.34449  0.45376  0.15842  Biso   1.000  O
  O157     1.0000 0.37438  0.60899  0.15538  Biso   1.000  O
  O158     1.0000 0.35251  0.65185  0.19269  Biso   1.000  O
  O159     1.0000 0.10971  0.74675  0.35695  Biso   1.000  O
  O160     1.0000 0.07430  0.79151  0.38804  Biso   1.000  O
  O161     1.0000 0.98749  0.72849  0.46897  Biso   1.000  O
  O162     1.0000 0.97621  0.65725  0.46928  Biso   1.000  O
  O163     1.0000 0.16800  0.39590  0.40020  Biso   1.000  O
  O164     1.0000 0.27440  0.48510  0.28249  Biso   1.000  O
  O165     1.0000 0.15040  0.61240  0.37060  Biso   1.000  O
  N61      1.0000 0.21390  0.34300  0.38207  Biso   1.000  N
  H181     1.0000 0.23700  0.33840  0.37090  Biso   1.000  H
  N62      1.0000 0.22390  0.41200  0.36770  Biso   1.000  N
  H182     1.0000 0.24740  0.40140  0.35890  Biso   1.000  H
  N63      1.0000 0.28170  0.55370  0.26591  Biso   1.000  N
  H183     1.0000 0.27610  0.58110  0.27040  Biso   1.000  H
  N64      1.0000 0.24810  0.54210  0.30903  Biso   1.000  N
  H184     1.0000 0.24590  0.57080  0.30880  Biso   1.000  H
  N65      1.0000 0.14430  0.54410  0.39090  Biso   1.000  N
  H185     1.0000 0.13320  0.52900  0.40580  Biso   1.000  H
  N66      1.0000 0.09990  0.59870  0.40770  Biso   1.000  N
  H186     1.0000 0.09420  0.57960  0.42190  Biso   1.000  H
  C331     1.0000 0.11670  0.27881  0.45842  Biso   1.000  C
  C332     1.0000 0.17970  0.18750  0.37633  Biso   1.000  C
  C333     1.0000 0.14650  0.27360  0.43178  Biso   1.000  C
  C334     1.0000 0.15140  0.23320  0.41839  Biso   1.000  C
  H187     1.0000 0.13730  0.20830  0.42660  Biso   1.000  H
  C335     1.0000 0.17730  0.22920  0.39245  Biso   1.000  C
  C336     1.0000 0.19630  0.26480  0.38052  Biso   1.000  C
  H188     1.0000 0.21170  0.26260  0.36220  Biso   1.000  H
  C337     1.0000 0.19310  0.30720  0.39577  Biso   1.000  C
  C338     1.0000 0.16780  0.30980  0.42128  Biso   1.000  C
  H189     1.0000 0.16520  0.33680  0.43160  Biso   1.000  H
  C339     1.0000 0.31950  0.45720  0.17993  Biso   1.000  C
  C340     1.0000 0.35590  0.61570  0.17908  Biso   1.000  C
  C341     1.0000 0.32010  0.50030  0.19525  Biso   1.000  C
  C342     1.0000 0.33950  0.53610  0.18163  Biso   1.000  C
  H190     1.0000 0.35380  0.53310  0.16290  Biso   1.000  H
  C343     1.0000 0.33770  0.57730  0.19616  Biso   1.000  C
  C344     1.0000 0.32010  0.58220  0.22301  Biso   1.000  C
  H191     1.0000 0.32070  0.60990  0.23250  Biso   1.000  H
  C345     1.0000 0.30080  0.54670  0.23730  Biso   1.000  C
  C346     1.0000 0.30060  0.50520  0.22320  Biso   1.000  C
  H192     1.0000 0.28730  0.48090  0.23270  Biso   1.000  H
  C347     1.0000 0.08510  0.75440  0.37882  Biso   1.000  C
  C348     1.0000 0.99380  0.69120  0.45950  Biso   1.000  C
  C349     1.0000 0.07290  0.71610  0.39751  Biso   1.000  C
  C350     1.0000 0.04240  0.72090  0.42080  Biso   1.000  C
  H193     1.0000 0.03130  0.74910  0.42560  Biso   1.000  H
  C351     1.0000 0.02890  0.68540  0.43625  Biso   1.000  C
  C352     1.0000 0.04570  0.64470  0.43020  Biso   1.000  C
  H194     1.0000 0.03610  0.61990  0.44120  Biso   1.000  H
  C353     1.0000 0.07670  0.64010  0.40790  Biso   1.000  C
  C354     1.0000 0.09080  0.67710  0.39140  Biso   1.000  C
  H195     1.0000 0.11240  0.67430  0.37630  Biso   1.000  H
  C355     1.0000 0.19920  0.38430  0.38560  Biso   1.000  C
  C356     1.0000 0.27100  0.52400  0.28720  Biso   1.000  C
  C357     1.0000 0.13040  0.58760  0.38630  Biso   1.000  C
  C358     1.0000 0.21290  0.45710  0.36276  Biso   1.000  C
  C359     1.0000 0.23610  0.47570  0.33868  Biso   1.000  C
  H196     1.0000 0.25660  0.45930  0.32740  Biso   1.000  H
  C360     1.0000 0.22710  0.52030  0.33228  Biso   1.000  C
  C361     1.0000 0.19770  0.54500  0.34815  Biso   1.000  C
  H197     1.0000 0.19240  0.57480  0.34330  Biso   1.000  H
  C362     1.0000 0.17550  0.52430  0.37200  Biso   1.000  C
  C363     1.0000 0.18190  0.47950  0.38060  Biso   1.000  C
  H198     1.0000 0.16670  0.46620  0.39670  Biso   1.000  H
  Zn23     1.0000 0.59537  0.34830  0.87184  Biso   1.000  Zn
  Zn24     1.0000 0.63349  0.28925  0.82602  Biso   1.000  Zn
  O166     1.0000 0.61116  0.81593  0.96826  Biso   1.000  O
  O167     1.0000 0.60038  0.74531  0.96838  Biso   1.000  O
  O168     1.0000 0.66365  0.65485  0.88959  Biso   1.000  O
  O169     1.0000 0.70137  0.68644  0.85269  Biso   1.000  O
  O170     1.0000 0.79543  0.92784  0.69015  Biso   1.000  O
  O171     1.0000 0.84449  0.95376  0.65842  Biso   1.000  O
  O172     1.0000 0.87438  0.10899  0.65538  Biso   1.000  O
  O173     1.0000 0.85251  0.15185  0.69269  Biso   1.000  O
  O174     1.0000 0.60971  0.24675  0.85695  Biso   1.000  O
  O175     1.0000 0.57430  0.29151  0.88804  Biso   1.000  O
  O176     1.0000 0.48749  0.22849  0.96897  Biso   1.000  O
  O177     1.0000 0.47621  0.15725  0.96928  Biso   1.000  O
  O178     1.0000 0.66800  0.89590  0.90020  Biso   1.000  O
  O179     1.0000 0.77440  0.98510  0.78249  Biso   1.000  O
  O180     1.0000 0.65040  0.11240  0.87060  Biso   1.000  O
  N67      1.0000 0.71390  0.84300  0.88207  Biso   1.000  N
  H199     1.0000 0.73700  0.83840  0.87090  Biso   1.000  H
  N68      1.0000 0.72390  0.91200  0.86770  Biso   1.000  N
  H200     1.0000 0.74740  0.90140  0.85890  Biso   1.000  H
  N69      1.0000 0.78170  0.05370  0.76591  Biso   1.000  N
  H201     1.0000 0.77610  0.08110  0.77040  Biso   1.000  H
  N70      1.0000 0.74810  0.04210  0.80903  Biso   1.000  N
  H202     1.0000 0.74590  0.07080  0.80880  Biso   1.000  H
  N71      1.0000 0.64430  0.04410  0.89090  Biso   1.000  N
  H203     1.0000 0.63320  0.02900  0.90580  Biso   1.000  H
  N72      1.0000 0.59990  0.09870  0.90770  Biso   1.000  N
  H204     1.0000 0.59420  0.07960  0.92190  Biso   1.000  H
  C364     1.0000 0.61670  0.77881  0.95842  Biso   1.000  C
  C365     1.0000 0.67970  0.68750  0.87633  Biso   1.000  C
  C366     1.0000 0.64650  0.77360  0.93178  Biso   1.000  C
  C367     1.0000 0.65140  0.73320  0.91839  Biso   1.000  C
  H205     1.0000 0.63730  0.70830  0.92660  Biso   1.000  H
  C368     1.0000 0.67730  0.72920  0.89245  Biso   1.000  C
  C369     1.0000 0.69630  0.76480  0.88052  Biso   1.000  C
  H206     1.0000 0.71170  0.76260  0.86220  Biso   1.000  H
  C370     1.0000 0.69310  0.80720  0.89577  Biso   1.000  C
  C371     1.0000 0.66780  0.80980  0.92128  Biso   1.000  C
  H207     1.0000 0.66520  0.83680  0.93160  Biso   1.000  H
  C372     1.0000 0.81950  0.95720  0.67993  Biso   1.000  C
  C373     1.0000 0.85590  0.11570  0.67908  Biso   1.000  C
  C374     1.0000 0.82010  0.00030  0.69525  Biso   1.000  C
  C375     1.0000 0.83950  0.03610  0.68163  Biso   1.000  C
  H208     1.0000 0.85380  0.03310  0.66290  Biso   1.000  H
  C376     1.0000 0.83770  0.07730  0.69616  Biso   1.000  C
  C377     1.0000 0.82010  0.08220  0.72301  Biso   1.000  C
  H209     1.0000 0.82070  0.10990  0.73250  Biso   1.000  H
  C378     1.0000 0.80080  0.04670  0.73730  Biso   1.000  C
  C379     1.0000 0.80060  0.00520  0.72320  Biso   1.000  C
  H210     1.0000 0.78730  0.98090  0.73270  Biso   1.000  H
  C380     1.0000 0.58510  0.25440  0.87882  Biso   1.000  C
  C381     1.0000 0.49380  0.19120  0.95950  Biso   1.000  C
  C382     1.0000 0.57290  0.21610  0.89751  Biso   1.000  C
  C383     1.0000 0.54240  0.22090  0.92080  Biso   1.000  C
  H211     1.0000 0.53130  0.24910  0.92560  Biso   1.000  H
  C384     1.0000 0.52890  0.18540  0.93625  Biso   1.000  C
  C385     1.0000 0.54570  0.14470  0.93020  Biso   1.000  C
  H212     1.0000 0.53610  0.11990  0.94120  Biso   1.000  H
  C386     1.0000 0.57670  0.14010  0.90790  Biso   1.000  C
  C387     1.0000 0.59080  0.17710  0.89140  Biso   1.000  C
  H213     1.0000 0.61240  0.17430  0.87630  Biso   1.000  H
  C388     1.0000 0.69920  0.88430  0.88560  Biso   1.000  C
  C389     1.0000 0.77100  0.02400  0.78720  Biso   1.000  C
  C390     1.0000 0.63040  0.08760  0.88630  Biso   1.000  C
  C391     1.0000 0.71290  0.95710  0.86276  Biso   1.000  C
  C392     1.0000 0.73610  0.97570  0.83868  Biso   1.000  C
  H214     1.0000 0.75660  0.95930  0.82740  Biso   1.000  H
  C393     1.0000 0.72710  0.02030  0.83228  Biso   1.000  C
  C394     1.0000 0.69770  0.04500  0.84815  Biso   1.000  C
  H215     1.0000 0.69240  0.07480  0.84330  Biso   1.000  H
  C395     1.0000 0.67550  0.02430  0.87200  Biso   1.000  C
  C396     1.0000 0.68190  0.97950  0.88060  Biso   1.000  C
  H216     1.0000 0.66670  0.96620  0.89670  Biso   1.000  H
  Zn25     1.0000 0.84830  0.90463  0.37184  Biso   1.000  Zn
  Zn26     1.0000 0.78925  0.86651  0.32602  Biso   1.000  Zn
  O181     1.0000 0.31593  0.88884  0.46826  Biso   1.000  O
  O182     1.0000 0.24531  0.89962  0.46838  Biso   1.000  O
  O183     1.0000 0.15485  0.83635  0.38959  Biso   1.000  O
  O184     1.0000 0.18644  0.79863  0.35269  Biso   1.000  O
  O185     1.0000 0.42784  0.70457  0.19015  Biso   1.000  O
  O186     1.0000 0.45376  0.65551  0.15842  Biso   1.000  O
  O187     1.0000 0.60899  0.62562  0.15538  Biso   1.000  O
  O188     1.0000 0.65185  0.64749  0.19269  Biso   1.000  O
  O189     1.0000 0.74675  0.89029  0.35695  Biso   1.000  O
  O190     1.0000 0.79151  0.92570  0.38804  Biso   1.000  O
  O191     1.0000 0.72849  0.01251  0.46897  Biso   1.000  O
  O192     1.0000 0.65725  0.02379  0.46928  Biso   1.000  O
  O193     1.0000 0.39590  0.83200  0.40020  Biso   1.000  O
  O194     1.0000 0.48510  0.72560  0.28249  Biso   1.000  O
  O195     1.0000 0.61240  0.84960  0.37060  Biso   1.000  O
  N73      1.0000 0.34300  0.78610  0.38207  Biso   1.000  N
  H217     1.0000 0.33840  0.76300  0.37090  Biso   1.000  H
  N74      1.0000 0.41200  0.77610  0.36770  Biso   1.000  N
  H218     1.0000 0.40140  0.75260  0.35890  Biso   1.000  H
  N75      1.0000 0.55370  0.71830  0.26591  Biso   1.000  N
  H219     1.0000 0.58110  0.72390  0.27040  Biso   1.000  H
  N76      1.0000 0.54210  0.75190  0.30903  Biso   1.000  N
  H220     1.0000 0.57080  0.75410  0.30880  Biso   1.000  H
  N77      1.0000 0.54410  0.85570  0.39090  Biso   1.000  N
  H221     1.0000 0.52900  0.86680  0.40580  Biso   1.000  H
  N78      1.0000 0.59870  0.90010  0.40770  Biso   1.000  N
  H222     1.0000 0.57960  0.90580  0.42190  Biso   1.000  H
  C397     1.0000 0.27881  0.88330  0.45842  Biso   1.000  C
  C398     1.0000 0.18750  0.82030  0.37633  Biso   1.000  C
  C399     1.0000 0.27360  0.85350  0.43178  Biso   1.000  C
  C400     1.0000 0.23320  0.84860  0.41839  Biso   1.000  C
  H223     1.0000 0.20830  0.86270  0.42660  Biso   1.000  H
  C401     1.0000 0.22920  0.82270  0.39245  Biso   1.000  C
  C402     1.0000 0.26480  0.80370  0.38052  Biso   1.000  C
  H224     1.0000 0.26260  0.78830  0.36220  Biso   1.000  H
  C403     1.0000 0.30720  0.80690  0.39577  Biso   1.000  C
  C404     1.0000 0.30980  0.83220  0.42128  Biso   1.000  C
  H225     1.0000 0.33680  0.83480  0.43160  Biso   1.000  H
  C405     1.0000 0.45720  0.68050  0.17993  Biso   1.000  C
  C406     1.0000 0.61570  0.64410  0.17908  Biso   1.000  C
  C407     1.0000 0.50030  0.67990  0.19525  Biso   1.000  C
  C408     1.0000 0.53610  0.66050  0.18163  Biso   1.000  C
  H226     1.0000 0.53310  0.64620  0.16290  Biso   1.000  H
  C409     1.0000 0.57730  0.66230  0.19616  Biso   1.000  C
  C410     1.0000 0.58220  0.67990  0.22301  Biso   1.000  C
  H227     1.0000 0.60990  0.67930  0.23250  Biso   1.000  H
  C411     1.0000 0.54670  0.69920  0.23730  Biso   1.000  C
  C412     1.0000 0.50520  0.69940  0.22320  Biso   1.000  C
  H228     1.0000 0.48090  0.71270  0.23270  Biso   1.000  H
  C413     1.0000 0.75440  0.91490  0.37882  Biso   1.000  C
  C414     1.0000 0.69120  0.00620  0.45950  Biso   1.000  C
  C415     1.0000 0.71610  0.92710  0.39751  Biso   1.000  C
  C416     1.0000 0.72090  0.95760  0.42080  Biso   1.000  C
  H229     1.0000 0.74910  0.96870  0.42560  Biso   1.000  H
  C417     1.0000 0.68540  0.97110  0.43625  Biso   1.000  C
  C418     1.0000 0.64470  0.95430  0.43020  Biso   1.000  C
  H230     1.0000 0.61990  0.96390  0.44120  Biso   1.000  H
  C419     1.0000 0.64010  0.92330  0.40790  Biso   1.000  C
  C420     1.0000 0.67710  0.90920  0.39140  Biso   1.000  C
  H231     1.0000 0.67430  0.88760  0.37630  Biso   1.000  H
  C421     1.0000 0.38430  0.80080  0.38560  Biso   1.000  C
  C422     1.0000 0.52400  0.72900  0.28720  Biso   1.000  C
  C423     1.0000 0.58760  0.86960  0.38630  Biso   1.000  C
  C424     1.0000 0.45710  0.78710  0.36276  Biso   1.000  C
  C425     1.0000 0.47570  0.76390  0.33868  Biso   1.000  C
  H232     1.0000 0.45930  0.74340  0.32740  Biso   1.000  H
  C426     1.0000 0.52030  0.77290  0.33228  Biso   1.000  C
  C427     1.0000 0.54500  0.80230  0.34815  Biso   1.000  C
  H233     1.0000 0.57480  0.80760  0.34330  Biso   1.000  H
  C428     1.0000 0.52430  0.82450  0.37200  Biso   1.000  C
  C429     1.0000 0.47950  0.81810  0.38060  Biso   1.000  C
  H234     1.0000 0.46620  0.83330  0.39670  Biso   1.000  H
  Zn27     1.0000 0.34830  0.40463  0.87184  Biso   1.000  Zn
  Zn28     1.0000 0.28925  0.36651  0.82602  Biso   1.000  Zn
  O196     1.0000 0.81593  0.38884  0.96826  Biso   1.000  O
  O197     1.0000 0.74531  0.39962  0.96838  Biso   1.000  O
  O198     1.0000 0.65485  0.33635  0.88959  Biso   1.000  O
  O199     1.0000 0.68644  0.29863  0.85269  Biso   1.000  O
  O200     1.0000 0.92784  0.20457  0.69015  Biso   1.000  O
  O201     1.0000 0.95376  0.15551  0.65842  Biso   1.000  O
  O202     1.0000 0.10899  0.12562  0.65538  Biso   1.000  O
  O203     1.0000 0.15185  0.14749  0.69269  Biso   1.000  O
  O204     1.0000 0.24675  0.39029  0.85695  Biso   1.000  O
  O205     1.0000 0.29151  0.42570  0.88804  Biso   1.000  O
  O206     1.0000 0.22849  0.51251  0.96897  Biso   1.000  O
  O207     1.0000 0.15725  0.52379  0.96928  Biso   1.000  O
  O208     1.0000 0.89590  0.33200  0.90020  Biso   1.000  O
  O209     1.0000 0.98510  0.22560  0.78249  Biso   1.000  O
  O210     1.0000 0.11240  0.34960  0.87060  Biso   1.000  O
  N79      1.0000 0.84300  0.28610  0.88207  Biso   1.000  N
  H235     1.0000 0.83840  0.26300  0.87090  Biso   1.000  H
  N80      1.0000 0.91200  0.27610  0.86770  Biso   1.000  N
  H236     1.0000 0.90140  0.25260  0.85890  Biso   1.000  H
  N81      1.0000 0.05370  0.21830  0.76591  Biso   1.000  N
  H237     1.0000 0.08110  0.22390  0.77040  Biso   1.000  H
  N82      1.0000 0.04210  0.25190  0.80903  Biso   1.000  N
  H238     1.0000 0.07080  0.25410  0.80880  Biso   1.000  H
  N83      1.0000 0.04410  0.35570  0.89090  Biso   1.000  N
  H239     1.0000 0.02900  0.36680  0.90580  Biso   1.000  H
  N84      1.0000 0.09870  0.40010  0.90770  Biso   1.000  N
  H240     1.0000 0.07960  0.40580  0.92190  Biso   1.000  H
  C430     1.0000 0.77881  0.38330  0.95842  Biso   1.000  C
  C431     1.0000 0.68750  0.32030  0.87633  Biso   1.000  C
  C432     1.0000 0.77360  0.35350  0.93178  Biso   1.000  C
  C433     1.0000 0.73320  0.34860  0.91839  Biso   1.000  C
  H241     1.0000 0.70830  0.36270  0.92660  Biso   1.000  H
  C434     1.0000 0.72920  0.32270  0.89245  Biso   1.000  C
  C435     1.0000 0.76480  0.30370  0.88052  Biso   1.000  C
  H242     1.0000 0.76260  0.28830  0.86220  Biso   1.000  H
  C436     1.0000 0.80720  0.30690  0.89577  Biso   1.000  C
  C437     1.0000 0.80980  0.33220  0.92128  Biso   1.000  C
  H243     1.0000 0.83680  0.33480  0.93160  Biso   1.000  H
  C438     1.0000 0.95720  0.18050  0.67993  Biso   1.000  C
  C439     1.0000 0.11570  0.14410  0.67908  Biso   1.000  C
  C440     1.0000 0.00030  0.17990  0.69525  Biso   1.000  C
  C441     1.0000 0.03610  0.16050  0.68163  Biso   1.000  C
  H244     1.0000 0.03310  0.14620  0.66290  Biso   1.000  H
  C442     1.0000 0.07730  0.16230  0.69616  Biso   1.000  C
  C443     1.0000 0.08220  0.17990  0.72301  Biso   1.000  C
  H245     1.0000 0.10990  0.17930  0.73250  Biso   1.000  H
  C444     1.0000 0.04670  0.19920  0.73730  Biso   1.000  C
  C445     1.0000 0.00520  0.19940  0.72320  Biso   1.000  C
  H246     1.0000 0.98090  0.21270  0.73270  Biso   1.000  H
  C446     1.0000 0.25440  0.41490  0.87882  Biso   1.000  C
  C447     1.0000 0.19120  0.50620  0.95950  Biso   1.000  C
  C448     1.0000 0.21610  0.42710  0.89751  Biso   1.000  C
  C449     1.0000 0.22090  0.45760  0.92080  Biso   1.000  C
  H247     1.0000 0.24910  0.46870  0.92560  Biso   1.000  H
  C450     1.0000 0.18540  0.47110  0.93625  Biso   1.000  C
  C451     1.0000 0.14470  0.45430  0.93020  Biso   1.000  C
  H248     1.0000 0.11990  0.46390  0.94120  Biso   1.000  H
  C452     1.0000 0.14010  0.42330  0.90790  Biso   1.000  C
  C453     1.0000 0.17710  0.40920  0.89140  Biso   1.000  C
  H249     1.0000 0.17430  0.38760  0.87630  Biso   1.000  H
  C454     1.0000 0.88430  0.30080  0.88560  Biso   1.000  C
  C455     1.0000 0.02400  0.22900  0.78720  Biso   1.000  C
  C456     1.0000 0.08760  0.36960  0.88630  Biso   1.000  C
  C457     1.0000 0.95710  0.28710  0.86276  Biso   1.000  C
  C458     1.0000 0.97570  0.26390  0.83868  Biso   1.000  C
  H250     1.0000 0.95930  0.24340  0.82740  Biso   1.000  H
  C459     1.0000 0.02030  0.27290  0.83228  Biso   1.000  C
  C460     1.0000 0.04500  0.30230  0.84815  Biso   1.000  C
  H251     1.0000 0.07480  0.30760  0.84330  Biso   1.000  H
  C461     1.0000 0.02430  0.32450  0.87200  Biso   1.000  C
  C462     1.0000 0.97950  0.31810  0.88060  Biso   1.000  C
  H252     1.0000 0.96620  0.33330  0.89670  Biso   1.000  H
  Zn29     1.0000 0.15170  0.09537  0.37184  Biso   1.000  Zn
  Zn30     1.0000 0.21075  0.13349  0.32602  Biso   1.000  Zn
  O211     1.0000 0.68407  0.11116  0.46826  Biso   1.000  O
  O212     1.0000 0.75469  0.10038  0.46838  Biso   1.000  O
  O213     1.0000 0.84515  0.16365  0.38959  Biso   1.000  O
  O214     1.0000 0.81356  0.20137  0.35269  Biso   1.000  O
  O215     1.0000 0.57216  0.29543  0.19015  Biso   1.000  O
  O216     1.0000 0.54624  0.34449  0.15842  Biso   1.000  O
  O217     1.0000 0.39101  0.37438  0.15538  Biso   1.000  O
  O218     1.0000 0.34815  0.35251  0.19269  Biso   1.000  O
  O219     1.0000 0.25325  0.10971  0.35695  Biso   1.000  O
  O220     1.0000 0.20849  0.07430  0.38804  Biso   1.000  O
  O221     1.0000 0.27151  0.98749  0.46897  Biso   1.000  O
  O222     1.0000 0.34275  0.97621  0.46928  Biso   1.000  O
  O223     1.0000 0.60410  0.16800  0.40020  Biso   1.000  O
  O224     1.0000 0.51490  0.27440  0.28249  Biso   1.000  O
  O225     1.0000 0.38760  0.15040  0.37060  Biso   1.000  O
  N85      1.0000 0.65700  0.21390  0.38207  Biso   1.000  N
  H253     1.0000 0.66160  0.23700  0.37090  Biso   1.000  H
  N86      1.0000 0.58800  0.22390  0.36770  Biso   1.000  N
  H254     1.0000 0.59860  0.24740  0.35890  Biso   1.000  H
  N87      1.0000 0.44630  0.28170  0.26591  Biso   1.000  N
  H255     1.0000 0.41890  0.27610  0.27040  Biso   1.000  H
  N88      1.0000 0.45790  0.24810  0.30903  Biso   1.000  N
  H256     1.0000 0.42920  0.24590  0.30880  Biso   1.000  H
  N89      1.0000 0.45590  0.14430  0.39090  Biso   1.000  N
  H257     1.0000 0.47100  0.13320  0.40580  Biso   1.000  H
  N90      1.0000 0.40130  0.09990  0.40770  Biso   1.000  N
  H258     1.0000 0.42040  0.09420  0.42190  Biso   1.000  H
  C463     1.0000 0.72119  0.11670  0.45842  Biso   1.000  C
  C464     1.0000 0.81250  0.17970  0.37633  Biso   1.000  C
  C465     1.0000 0.72640  0.14650  0.43178  Biso   1.000  C
  C466     1.0000 0.76680  0.15140  0.41839  Biso   1.000  C
  H259     1.0000 0.79170  0.13730  0.42660  Biso   1.000  H
  C467     1.0000 0.77080  0.17730  0.39245  Biso   1.000  C
  C468     1.0000 0.73520  0.19630  0.38052  Biso   1.000  C
  H260     1.0000 0.73740  0.21170  0.36220  Biso   1.000  H
  C469     1.0000 0.69280  0.19310  0.39577  Biso   1.000  C
  C470     1.0000 0.69020  0.16780  0.42128  Biso   1.000  C
  H261     1.0000 0.66320  0.16520  0.43160  Biso   1.000  H
  C471     1.0000 0.54280  0.31950  0.17993  Biso   1.000  C
  C472     1.0000 0.38430  0.35590  0.17908  Biso   1.000  C
  C473     1.0000 0.49970  0.32010  0.19525  Biso   1.000  C
  C474     1.0000 0.46390  0.33950  0.18163  Biso   1.000  C
  H262     1.0000 0.46690  0.35380  0.16290  Biso   1.000  H
  C475     1.0000 0.42270  0.33770  0.19616  Biso   1.000  C
  C476     1.0000 0.41780  0.32010  0.22301  Biso   1.000  C
  H263     1.0000 0.39010  0.32070  0.23250  Biso   1.000  H
  C477     1.0000 0.45330  0.30080  0.23730  Biso   1.000  C
  C478     1.0000 0.49480  0.30060  0.22320  Biso   1.000  C
  H264     1.0000 0.51910  0.28730  0.23270  Biso   1.000  H
  C479     1.0000 0.24560  0.08510  0.37882  Biso   1.000  C
  C480     1.0000 0.30880  0.99380  0.45950  Biso   1.000  C
  C481     1.0000 0.28390  0.07290  0.39751  Biso   1.000  C
  C482     1.0000 0.27910  0.04240  0.42080  Biso   1.000  C
  H265     1.0000 0.25090  0.03130  0.42560  Biso   1.000  H
  C483     1.0000 0.31460  0.02890  0.43625  Biso   1.000  C
  C484     1.0000 0.35530  0.04570  0.43020  Biso   1.000  C
  H266     1.0000 0.38010  0.03610  0.44120  Biso   1.000  H
  C485     1.0000 0.35990  0.07670  0.40790  Biso   1.000  C
  C486     1.0000 0.32290  0.09080  0.39140  Biso   1.000  C
  H267     1.0000 0.32570  0.11240  0.37630  Biso   1.000  H
  C487     1.0000 0.61570  0.19920  0.38560  Biso   1.000  C
  C488     1.0000 0.47600  0.27100  0.28720  Biso   1.000  C
  C489     1.0000 0.41240  0.13040  0.38630  Biso   1.000  C
  C490     1.0000 0.54290  0.21290  0.36276  Biso   1.000  C
  C491     1.0000 0.52430  0.23610  0.33868  Biso   1.000  C
  H268     1.0000 0.54070  0.25660  0.32740  Biso   1.000  H
  C492     1.0000 0.47970  0.22710  0.33228  Biso   1.000  C
  C493     1.0000 0.45500  0.19770  0.34815  Biso   1.000  C
  H269     1.0000 0.42520  0.19240  0.34330  Biso   1.000  H
  C494     1.0000 0.47570  0.17550  0.37200  Biso   1.000  C
  C495     1.0000 0.52050  0.18190  0.38060  Biso   1.000  C
  H270     1.0000 0.53380  0.16670  0.39670  Biso   1.000  H
  Zn31     1.0000 0.65170  0.59537  0.87184  Biso   1.000  Zn
  Zn32     1.0000 0.71075  0.63349  0.82602  Biso   1.000  Zn
  O226     1.0000 0.18407  0.61116  0.96826  Biso   1.000  O
  O227     1.0000 0.25469  0.60038  0.96838  Biso   1.000  O
  O228     1.0000 0.34515  0.66365  0.88959  Biso   1.000  O
  O229     1.0000 0.31356  0.70137  0.85269  Biso   1.000  O
  O230     1.0000 0.07216  0.79543  0.69015  Biso   1.000  O
  O231     1.0000 0.04624  0.84449  0.65842  Biso   1.000  O
  O232     1.0000 0.89101  0.87438  0.65538  Biso   1.000  O
  O233     1.0000 0.84815  0.85251  0.69269  Biso   1.000  O
  O234     1.0000 0.75325  0.60971  0.85695  Biso   1.000  O
  O235     1.0000 0.70849  0.57430  0.88804  Biso   1.000  O
  O236     1.0000 0.77151  0.48749  0.96897  Biso   1.000  O
  O237     1.0000 0.84275  0.47621  0.96928  Biso   1.000  O
  O238     1.0000 0.10410  0.66800  0.90020  Biso   1.000  O
  O239     1.0000 0.01490  0.77440  0.78249  Biso   1.000  O
  O240     1.0000 0.88760  0.65040  0.87060  Biso   1.000  O
  N91      1.0000 0.15700  0.71390  0.88207  Biso   1.000  N
  H271     1.0000 0.16160  0.73700  0.87090  Biso   1.000  H
  N92      1.0000 0.08800  0.72390  0.86770  Biso   1.000  N
  H272     1.0000 0.09860  0.74740  0.85890  Biso   1.000  H
  N93      1.0000 0.94630  0.78170  0.76591  Biso   1.000  N
  H273     1.0000 0.91890  0.77610  0.77040  Biso   1.000  H
  N94      1.0000 0.95790  0.74810  0.80903  Biso   1.000  N
  H274     1.0000 0.92920  0.74590  0.80880  Biso   1.000  H
  N95      1.0000 0.95590  0.64430  0.89090  Biso   1.000  N
  H275     1.0000 0.97100  0.63320  0.90580  Biso   1.000  H
  N96      1.0000 0.90130  0.59990  0.90770  Biso   1.000  N
  H276     1.0000 0.92040  0.59420  0.92190  Biso   1.000  H
  C496     1.0000 0.22119  0.61670  0.95842  Biso   1.000  C
  C497     1.0000 0.31250  0.67970  0.87633  Biso   1.000  C
  C498     1.0000 0.22640  0.64650  0.93178  Biso   1.000  C
  C499     1.0000 0.26680  0.65140  0.91839  Biso   1.000  C
  H277     1.0000 0.29170  0.63730  0.92660  Biso   1.000  H
  C500     1.0000 0.27080  0.67730  0.89245  Biso   1.000  C
  C501     1.0000 0.23520  0.69630  0.88052  Biso   1.000  C
  H278     1.0000 0.23740  0.71170  0.86220  Biso   1.000  H
  C502     1.0000 0.19280  0.69310  0.89577  Biso   1.000  C
  C503     1.0000 0.19020  0.66780  0.92128  Biso   1.000  C
  H279     1.0000 0.16320  0.66520  0.93160  Biso   1.000  H
  C504     1.0000 0.04280  0.81950  0.67993  Biso   1.000  C
  C505     1.0000 0.88430  0.85590  0.67908  Biso   1.000  C
  C506     1.0000 0.99970  0.82010  0.69525  Biso   1.000  C
  C507     1.0000 0.96390  0.83950  0.68163  Biso   1.000  C
  H280     1.0000 0.96690  0.85380  0.66290  Biso   1.000  H
  C508     1.0000 0.92270  0.83770  0.69616  Biso   1.000  C
  C509     1.0000 0.91780  0.82010  0.72301  Biso   1.000  C
  H281     1.0000 0.89010  0.82070  0.73250  Biso   1.000  H
  C510     1.0000 0.95330  0.80080  0.73730  Biso   1.000  C
  C511     1.0000 0.99480  0.80060  0.72320  Biso   1.000  C
  H282     1.0000 0.01910  0.78730  0.73270  Biso   1.000  H
  C512     1.0000 0.74560  0.58510  0.87882  Biso   1.000  C
  C513     1.0000 0.80880  0.49380  0.95950  Biso   1.000  C
  C514     1.0000 0.78390  0.57290  0.89751  Biso   1.000  C
  C515     1.0000 0.77910  0.54240  0.92080  Biso   1.000  C
  H283     1.0000 0.75090  0.53130  0.92560  Biso   1.000  H
  C516     1.0000 0.81460  0.52890  0.93625  Biso   1.000  C
  C517     1.0000 0.85530  0.54570  0.93020  Biso   1.000  C
  H284     1.0000 0.88010  0.53610  0.94120  Biso   1.000  H
  C518     1.0000 0.85990  0.57670  0.90790  Biso   1.000  C
  C519     1.0000 0.82290  0.59080  0.89140  Biso   1.000  C
  H285     1.0000 0.82570  0.61240  0.87630  Biso   1.000  H
  C520     1.0000 0.11570  0.69920  0.88560  Biso   1.000  C
  C521     1.0000 0.97600  0.77100  0.78720  Biso   1.000  C
  C522     1.0000 0.91240  0.63040  0.88630  Biso   1.000  C
  C523     1.0000 0.04290  0.71290  0.86276  Biso   1.000  C
  C524     1.0000 0.02430  0.73610  0.83868  Biso   1.000  C
  H286     1.0000 0.04070  0.75660  0.82740  Biso   1.000  H
  C525     1.0000 0.97970  0.72710  0.83228  Biso   1.000  C
  C526     1.0000 0.95500  0.69770  0.84815  Biso   1.000  C
  H287     1.0000 0.92520  0.69240  0.84330  Biso   1.000  H
  C527     1.0000 0.97570  0.67550  0.87200  Biso   1.000  C
  C528     1.0000 0.02050  0.68190  0.88060  Biso   1.000  C
  H288     1.0000 0.03380  0.66670  0.89670  Biso   1.000  H
  Zn33     1.0000 0.07162  0.34182  0.50000  Biso   1.000  Zn
  Zn34     1.0000 0.05326  0.24633  0.50000  Biso   1.000  Zn
  Zn35     1.0000 0.57162  0.84182  0.00000  Biso   1.000  Zn
  Zn36     1.0000 0.55326  0.74633  0.00000  Biso   1.000  Zn
  Zn37     1.0000 0.92838  0.65818  0.50000  Biso   1.000  Zn
  Zn38     1.0000 0.94674  0.75367  0.50000  Biso   1.000  Zn
  Zn39     1.0000 0.42838  0.15818  0.00000  Biso   1.000  Zn
  Zn40     1.0000 0.44674  0.25367  0.00000  Biso   1.000  Zn
  Zn41     1.0000 0.65818  0.07162  0.50000  Biso   1.000  Zn
  Zn42     1.0000 0.75367  0.05326  0.50000  Biso   1.000  Zn
  Zn43     1.0000 0.15818  0.57162  0.00000  Biso   1.000  Zn
  Zn44     1.0000 0.25367  0.55326  0.00000  Biso   1.000  Zn
  Zn45     1.0000 0.34182  0.92838  0.50000  Biso   1.000  Zn
  Zn46     1.0000 0.24633  0.94674  0.50000  Biso   1.000  Zn
  Zn47     1.0000 0.84182  0.42838  0.00000  Biso   1.000  Zn
  Zn48     1.0000 0.74633  0.44674  0.00000  Biso   1.000  Zn
