data_image0
_cell_length_a       30.4638
_cell_length_b       30.4638
_cell_length_c       44.2772
_cell_angle_alpha    90
_cell_angle_beta     90
_cell_angle_gamma    90

_symmetry_space_group_name_H-M    "P 1"
_symmetry_int_tables_number       1

loop_
  _symmetry_equiv_pos_as_xyz
  'x, y, z'

loop_
  _atom_site_label
  _atom_site_occupancy
  _atom_site_fract_x
  _atom_site_fract_y
  _atom_site_fract_z
  _atom_site_thermal_displace_type
  _atom_site_B_iso_or_equiv
  _atom_site_type_symbol
  Cu1      1.0000 0.09764  0.84406  0.62788  Biso   1.000  Cu
  Cu2      1.0000 0.13100  0.79193  0.66983  Biso   1.000  Cu
  O1       1.0000 0.11503  0.31973  0.53131  Biso   1.000  O
  O2       1.0000 0.10061  0.24771  0.53080  Biso   1.000  O
  O3       1.0000 0.16474  0.15495  0.60870  Biso   1.000  O
  O4       1.0000 0.20437  0.18462  0.64602  Biso   1.000  O
  O5       1.0000 0.29642  0.42772  0.81228  Biso   1.000  O
  O6       1.0000 0.34482  0.45376  0.84601  Biso   1.000  O
  O7       1.0000 0.37612  0.60916  0.84783  Biso   1.000  O
  O8       1.0000 0.35214  0.65313  0.81072  Biso   1.000  O
  O9       1.0000 0.10966  0.74501  0.64319  Biso   1.000  O
  O10      1.0000 0.07641  0.78957  0.61013  Biso   1.000  O
  O11      1.0000 0.98614  0.72839  0.53100  Biso   1.000  O
  O12      1.0000 0.97174  0.65623  0.53063  Biso   1.000  O
  O13      1.0000 0.16550  0.39277  0.60570  Biso   1.000  O
  O14      1.0000 0.27393  0.48517  0.72033  Biso   1.000  O
  O15      1.0000 0.13720  0.60880  0.63557  Biso   1.000  O
  N1       1.0000 0.21853  0.34336  0.61776  Biso   1.000  N
  H1       1.0000 0.24390  0.33930  0.62690  Biso   1.000  H
  N2       1.0000 0.22430  0.41353  0.63279  Biso   1.000  N
  H2       1.0000 0.25080  0.40570  0.63850  Biso   1.000  H
  N3       1.0000 0.27600  0.55492  0.73918  Biso   1.000  N
  H3       1.0000 0.26800  0.58210  0.73540  Biso   1.000  H
  N4       1.0000 0.24280  0.54180  0.69478  Biso   1.000  N
  H4       1.0000 0.24080  0.57060  0.69430  Biso   1.000  H
  N5       1.0000 0.13520  0.54160  0.61467  Biso   1.000  N
  H5       1.0000 0.12150  0.52450  0.60170  Biso   1.000  H
  N6       1.0000 0.08890  0.59370  0.59741  Biso   1.000  N
  H6       1.0000 0.07660  0.57230  0.58710  Biso   1.000  H
  C1       1.0000 0.11931  0.28156  0.54120  Biso   1.000  C
  C2       1.0000 0.18336  0.18611  0.62151  Biso   1.000  C
  C3       1.0000 0.14998  0.27502  0.56683  Biso   1.000  C
  C4       1.0000 0.15470  0.23365  0.58018  Biso   1.000  C
  H7       1.0000 0.14030  0.20870  0.57190  Biso   1.000  H
  C5       1.0000 0.18089  0.22965  0.60591  Biso   1.000  C
  C6       1.0000 0.20220  0.26554  0.61750  Biso   1.000  C
  H8       1.0000 0.21990  0.26240  0.63500  Biso   1.000  H
  C7       1.0000 0.19820  0.30704  0.60379  Biso   1.000  C
  C8       1.0000 0.17271  0.31111  0.57808  Biso   1.000  C
  H9       1.0000 0.17070  0.33860  0.56810  Biso   1.000  H
  C9       1.0000 0.32026  0.45717  0.82357  Biso   1.000  C
  C10      1.0000 0.35705  0.61673  0.82364  Biso   1.000  C
  C11      1.0000 0.32077  0.50100  0.80797  Biso   1.000  C
  C12      1.0000 0.34041  0.53617  0.82116  Biso   1.000  C
  H10      1.0000 0.35580  0.53260  0.83960  Biso   1.000  H
  C13      1.0000 0.33810  0.57725  0.80782  Biso   1.000  C
  C14      1.0000 0.31720  0.58228  0.78054  Biso   1.000  C
  H11      1.0000 0.31620  0.61030  0.77120  Biso   1.000  H
  C15      1.0000 0.29770  0.54713  0.76686  Biso   1.000  C
  C16      1.0000 0.29870  0.50583  0.78079  Biso   1.000  C
  H12      1.0000 0.28440  0.48140  0.77170  Biso   1.000  H
  C17      1.0000 0.08622  0.75257  0.62012  Biso   1.000  C
  C18      1.0000 0.99092  0.68975  0.53994  Biso   1.000  C
  C19      1.0000 0.07064  0.71397  0.60293  Biso   1.000  C
  C20      1.0000 0.04095  0.71953  0.57937  Biso   1.000  C
  H13      1.0000 0.03200  0.74830  0.57380  Biso   1.000  H
  C21      1.0000 0.02458  0.68395  0.56420  Biso   1.000  C
  C22      1.0000 0.03960  0.64125  0.57126  Biso   1.000  C
  H14      1.0000 0.02810  0.61620  0.56120  Biso   1.000  H
  C23      1.0000 0.07180  0.63690  0.59333  Biso   1.000  C
  C24      1.0000 0.08560  0.67288  0.61012  Biso   1.000  C
  H15      1.0000 0.10530  0.66900  0.62650  Biso   1.000  H
  C25      1.0000 0.20110  0.38360  0.61780  Biso   1.000  C
  C26      1.0000 0.26650  0.52440  0.71796  Biso   1.000  C
  C27      1.0000 0.12240  0.58340  0.61590  Biso   1.000  C
  C28      1.0000 0.21100  0.45640  0.64048  Biso   1.000  C
  C29      1.0000 0.23190  0.47630  0.66412  Biso   1.000  C
  H16      1.0000 0.25350  0.46100  0.67540  Biso   1.000  H
  C30      1.0000 0.22120  0.51870  0.67125  Biso   1.000  C
  C31      1.0000 0.19250  0.54120  0.65472  Biso   1.000  C
  H17      1.0000 0.18840  0.57160  0.65860  Biso   1.000  H
  C32      1.0000 0.16930  0.52180  0.63260  Biso   1.000  C
  C33      1.0000 0.17990  0.47900  0.62305  Biso   1.000  C
  H18      1.0000 0.16680  0.46610  0.60570  Biso   1.000  H
  Cu3      1.0000 0.59764  0.34406  0.12788  Biso   1.000  Cu
  Cu4      1.0000 0.63100  0.29193  0.16983  Biso   1.000  Cu
  O16      1.0000 0.61503  0.81973  0.03131  Biso   1.000  O
  O17      1.0000 0.60061  0.74771  0.03080  Biso   1.000  O
  O18      1.0000 0.66474  0.65495  0.10870  Biso   1.000  O
  O19      1.0000 0.70437  0.68462  0.14602  Biso   1.000  O
  O20      1.0000 0.79642  0.92772  0.31228  Biso   1.000  O
  O21      1.0000 0.84482  0.95376  0.34601  Biso   1.000  O
  O22      1.0000 0.87612  0.10916  0.34783  Biso   1.000  O
  O23      1.0000 0.85214  0.15313  0.31072  Biso   1.000  O
  O24      1.0000 0.60966  0.24501  0.14319  Biso   1.000  O
  O25      1.0000 0.57641  0.28957  0.11013  Biso   1.000  O
  O26      1.0000 0.48614  0.22839  0.03100  Biso   1.000  O
  O27      1.0000 0.47174  0.15623  0.03063  Biso   1.000  O
  O28      1.0000 0.66550  0.89277  0.10570  Biso   1.000  O
  O29      1.0000 0.77393  0.98517  0.22033  Biso   1.000  O
  O30      1.0000 0.63720  0.10880  0.13557  Biso   1.000  O
  N7       1.0000 0.71853  0.84336  0.11776  Biso   1.000  N
  H19      1.0000 0.74390  0.83930  0.12690  Biso   1.000  H
  N8       1.0000 0.72430  0.91353  0.13279  Biso   1.000  N
  H20      1.0000 0.75080  0.90570  0.13850  Biso   1.000  H
  N9       1.0000 0.77600  0.05492  0.23918  Biso   1.000  N
  H21      1.0000 0.76800  0.08210  0.23540  Biso   1.000  H
  N10      1.0000 0.74280  0.04180  0.19478  Biso   1.000  N
  H22      1.0000 0.74080  0.07060  0.19430  Biso   1.000  H
  N11      1.0000 0.63520  0.04160  0.11467  Biso   1.000  N
  H23      1.0000 0.62150  0.02450  0.10170  Biso   1.000  H
  N12      1.0000 0.58890  0.09370  0.09741  Biso   1.000  N
  H24      1.0000 0.57660  0.07230  0.08710  Biso   1.000  H
  C34      1.0000 0.61931  0.78156  0.04120  Biso   1.000  C
  C35      1.0000 0.68336  0.68611  0.12151  Biso   1.000  C
  C36      1.0000 0.64998  0.77502  0.06683  Biso   1.000  C
  C37      1.0000 0.65470  0.73365  0.08018  Biso   1.000  C
  H25      1.0000 0.64030  0.70870  0.07190  Biso   1.000  H
  C38      1.0000 0.68089  0.72965  0.10591  Biso   1.000  C
  C39      1.0000 0.70220  0.76554  0.11750  Biso   1.000  C
  H26      1.0000 0.71990  0.76240  0.13500  Biso   1.000  H
  C40      1.0000 0.69820  0.80704  0.10379  Biso   1.000  C
  C41      1.0000 0.67271  0.81111  0.07808  Biso   1.000  C
  H27      1.0000 0.67070  0.83860  0.06810  Biso   1.000  H
  C42      1.0000 0.82026  0.95717  0.32357  Biso   1.000  C
  C43      1.0000 0.85705  0.11673  0.32364  Biso   1.000  C
  C44      1.0000 0.82077  0.00100  0.30797  Biso   1.000  C
  C45      1.0000 0.84041  0.03617  0.32116  Biso   1.000  C
  H28      1.0000 0.85580  0.03260  0.33960  Biso   1.000  H
  C46      1.0000 0.83810  0.07725  0.30782  Biso   1.000  C
  C47      1.0000 0.81720  0.08228  0.28054  Biso   1.000  C
  H29      1.0000 0.81620  0.11030  0.27120  Biso   1.000  H
  C48      1.0000 0.79770  0.04713  0.26686  Biso   1.000  C
  C49      1.0000 0.79870  0.00583  0.28079  Biso   1.000  C
  H30      1.0000 0.78440  0.98140  0.27170  Biso   1.000  H
  C50      1.0000 0.58622  0.25257  0.12012  Biso   1.000  C
  C51      1.0000 0.49092  0.18975  0.03994  Biso   1.000  C
  C52      1.0000 0.57064  0.21397  0.10293  Biso   1.000  C
  C53      1.0000 0.54095  0.21953  0.07937  Biso   1.000  C
  H31      1.0000 0.53200  0.24830  0.07380  Biso   1.000  H
  C54      1.0000 0.52458  0.18395  0.06420  Biso   1.000  C
  C55      1.0000 0.53960  0.14125  0.07126  Biso   1.000  C
  H32      1.0000 0.52810  0.11620  0.06120  Biso   1.000  H
  C56      1.0000 0.57180  0.13690  0.09333  Biso   1.000  C
  C57      1.0000 0.58560  0.17288  0.11012  Biso   1.000  C
  H33      1.0000 0.60530  0.16900  0.12650  Biso   1.000  H
  C58      1.0000 0.70110  0.88360  0.11780  Biso   1.000  C
  C59      1.0000 0.76650  0.02440  0.21796  Biso   1.000  C
  C60      1.0000 0.62240  0.08340  0.11590  Biso   1.000  C
  C61      1.0000 0.71100  0.95640  0.14048  Biso   1.000  C
  C62      1.0000 0.73190  0.97630  0.16412  Biso   1.000  C
  H34      1.0000 0.75350  0.96100  0.17540  Biso   1.000  H
  C63      1.0000 0.72120  0.01870  0.17125  Biso   1.000  C
  C64      1.0000 0.69250  0.04120  0.15472  Biso   1.000  C
  H35      1.0000 0.68840  0.07160  0.15860  Biso   1.000  H
  C65      1.0000 0.66930  0.02180  0.13260  Biso   1.000  C
  C66      1.0000 0.67990  0.97900  0.12305  Biso   1.000  C
  H36      1.0000 0.66680  0.96610  0.10570  Biso   1.000  H
  Cu5      1.0000 0.90236  0.15594  0.62788  Biso   1.000  Cu
  Cu6      1.0000 0.86900  0.20807  0.66983  Biso   1.000  Cu
  O31      1.0000 0.88497  0.68027  0.53131  Biso   1.000  O
  O32      1.0000 0.89939  0.75229  0.53080  Biso   1.000  O
  O33      1.0000 0.83526  0.84505  0.60870  Biso   1.000  O
  O34      1.0000 0.79563  0.81538  0.64602  Biso   1.000  O
  O35      1.0000 0.70358  0.57228  0.81228  Biso   1.000  O
  O36      1.0000 0.65518  0.54624  0.84601  Biso   1.000  O
  O37      1.0000 0.62388  0.39084  0.84783  Biso   1.000  O
  O38      1.0000 0.64786  0.34687  0.81072  Biso   1.000  O
  O39      1.0000 0.89034  0.25499  0.64319  Biso   1.000  O
  O40      1.0000 0.92359  0.21043  0.61013  Biso   1.000  O
  O41      1.0000 0.01386  0.27161  0.53100  Biso   1.000  O
  O42      1.0000 0.02826  0.34377  0.53063  Biso   1.000  O
  O43      1.0000 0.83450  0.60723  0.60570  Biso   1.000  O
  O44      1.0000 0.72607  0.51483  0.72033  Biso   1.000  O
  O45      1.0000 0.86280  0.39120  0.63557  Biso   1.000  O
  N13      1.0000 0.78147  0.65664  0.61776  Biso   1.000  N
  H37      1.0000 0.75610  0.66070  0.62690  Biso   1.000  H
  N14      1.0000 0.77570  0.58647  0.63279  Biso   1.000  N
  H38      1.0000 0.74920  0.59430  0.63850  Biso   1.000  H
  N15      1.0000 0.72400  0.44508  0.73918  Biso   1.000  N
  H39      1.0000 0.73200  0.41790  0.73540  Biso   1.000  H
  N16      1.0000 0.75720  0.45820  0.69478  Biso   1.000  N
  H40      1.0000 0.75920  0.42940  0.69430  Biso   1.000  H
  N17      1.0000 0.86480  0.45840  0.61467  Biso   1.000  N
  H41      1.0000 0.87850  0.47550  0.60170  Biso   1.000  H
  N18      1.0000 0.91110  0.40630  0.59741  Biso   1.000  N
  H42      1.0000 0.92340  0.42770  0.58710  Biso   1.000  H
  C67      1.0000 0.88069  0.71844  0.54120  Biso   1.000  C
  C68      1.0000 0.81664  0.81389  0.62151  Biso   1.000  C
  C69      1.0000 0.85002  0.72498  0.56683  Biso   1.000  C
  C70      1.0000 0.84530  0.76635  0.58018  Biso   1.000  C
  H43      1.0000 0.85970  0.79130  0.57190  Biso   1.000  H
  C71      1.0000 0.81911  0.77035  0.60591  Biso   1.000  C
  C72      1.0000 0.79780  0.73446  0.61750  Biso   1.000  C
  H44      1.0000 0.78010  0.73760  0.63500  Biso   1.000  H
  C73      1.0000 0.80180  0.69296  0.60379  Biso   1.000  C
  C74      1.0000 0.82729  0.68889  0.57808  Biso   1.000  C
  H45      1.0000 0.82930  0.66140  0.56810  Biso   1.000  H
  C75      1.0000 0.67974  0.54283  0.82357  Biso   1.000  C
  C76      1.0000 0.64295  0.38327  0.82364  Biso   1.000  C
  C77      1.0000 0.67923  0.49900  0.80797  Biso   1.000  C
  C78      1.0000 0.65959  0.46383  0.82116  Biso   1.000  C
  H46      1.0000 0.64420  0.46740  0.83960  Biso   1.000  H
  C79      1.0000 0.66190  0.42275  0.80782  Biso   1.000  C
  C80      1.0000 0.68280  0.41772  0.78054  Biso   1.000  C
  H47      1.0000 0.68380  0.38970  0.77120  Biso   1.000  H
  C81      1.0000 0.70230  0.45287  0.76686  Biso   1.000  C
  C82      1.0000 0.70130  0.49417  0.78079  Biso   1.000  C
  H48      1.0000 0.71560  0.51860  0.77170  Biso   1.000  H
  C83      1.0000 0.91378  0.24743  0.62012  Biso   1.000  C
  C84      1.0000 0.00908  0.31025  0.53994  Biso   1.000  C
  C85      1.0000 0.92936  0.28603  0.60293  Biso   1.000  C
  C86      1.0000 0.95905  0.28047  0.57937  Biso   1.000  C
  H49      1.0000 0.96800  0.25170  0.57380  Biso   1.000  H
  C87      1.0000 0.97542  0.31605  0.56420  Biso   1.000  C
  C88      1.0000 0.96040  0.35875  0.57126  Biso   1.000  C
  H50      1.0000 0.97190  0.38380  0.56120  Biso   1.000  H
  C89      1.0000 0.92820  0.36310  0.59333  Biso   1.000  C
  C90      1.0000 0.91440  0.32712  0.61012  Biso   1.000  C
  H51      1.0000 0.89470  0.33100  0.62650  Biso   1.000  H
  C91      1.0000 0.79890  0.61640  0.61780  Biso   1.000  C
  C92      1.0000 0.73350  0.47560  0.71796  Biso   1.000  C
  C93      1.0000 0.87760  0.41660  0.61590  Biso   1.000  C
  C94      1.0000 0.78900  0.54360  0.64048  Biso   1.000  C
  C95      1.0000 0.76810  0.52370  0.66412  Biso   1.000  C
  H52      1.0000 0.74650  0.53900  0.67540  Biso   1.000  H
  C96      1.0000 0.77880  0.48130  0.67125  Biso   1.000  C
  C97      1.0000 0.80750  0.45880  0.65472  Biso   1.000  C
  H53      1.0000 0.81160  0.42840  0.65860  Biso   1.000  H
  C98      1.0000 0.83070  0.47820  0.63260  Biso   1.000  C
  C99      1.0000 0.82010  0.52100  0.62305  Biso   1.000  C
  H54      1.0000 0.83320  0.53390  0.60570  Biso   1.000  H
  Cu7      1.0000 0.40236  0.65594  0.12788  Biso   1.000  Cu
  Cu8      1.0000 0.36900  0.70807  0.16983  Biso   1.000  Cu
  O46      1.0000 0.38497  0.18027  0.03131  Biso   1.000  O
  O47      1.0000 0.39939  0.25229  0.03080  Biso   1.000  O
  O48      1.0000 0.33526  0.34505  0.10870  Biso   1.000  O
  O49      1.0000 0.29563  0.31538  0.14602  Biso   1.000  O
  O50      1.0000 0.20358  0.07228  0.31228  Biso   1.000  O
  O51      1.0000 0.15518  0.04624  0.34601  Biso   1.000  O
  O52      1.0000 0.12388  0.89084  0.34783  Biso   1.000  O
  O53      1.0000 0.14786  0.84687  0.31072  Biso   1.000  O
  O54      1.0000 0.39034  0.75499  0.14319  Biso   1.000  O
  O55      1.0000 0.42359  0.71043  0.11013  Biso   1.000  O
  O56      1.0000 0.51386  0.77161  0.03100  Biso   1.000  O
  O57      1.0000 0.52826  0.84377  0.03063  Biso   1.000  O
  O58      1.0000 0.33450  0.10723  0.10570  Biso   1.000  O
  O59      1.0000 0.22607  0.01483  0.22033  Biso   1.000  O
  O60      1.0000 0.36280  0.89120  0.13557  Biso   1.000  O
  N19      1.0000 0.28147  0.15664  0.11776  Biso   1.000  N
  H55      1.0000 0.25610  0.16070  0.12690  Biso   1.000  H
  N20      1.0000 0.27570  0.08647  0.13279  Biso   1.000  N
  H56      1.0000 0.24920  0.09430  0.13850  Biso   1.000  H
  N21      1.0000 0.22400  0.94508  0.23918  Biso   1.000  N
  H57      1.0000 0.23200  0.91790  0.23540  Biso   1.000  H
  N22      1.0000 0.25720  0.95820  0.19478  Biso   1.000  N
  H58      1.0000 0.25920  0.92940  0.19430  Biso   1.000  H
  N23      1.0000 0.36480  0.95840  0.11467  Biso   1.000  N
  H59      1.0000 0.37850  0.97550  0.10170  Biso   1.000  H
  N24      1.0000 0.41110  0.90630  0.09741  Biso   1.000  N
  H60      1.0000 0.42340  0.92770  0.08710  Biso   1.000  H
  C100     1.0000 0.38069  0.21844  0.04120  Biso   1.000  C
  C101     1.0000 0.31664  0.31389  0.12151  Biso   1.000  C
  C102     1.0000 0.35002  0.22498  0.06683  Biso   1.000  C
  C103     1.0000 0.34530  0.26635  0.08018  Biso   1.000  C
  H61      1.0000 0.35970  0.29130  0.07190  Biso   1.000  H
  C104     1.0000 0.31911  0.27035  0.10591  Biso   1.000  C
  C105     1.0000 0.29780  0.23446  0.11750  Biso   1.000  C
  H62      1.0000 0.28010  0.23760  0.13500  Biso   1.000  H
  C106     1.0000 0.30180  0.19296  0.10379  Biso   1.000  C
  C107     1.0000 0.32729  0.18889  0.07808  Biso   1.000  C
  H63      1.0000 0.32930  0.16140  0.06810  Biso   1.000  H
  C108     1.0000 0.17974  0.04283  0.32357  Biso   1.000  C
  C109     1.0000 0.14295  0.88327  0.32364  Biso   1.000  C
  C110     1.0000 0.17923  0.99900  0.30797  Biso   1.000  C
  C111     1.0000 0.15959  0.96383  0.32116  Biso   1.000  C
  H64      1.0000 0.14420  0.96740  0.33960  Biso   1.000  H
  C112     1.0000 0.16190  0.92275  0.30782  Biso   1.000  C
  C113     1.0000 0.18280  0.91772  0.28054  Biso   1.000  C
  H65      1.0000 0.18380  0.88970  0.27120  Biso   1.000  H
  C114     1.0000 0.20230  0.95287  0.26686  Biso   1.000  C
  C115     1.0000 0.20130  0.99417  0.28079  Biso   1.000  C
  H66      1.0000 0.21560  0.01860  0.27170  Biso   1.000  H
  C116     1.0000 0.41378  0.74743  0.12012  Biso   1.000  C
  C117     1.0000 0.50908  0.81025  0.03994  Biso   1.000  C
  C118     1.0000 0.42936  0.78603  0.10293  Biso   1.000  C
  C119     1.0000 0.45905  0.78047  0.07937  Biso   1.000  C
  H67      1.0000 0.46800  0.75170  0.07380  Biso   1.000  H
  C120     1.0000 0.47542  0.81605  0.06420  Biso   1.000  C
  C121     1.0000 0.46040  0.85875  0.07126  Biso   1.000  C
  H68      1.0000 0.47190  0.88380  0.06120  Biso   1.000  H
  C122     1.0000 0.42820  0.86310  0.09333  Biso   1.000  C
  C123     1.0000 0.41440  0.82712  0.11012  Biso   1.000  C
  H69      1.0000 0.39470  0.83100  0.12650  Biso   1.000  H
  C124     1.0000 0.29890  0.11640  0.11780  Biso   1.000  C
  C125     1.0000 0.23350  0.97560  0.21796  Biso   1.000  C
  C126     1.0000 0.37760  0.91660  0.11590  Biso   1.000  C
  C127     1.0000 0.28900  0.04360  0.14048  Biso   1.000  C
  C128     1.0000 0.26810  0.02370  0.16412  Biso   1.000  C
  H70      1.0000 0.24650  0.03900  0.17540  Biso   1.000  H
  C129     1.0000 0.27880  0.98130  0.17125  Biso   1.000  C
  C130     1.0000 0.30750  0.95880  0.15472  Biso   1.000  C
  H71      1.0000 0.31160  0.92840  0.15860  Biso   1.000  H
  C131     1.0000 0.33070  0.97820  0.13260  Biso   1.000  C
  C132     1.0000 0.32010  0.02100  0.12305  Biso   1.000  C
  H72      1.0000 0.33320  0.03390  0.10570  Biso   1.000  H
  Cu9      1.0000 0.15594  0.09764  0.62788  Biso   1.000  Cu
  Cu10     1.0000 0.20807  0.13100  0.66983  Biso   1.000  Cu
  O61      1.0000 0.68027  0.11503  0.53131  Biso   1.000  O
  O62      1.0000 0.75229  0.10061  0.53080  Biso   1.000  O
  O63      1.0000 0.84505  0.16474  0.60870  Biso   1.000  O
  O64      1.0000 0.81538  0.20437  0.64602  Biso   1.000  O
  O65      1.0000 0.57228  0.29642  0.81228  Biso   1.000  O
  O66      1.0000 0.54624  0.34482  0.84601  Biso   1.000  O
  O67      1.0000 0.39084  0.37612  0.84783  Biso   1.000  O
  O68      1.0000 0.34687  0.35214  0.81072  Biso   1.000  O
  O69      1.0000 0.25499  0.10966  0.64319  Biso   1.000  O
  O70      1.0000 0.21043  0.07641  0.61013  Biso   1.000  O
  O71      1.0000 0.27161  0.98614  0.53100  Biso   1.000  O
  O72      1.0000 0.34377  0.97174  0.53063  Biso   1.000  O
  O73      1.0000 0.60723  0.16550  0.60570  Biso   1.000  O
  O74      1.0000 0.51483  0.27393  0.72033  Biso   1.000  O
  O75      1.0000 0.39120  0.13720  0.63557  Biso   1.000  O
  N25      1.0000 0.65664  0.21853  0.61776  Biso   1.000  N
  H73      1.0000 0.66070  0.24390  0.62690  Biso   1.000  H
  N26      1.0000 0.58647  0.22430  0.63279  Biso   1.000  N
  H74      1.0000 0.59430  0.25080  0.63850  Biso   1.000  H
  N27      1.0000 0.44508  0.27600  0.73918  Biso   1.000  N
  H75      1.0000 0.41790  0.26800  0.73540  Biso   1.000  H
  N28      1.0000 0.45820  0.24280  0.69478  Biso   1.000  N
  H76      1.0000 0.42940  0.24080  0.69430  Biso   1.000  H
  N29      1.0000 0.45840  0.13520  0.61467  Biso   1.000  N
  H77      1.0000 0.47550  0.12150  0.60170  Biso   1.000  H
  N30      1.0000 0.40630  0.08890  0.59741  Biso   1.000  N
  H78      1.0000 0.42770  0.07660  0.58710  Biso   1.000  H
  C133     1.0000 0.71844  0.11931  0.54120  Biso   1.000  C
  C134     1.0000 0.81389  0.18336  0.62151  Biso   1.000  C
  C135     1.0000 0.72498  0.14998  0.56683  Biso   1.000  C
  C136     1.0000 0.76635  0.15470  0.58018  Biso   1.000  C
  H79      1.0000 0.79130  0.14030  0.57190  Biso   1.000  H
  C137     1.0000 0.77035  0.18089  0.60591  Biso   1.000  C
  C138     1.0000 0.73446  0.20220  0.61750  Biso   1.000  C
  H80      1.0000 0.73760  0.21990  0.63500  Biso   1.000  H
  C139     1.0000 0.69296  0.19820  0.60379  Biso   1.000  C
  C140     1.0000 0.68889  0.17271  0.57808  Biso   1.000  C
  H81      1.0000 0.66140  0.17070  0.56810  Biso   1.000  H
  C141     1.0000 0.54283  0.32026  0.82357  Biso   1.000  C
  C142     1.0000 0.38327  0.35705  0.82364  Biso   1.000  C
  C143     1.0000 0.49900  0.32077  0.80797  Biso   1.000  C
  C144     1.0000 0.46383  0.34041  0.82116  Biso   1.000  C
  H82      1.0000 0.46740  0.35580  0.83960  Biso   1.000  H
  C145     1.0000 0.42275  0.33810  0.80782  Biso   1.000  C
  C146     1.0000 0.41772  0.31720  0.78054  Biso   1.000  C
  H83      1.0000 0.38970  0.31620  0.77120  Biso   1.000  H
  C147     1.0000 0.45287  0.29770  0.76686  Biso   1.000  C
  C148     1.0000 0.49417  0.29870  0.78079  Biso   1.000  C
  H84      1.0000 0.51860  0.28440  0.77170  Biso   1.000  H
  C149     1.0000 0.24743  0.08622  0.62012  Biso   1.000  C
  C150     1.0000 0.31025  0.99092  0.53994  Biso   1.000  C
  C151     1.0000 0.28603  0.07064  0.60293  Biso   1.000  C
  C152     1.0000 0.28047  0.04095  0.57937  Biso   1.000  C
  H85      1.0000 0.25170  0.03200  0.57380  Biso   1.000  H
  C153     1.0000 0.31605  0.02458  0.56420  Biso   1.000  C
  C154     1.0000 0.35875  0.03960  0.57126  Biso   1.000  C
  H86      1.0000 0.38380  0.02810  0.56120  Biso   1.000  H
  C155     1.0000 0.36310  0.07180  0.59333  Biso   1.000  C
  C156     1.0000 0.32712  0.08560  0.61012  Biso   1.000  C
  H87      1.0000 0.33100  0.10530  0.62650  Biso   1.000  H
  C157     1.0000 0.61640  0.20110  0.61780  Biso   1.000  C
  C158     1.0000 0.47560  0.26650  0.71796  Biso   1.000  C
  C159     1.0000 0.41660  0.12240  0.61590  Biso   1.000  C
  C160     1.0000 0.54360  0.21100  0.64048  Biso   1.000  C
  C161     1.0000 0.52370  0.23190  0.66412  Biso   1.000  C
  H88      1.0000 0.53900  0.25350  0.67540  Biso   1.000  H
  C162     1.0000 0.48130  0.22120  0.67125  Biso   1.000  C
  C163     1.0000 0.45880  0.19250  0.65472  Biso   1.000  C
  H89      1.0000 0.42840  0.18840  0.65860  Biso   1.000  H
  C164     1.0000 0.47820  0.16930  0.63260  Biso   1.000  C
  C165     1.0000 0.52100  0.17990  0.62305  Biso   1.000  C
  H90      1.0000 0.53390  0.16680  0.60570  Biso   1.000  H
  Cu11     1.0000 0.65594  0.59764  0.12788  Biso   1.000  Cu
  Cu12     1.0000 0.70807  0.63100  0.16983  Biso   1.000  Cu
  O76      1.0000 0.18027  0.61503  0.03131  Biso   1.000  O
  O77      1.0000 0.25229  0.60061  0.03080  Biso   1.000  O
  O78      1.0000 0.34505  0.66474  0.10870  Biso   1.000  O
  O79      1.0000 0.31538  0.70437  0.14602  Biso   1.000  O
  O80      1.0000 0.07228  0.79642  0.31228  Biso   1.000  O
  O81      1.0000 0.04624  0.84482  0.34601  Biso   1.000  O
  O82      1.0000 0.89084  0.87612  0.34783  Biso   1.000  O
  O83      1.0000 0.84687  0.85214  0.31072  Biso   1.000  O
  O84      1.0000 0.75499  0.60966  0.14319  Biso   1.000  O
  O85      1.0000 0.71043  0.57641  0.11013  Biso   1.000  O
  O86      1.0000 0.77161  0.48614  0.03100  Biso   1.000  O
  O87      1.0000 0.84377  0.47174  0.03063  Biso   1.000  O
  O88      1.0000 0.10723  0.66550  0.10570  Biso   1.000  O
  O89      1.0000 0.01483  0.77393  0.22033  Biso   1.000  O
  O90      1.0000 0.89120  0.63720  0.13557  Biso   1.000  O
  N31      1.0000 0.15664  0.71853  0.11776  Biso   1.000  N
  H91      1.0000 0.16070  0.74390  0.12690  Biso   1.000  H
  N32      1.0000 0.08647  0.72430  0.13279  Biso   1.000  N
  H92      1.0000 0.09430  0.75080  0.13850  Biso   1.000  H
  N33      1.0000 0.94508  0.77600  0.23918  Biso   1.000  N
  H93      1.0000 0.91790  0.76800  0.23540  Biso   1.000  H
  N34      1.0000 0.95820  0.74280  0.19478  Biso   1.000  N
  H94      1.0000 0.92940  0.74080  0.19430  Biso   1.000  H
  N35      1.0000 0.95840  0.63520  0.11467  Biso   1.000  N
  H95      1.0000 0.97550  0.62150  0.10170  Biso   1.000  H
  N36      1.0000 0.90630  0.58890  0.09741  Biso   1.000  N
  H96      1.0000 0.92770  0.57660  0.08710  Biso   1.000  H
  C166     1.0000 0.21844  0.61931  0.04120  Biso   1.000  C
  C167     1.0000 0.31389  0.68336  0.12151  Biso   1.000  C
  C168     1.0000 0.22498  0.64998  0.06683  Biso   1.000  C
  C169     1.0000 0.26635  0.65470  0.08018  Biso   1.000  C
  H97      1.0000 0.29130  0.64030  0.07190  Biso   1.000  H
  C170     1.0000 0.27035  0.68089  0.10591  Biso   1.000  C
  C171     1.0000 0.23446  0.70220  0.11750  Biso   1.000  C
  H98      1.0000 0.23760  0.71990  0.13500  Biso   1.000  H
  C172     1.0000 0.19296  0.69820  0.10379  Biso   1.000  C
  C173     1.0000 0.18889  0.67271  0.07808  Biso   1.000  C
  H99      1.0000 0.16140  0.67070  0.06810  Biso   1.000  H
  C174     1.0000 0.04283  0.82026  0.32357  Biso   1.000  C
  C175     1.0000 0.88327  0.85705  0.32364  Biso   1.000  C
  C176     1.0000 0.99900  0.82077  0.30797  Biso   1.000  C
  C177     1.0000 0.96383  0.84041  0.32116  Biso   1.000  C
  H100     1.0000 0.96740  0.85580  0.33960  Biso   1.000  H
  C178     1.0000 0.92275  0.83810  0.30782  Biso   1.000  C
  C179     1.0000 0.91772  0.81720  0.28054  Biso   1.000  C
  H101     1.0000 0.88970  0.81620  0.27120  Biso   1.000  H
  C180     1.0000 0.95287  0.79770  0.26686  Biso   1.000  C
  C181     1.0000 0.99417  0.79870  0.28079  Biso   1.000  C
  H102     1.0000 0.01860  0.78440  0.27170  Biso   1.000  H
  C182     1.0000 0.74743  0.58622  0.12012  Biso   1.000  C
  C183     1.0000 0.81025  0.49092  0.03994  Biso   1.000  C
  C184     1.0000 0.78603  0.57064  0.10293  Biso   1.000  C
  C185     1.0000 0.78047  0.54095  0.07937  Biso   1.000  C
  H103     1.0000 0.75170  0.53200  0.07380  Biso   1.000  H
  C186     1.0000 0.81605  0.52458  0.06420  Biso   1.000  C
  C187     1.0000 0.85875  0.53960  0.07126  Biso   1.000  C
  H104     1.0000 0.88380  0.52810  0.06120  Biso   1.000  H
  C188     1.0000 0.86310  0.57180  0.09333  Biso   1.000  C
  C189     1.0000 0.82712  0.58560  0.11012  Biso   1.000  C
  H105     1.0000 0.83100  0.60530  0.12650  Biso   1.000  H
  C190     1.0000 0.11640  0.70110  0.11780  Biso   1.000  C
  C191     1.0000 0.97560  0.76650  0.21796  Biso   1.000  C
  C192     1.0000 0.91660  0.62240  0.11590  Biso   1.000  C
  C193     1.0000 0.04360  0.71100  0.14048  Biso   1.000  C
  C194     1.0000 0.02370  0.73190  0.16412  Biso   1.000  C
  H106     1.0000 0.03900  0.75350  0.17540  Biso   1.000  H
  C195     1.0000 0.98130  0.72120  0.17125  Biso   1.000  C
  C196     1.0000 0.95880  0.69250  0.15472  Biso   1.000  C
  H107     1.0000 0.92840  0.68840  0.15860  Biso   1.000  H
  C197     1.0000 0.97820  0.66930  0.13260  Biso   1.000  C
  C198     1.0000 0.02100  0.67990  0.12305  Biso   1.000  C
  H108     1.0000 0.03390  0.66680  0.10570  Biso   1.000  H
  Cu13     1.0000 0.84406  0.90236  0.62788  Biso   1.000  Cu
  Cu14     1.0000 0.79193  0.86900  0.66983  Biso   1.000  Cu
  O91      1.0000 0.31973  0.88497  0.53131  Biso   1.000  O
  O92      1.0000 0.24771  0.89939  0.53080  Biso   1.000  O
  O93      1.0000 0.15495  0.83526  0.60870  Biso   1.000  O
  O94      1.0000 0.18462  0.79563  0.64602  Biso   1.000  O
  O95      1.0000 0.42772  0.70358  0.81228  Biso   1.000  O
  O96      1.0000 0.45376  0.65518  0.84601  Biso   1.000  O
  O97      1.0000 0.60916  0.62388  0.84783  Biso   1.000  O
  O98      1.0000 0.65313  0.64786  0.81072  Biso   1.000  O
  O99      1.0000 0.74501  0.89034  0.64319  Biso   1.000  O
  O100     1.0000 0.78957  0.92359  0.61013  Biso   1.000  O
  O101     1.0000 0.72839  0.01386  0.53100  Biso   1.000  O
  O102     1.0000 0.65623  0.02826  0.53063  Biso   1.000  O
  O103     1.0000 0.39277  0.83450  0.60570  Biso   1.000  O
  O104     1.0000 0.48517  0.72607  0.72033  Biso   1.000  O
  O105     1.0000 0.60880  0.86280  0.63557  Biso   1.000  O
  N37      1.0000 0.34336  0.78147  0.61776  Biso   1.000  N
  H109     1.0000 0.33930  0.75610  0.62690  Biso   1.000  H
  N38      1.0000 0.41353  0.77570  0.63279  Biso   1.000  N
  H110     1.0000 0.40570  0.74920  0.63850  Biso   1.000  H
  N39      1.0000 0.55492  0.72400  0.73918  Biso   1.000  N
  H111     1.0000 0.58210  0.73200  0.73540  Biso   1.000  H
  N40      1.0000 0.54180  0.75720  0.69478  Biso   1.000  N
  H112     1.0000 0.57060  0.75920  0.69430  Biso   1.000  H
  N41      1.0000 0.54160  0.86480  0.61467  Biso   1.000  N
  H113     1.0000 0.52450  0.87850  0.60170  Biso   1.000  H
  N42      1.0000 0.59370  0.91110  0.59741  Biso   1.000  N
  H114     1.0000 0.57230  0.92340  0.58710  Biso   1.000  H
  C199     1.0000 0.28156  0.88069  0.54120  Biso   1.000  C
  C200     1.0000 0.18611  0.81664  0.62151  Biso   1.000  C
  C201     1.0000 0.27502  0.85002  0.56683  Biso   1.000  C
  C202     1.0000 0.23365  0.84530  0.58018  Biso   1.000  C
  H115     1.0000 0.20870  0.85970  0.57190  Biso   1.000  H
  C203     1.0000 0.22965  0.81911  0.60591  Biso   1.000  C
  C204     1.0000 0.26554  0.79780  0.61750  Biso   1.000  C
  H116     1.0000 0.26240  0.78010  0.63500  Biso   1.000  H
  C205     1.0000 0.30704  0.80180  0.60379  Biso   1.000  C
  C206     1.0000 0.31111  0.82729  0.57808  Biso   1.000  C
  H117     1.0000 0.33860  0.82930  0.56810  Biso   1.000  H
  C207     1.0000 0.45717  0.67974  0.82357  Biso   1.000  C
  C208     1.0000 0.61673  0.64295  0.82364  Biso   1.000  C
  C209     1.0000 0.50100  0.67923  0.80797  Biso   1.000  C
  C210     1.0000 0.53617  0.65959  0.82116  Biso   1.000  C
  H118     1.0000 0.53260  0.64420  0.83960  Biso   1.000  H
  C211     1.0000 0.57725  0.66190  0.80782  Biso   1.000  C
  C212     1.0000 0.58228  0.68280  0.78054  Biso   1.000  C
  H119     1.0000 0.61030  0.68380  0.77120  Biso   1.000  H
  C213     1.0000 0.54713  0.70230  0.76686  Biso   1.000  C
  C214     1.0000 0.50583  0.70130  0.78079  Biso   1.000  C
  H120     1.0000 0.48140  0.71560  0.77170  Biso   1.000  H
  C215     1.0000 0.75257  0.91378  0.62012  Biso   1.000  C
  C216     1.0000 0.68975  0.00908  0.53994  Biso   1.000  C
  C217     1.0000 0.71397  0.92936  0.60293  Biso   1.000  C
  C218     1.0000 0.71953  0.95905  0.57937  Biso   1.000  C
  H121     1.0000 0.74830  0.96800  0.57380  Biso   1.000  H
  C219     1.0000 0.68395  0.97542  0.56420  Biso   1.000  C
  C220     1.0000 0.64125  0.96040  0.57126  Biso   1.000  C
  H122     1.0000 0.61620  0.97190  0.56120  Biso   1.000  H
  C221     1.0000 0.63690  0.92820  0.59333  Biso   1.000  C
  C222     1.0000 0.67288  0.91440  0.61012  Biso   1.000  C
  H123     1.0000 0.66900  0.89470  0.62650  Biso   1.000  H
  C223     1.0000 0.38360  0.79890  0.61780  Biso   1.000  C
  C224     1.0000 0.52440  0.73350  0.71796  Biso   1.000  C
  C225     1.0000 0.58340  0.87760  0.61590  Biso   1.000  C
  C226     1.0000 0.45640  0.78900  0.64048  Biso   1.000  C
  C227     1.0000 0.47630  0.76810  0.66412  Biso   1.000  C
  H124     1.0000 0.46100  0.74650  0.67540  Biso   1.000  H
  C228     1.0000 0.51870  0.77880  0.67125  Biso   1.000  C
  C229     1.0000 0.54120  0.80750  0.65472  Biso   1.000  C
  H125     1.0000 0.57160  0.81160  0.65860  Biso   1.000  H
  C230     1.0000 0.52180  0.83070  0.63260  Biso   1.000  C
  C231     1.0000 0.47900  0.82010  0.62305  Biso   1.000  C
  H126     1.0000 0.46610  0.83320  0.60570  Biso   1.000  H
  Cu15     1.0000 0.34406  0.40236  0.12788  Biso   1.000  Cu
  Cu16     1.0000 0.29193  0.36900  0.16983  Biso   1.000  Cu
  O106     1.0000 0.81973  0.38497  0.03131  Biso   1.000  O
  O107     1.0000 0.74771  0.39939  0.03080  Biso   1.000  O
  O108     1.0000 0.65495  0.33526  0.10870  Biso   1.000  O
  O109     1.0000 0.68462  0.29563  0.14602  Biso   1.000  O
  O110     1.0000 0.92772  0.20358  0.31228  Biso   1.000  O
  O111     1.0000 0.95376  0.15518  0.34601  Biso   1.000  O
  O112     1.0000 0.10916  0.12388  0.34783  Biso   1.000  O
  O113     1.0000 0.15313  0.14786  0.31072  Biso   1.000  O
  O114     1.0000 0.24501  0.39034  0.14319  Biso   1.000  O
  O115     1.0000 0.28957  0.42359  0.11013  Biso   1.000  O
  O116     1.0000 0.22839  0.51386  0.03100  Biso   1.000  O
  O117     1.0000 0.15623  0.52826  0.03063  Biso   1.000  O
  O118     1.0000 0.89277  0.33450  0.10570  Biso   1.000  O
  O119     1.0000 0.98517  0.22607  0.22033  Biso   1.000  O
  O120     1.0000 0.10880  0.36280  0.13557  Biso   1.000  O
  N43      1.0000 0.84336  0.28147  0.11776  Biso   1.000  N
  H127     1.0000 0.83930  0.25610  0.12690  Biso   1.000  H
  N44      1.0000 0.91353  0.27570  0.13279  Biso   1.000  N
  H128     1.0000 0.90570  0.24920  0.13850  Biso   1.000  H
  N45      1.0000 0.05492  0.22400  0.23918  Biso   1.000  N
  H129     1.0000 0.08210  0.23200  0.23540  Biso   1.000  H
  N46      1.0000 0.04180  0.25720  0.19478  Biso   1.000  N
  H130     1.0000 0.07060  0.25920  0.19430  Biso   1.000  H
  N47      1.0000 0.04160  0.36480  0.11467  Biso   1.000  N
  H131     1.0000 0.02450  0.37850  0.10170  Biso   1.000  H
  N48      1.0000 0.09370  0.41110  0.09741  Biso   1.000  N
  H132     1.0000 0.07230  0.42340  0.08710  Biso   1.000  H
  C232     1.0000 0.78156  0.38069  0.04120  Biso   1.000  C
  C233     1.0000 0.68611  0.31664  0.12151  Biso   1.000  C
  C234     1.0000 0.77502  0.35002  0.06683  Biso   1.000  C
  C235     1.0000 0.73365  0.34530  0.08018  Biso   1.000  C
  H133     1.0000 0.70870  0.35970  0.07190  Biso   1.000  H
  C236     1.0000 0.72965  0.31911  0.10591  Biso   1.000  C
  C237     1.0000 0.76554  0.29780  0.11750  Biso   1.000  C
  H134     1.0000 0.76240  0.28010  0.13500  Biso   1.000  H
  C238     1.0000 0.80704  0.30180  0.10379  Biso   1.000  C
  C239     1.0000 0.81111  0.32729  0.07808  Biso   1.000  C
  H135     1.0000 0.83860  0.32930  0.06810  Biso   1.000  H
  C240     1.0000 0.95717  0.17974  0.32357  Biso   1.000  C
  C241     1.0000 0.11673  0.14295  0.32364  Biso   1.000  C
  C242     1.0000 0.00100  0.17923  0.30797  Biso   1.000  C
  C243     1.0000 0.03617  0.15959  0.32116  Biso   1.000  C
  H136     1.0000 0.03260  0.14420  0.33960  Biso   1.000  H
  C244     1.0000 0.07725  0.16190  0.30782  Biso   1.000  C
  C245     1.0000 0.08228  0.18280  0.28054  Biso   1.000  C
  H137     1.0000 0.11030  0.18380  0.27120  Biso   1.000  H
  C246     1.0000 0.04713  0.20230  0.26686  Biso   1.000  C
  C247     1.0000 0.00583  0.20130  0.28079  Biso   1.000  C
  H138     1.0000 0.98140  0.21560  0.27170  Biso   1.000  H
  C248     1.0000 0.25257  0.41378  0.12012  Biso   1.000  C
  C249     1.0000 0.18975  0.50908  0.03994  Biso   1.000  C
  C250     1.0000 0.21397  0.42936  0.10293  Biso   1.000  C
  C251     1.0000 0.21953  0.45905  0.07937  Biso   1.000  C
  H139     1.0000 0.24830  0.46800  0.07380  Biso   1.000  H
  C252     1.0000 0.18395  0.47542  0.06420  Biso   1.000  C
  C253     1.0000 0.14125  0.46040  0.07126  Biso   1.000  C
  H140     1.0000 0.11620  0.47190  0.06120  Biso   1.000  H
  C254     1.0000 0.13690  0.42820  0.09333  Biso   1.000  C
  C255     1.0000 0.17288  0.41440  0.11012  Biso   1.000  C
  H141     1.0000 0.16900  0.39470  0.12650  Biso   1.000  H
  C256     1.0000 0.88360  0.29890  0.11780  Biso   1.000  C
  C257     1.0000 0.02440  0.23350  0.21796  Biso   1.000  C
  C258     1.0000 0.08340  0.37760  0.11590  Biso   1.000  C
  C259     1.0000 0.95640  0.28900  0.14048  Biso   1.000  C
  C260     1.0000 0.97630  0.26810  0.16412  Biso   1.000  C
  H142     1.0000 0.96100  0.24650  0.17540  Biso   1.000  H
  C261     1.0000 0.01870  0.27880  0.17125  Biso   1.000  C
  C262     1.0000 0.04120  0.30750  0.15472  Biso   1.000  C
  H143     1.0000 0.07160  0.31160  0.15860  Biso   1.000  H
  C263     1.0000 0.02180  0.33070  0.13260  Biso   1.000  C
  C264     1.0000 0.97900  0.32010  0.12305  Biso   1.000  C
  H144     1.0000 0.96610  0.33320  0.10570  Biso   1.000  H
  Cu17     1.0000 0.90236  0.15594  0.37212  Biso   1.000  Cu
  Cu18     1.0000 0.86900  0.20807  0.33017  Biso   1.000  Cu
  O121     1.0000 0.88497  0.68027  0.46869  Biso   1.000  O
  O122     1.0000 0.89939  0.75229  0.46920  Biso   1.000  O
  O123     1.0000 0.83526  0.84505  0.39130  Biso   1.000  O
  O124     1.0000 0.79563  0.81538  0.35398  Biso   1.000  O
  O125     1.0000 0.70358  0.57228  0.18772  Biso   1.000  O
  O126     1.0000 0.65518  0.54624  0.15399  Biso   1.000  O
  O127     1.0000 0.62388  0.39084  0.15217  Biso   1.000  O
  O128     1.0000 0.64786  0.34687  0.18928  Biso   1.000  O
  O129     1.0000 0.89034  0.25499  0.35681  Biso   1.000  O
  O130     1.0000 0.92359  0.21043  0.38987  Biso   1.000  O
  O131     1.0000 0.01386  0.27161  0.46900  Biso   1.000  O
  O132     1.0000 0.02826  0.34377  0.46937  Biso   1.000  O
  O133     1.0000 0.83450  0.60723  0.39430  Biso   1.000  O
  O134     1.0000 0.72607  0.51483  0.27967  Biso   1.000  O
  O135     1.0000 0.86280  0.39120  0.36443  Biso   1.000  O
  N49      1.0000 0.78147  0.65664  0.38224  Biso   1.000  N
  H145     1.0000 0.75610  0.66070  0.37310  Biso   1.000  H
  N50      1.0000 0.77570  0.58647  0.36721  Biso   1.000  N
  H146     1.0000 0.74920  0.59430  0.36150  Biso   1.000  H
  N51      1.0000 0.72400  0.44508  0.26082  Biso   1.000  N
  H147     1.0000 0.73200  0.41790  0.26460  Biso   1.000  H
  N52      1.0000 0.75720  0.45820  0.30522  Biso   1.000  N
  H148     1.0000 0.75920  0.42940  0.30570  Biso   1.000  H
  N53      1.0000 0.86480  0.45840  0.38533  Biso   1.000  N
  H149     1.0000 0.87850  0.47550  0.39830  Biso   1.000  H
  N54      1.0000 0.91110  0.40630  0.40259  Biso   1.000  N
  H150     1.0000 0.92340  0.42770  0.41290  Biso   1.000  H
  C265     1.0000 0.88069  0.71844  0.45880  Biso   1.000  C
  C266     1.0000 0.81664  0.81389  0.37849  Biso   1.000  C
  C267     1.0000 0.85002  0.72498  0.43317  Biso   1.000  C
  C268     1.0000 0.84530  0.76635  0.41982  Biso   1.000  C
  H151     1.0000 0.85970  0.79130  0.42810  Biso   1.000  H
  C269     1.0000 0.81911  0.77035  0.39409  Biso   1.000  C
  C270     1.0000 0.79780  0.73446  0.38250  Biso   1.000  C
  H152     1.0000 0.78010  0.73760  0.36500  Biso   1.000  H
  C271     1.0000 0.80180  0.69296  0.39621  Biso   1.000  C
  C272     1.0000 0.82729  0.68889  0.42192  Biso   1.000  C
  H153     1.0000 0.82930  0.66140  0.43190  Biso   1.000  H
  C273     1.0000 0.67974  0.54283  0.17643  Biso   1.000  C
  C274     1.0000 0.64295  0.38327  0.17636  Biso   1.000  C
  C275     1.0000 0.67923  0.49900  0.19203  Biso   1.000  C
  C276     1.0000 0.65959  0.46383  0.17884  Biso   1.000  C
  H154     1.0000 0.64420  0.46740  0.16040  Biso   1.000  H
  C277     1.0000 0.66190  0.42275  0.19218  Biso   1.000  C
  C278     1.0000 0.68280  0.41772  0.21946  Biso   1.000  C
  H155     1.0000 0.68380  0.38970  0.22880  Biso   1.000  H
  C279     1.0000 0.70230  0.45287  0.23314  Biso   1.000  C
  C280     1.0000 0.70130  0.49417  0.21921  Biso   1.000  C
  H156     1.0000 0.71560  0.51860  0.22830  Biso   1.000  H
  C281     1.0000 0.91378  0.24743  0.37988  Biso   1.000  C
  C282     1.0000 0.00908  0.31025  0.46006  Biso   1.000  C
  C283     1.0000 0.92936  0.28603  0.39707  Biso   1.000  C
  C284     1.0000 0.95905  0.28047  0.42063  Biso   1.000  C
  H157     1.0000 0.96800  0.25170  0.42620  Biso   1.000  H
  C285     1.0000 0.97542  0.31605  0.43580  Biso   1.000  C
  C286     1.0000 0.96040  0.35875  0.42874  Biso   1.000  C
  H158     1.0000 0.97190  0.38380  0.43880  Biso   1.000  H
  C287     1.0000 0.92820  0.36310  0.40667  Biso   1.000  C
  C288     1.0000 0.91440  0.32712  0.38988  Biso   1.000  C
  H159     1.0000 0.89470  0.33100  0.37350  Biso   1.000  H
  C289     1.0000 0.79890  0.61640  0.38220  Biso   1.000  C
  C290     1.0000 0.73350  0.47560  0.28204  Biso   1.000  C
  C291     1.0000 0.87760  0.41660  0.38410  Biso   1.000  C
  C292     1.0000 0.78900  0.54360  0.35952  Biso   1.000  C
  C293     1.0000 0.76810  0.52370  0.33588  Biso   1.000  C
  H160     1.0000 0.74650  0.53900  0.32460  Biso   1.000  H
  C294     1.0000 0.77880  0.48130  0.32875  Biso   1.000  C
  C295     1.0000 0.80750  0.45880  0.34528  Biso   1.000  C
  H161     1.0000 0.81160  0.42840  0.34140  Biso   1.000  H
  C296     1.0000 0.83070  0.47820  0.36740  Biso   1.000  C
  C297     1.0000 0.82010  0.52100  0.37695  Biso   1.000  C
  H162     1.0000 0.83320  0.53390  0.39430  Biso   1.000  H
  Cu19     1.0000 0.40236  0.65594  0.87212  Biso   1.000  Cu
  Cu20     1.0000 0.36900  0.70807  0.83017  Biso   1.000  Cu
  O136     1.0000 0.38497  0.18027  0.96869  Biso   1.000  O
  O137     1.0000 0.39939  0.25229  0.96920  Biso   1.000  O
  O138     1.0000 0.33526  0.34505  0.89130  Biso   1.000  O
  O139     1.0000 0.29563  0.31538  0.85398  Biso   1.000  O
  O140     1.0000 0.20358  0.07228  0.68772  Biso   1.000  O
  O141     1.0000 0.15518  0.04624  0.65399  Biso   1.000  O
  O142     1.0000 0.12388  0.89084  0.65217  Biso   1.000  O
  O143     1.0000 0.14786  0.84687  0.68928  Biso   1.000  O
  O144     1.0000 0.39034  0.75499  0.85681  Biso   1.000  O
  O145     1.0000 0.42359  0.71043  0.88987  Biso   1.000  O
  O146     1.0000 0.51386  0.77161  0.96900  Biso   1.000  O
  O147     1.0000 0.52826  0.84377  0.96937  Biso   1.000  O
  O148     1.0000 0.33450  0.10723  0.89430  Biso   1.000  O
  O149     1.0000 0.22607  0.01483  0.77967  Biso   1.000  O
  O150     1.0000 0.36280  0.89120  0.86443  Biso   1.000  O
  N55      1.0000 0.28147  0.15664  0.88224  Biso   1.000  N
  H163     1.0000 0.25610  0.16070  0.87310  Biso   1.000  H
  N56      1.0000 0.27570  0.08647  0.86721  Biso   1.000  N
  H164     1.0000 0.24920  0.09430  0.86150  Biso   1.000  H
  N57      1.0000 0.22400  0.94508  0.76082  Biso   1.000  N
  H165     1.0000 0.23200  0.91790  0.76460  Biso   1.000  H
  N58      1.0000 0.25720  0.95820  0.80522  Biso   1.000  N
  H166     1.0000 0.25920  0.92940  0.80570  Biso   1.000  H
  N59      1.0000 0.36480  0.95840  0.88533  Biso   1.000  N
  H167     1.0000 0.37850  0.97550  0.89830  Biso   1.000  H
  N60      1.0000 0.41110  0.90630  0.90259  Biso   1.000  N
  H168     1.0000 0.42340  0.92770  0.91290  Biso   1.000  H
  C298     1.0000 0.38069  0.21844  0.95880  Biso   1.000  C
  C299     1.0000 0.31664  0.31389  0.87849  Biso   1.000  C
  C300     1.0000 0.35002  0.22498  0.93317  Biso   1.000  C
  C301     1.0000 0.34530  0.26635  0.91982  Biso   1.000  C
  H169     1.0000 0.35970  0.29130  0.92810  Biso   1.000  H
  C302     1.0000 0.31911  0.27035  0.89409  Biso   1.000  C
  C303     1.0000 0.29780  0.23446  0.88250  Biso   1.000  C
  H170     1.0000 0.28010  0.23760  0.86500  Biso   1.000  H
  C304     1.0000 0.30180  0.19296  0.89621  Biso   1.000  C
  C305     1.0000 0.32729  0.18889  0.92192  Biso   1.000  C
  H171     1.0000 0.32930  0.16140  0.93190  Biso   1.000  H
  C306     1.0000 0.17974  0.04283  0.67643  Biso   1.000  C
  C307     1.0000 0.14295  0.88327  0.67636  Biso   1.000  C
  C308     1.0000 0.17923  0.99900  0.69203  Biso   1.000  C
  C309     1.0000 0.15959  0.96383  0.67884  Biso   1.000  C
  H172     1.0000 0.14420  0.96740  0.66040  Biso   1.000  H
  C310     1.0000 0.16190  0.92275  0.69218  Biso   1.000  C
  C311     1.0000 0.18280  0.91772  0.71946  Biso   1.000  C
  H173     1.0000 0.18380  0.88970  0.72880  Biso   1.000  H
  C312     1.0000 0.20230  0.95287  0.73314  Biso   1.000  C
  C313     1.0000 0.20130  0.99417  0.71921  Biso   1.000  C
  H174     1.0000 0.21560  0.01860  0.72830  Biso   1.000  H
  C314     1.0000 0.41378  0.74743  0.87988  Biso   1.000  C
  C315     1.0000 0.50908  0.81025  0.96006  Biso   1.000  C
  C316     1.0000 0.42936  0.78603  0.89707  Biso   1.000  C
  C317     1.0000 0.45905  0.78047  0.92063  Biso   1.000  C
  H175     1.0000 0.46800  0.75170  0.92620  Biso   1.000  H
  C318     1.0000 0.47542  0.81605  0.93580  Biso   1.000  C
  C319     1.0000 0.46040  0.85875  0.92874  Biso   1.000  C
  H176     1.0000 0.47190  0.88380  0.93880  Biso   1.000  H
  C320     1.0000 0.42820  0.86310  0.90667  Biso   1.000  C
  C321     1.0000 0.41440  0.82712  0.88988  Biso   1.000  C
  H177     1.0000 0.39470  0.83100  0.87350  Biso   1.000  H
  C322     1.0000 0.29890  0.11640  0.88220  Biso   1.000  C
  C323     1.0000 0.23350  0.97560  0.78204  Biso   1.000  C
  C324     1.0000 0.37760  0.91660  0.88410  Biso   1.000  C
  C325     1.0000 0.28900  0.04360  0.85952  Biso   1.000  C
  C326     1.0000 0.26810  0.02370  0.83588  Biso   1.000  C
  H178     1.0000 0.24650  0.03900  0.82460  Biso   1.000  H
  C327     1.0000 0.27880  0.98130  0.82875  Biso   1.000  C
  C328     1.0000 0.30750  0.95880  0.84528  Biso   1.000  C
  H179     1.0000 0.31160  0.92840  0.84140  Biso   1.000  H
  C329     1.0000 0.33070  0.97820  0.86740  Biso   1.000  C
  C330     1.0000 0.32010  0.02100  0.87695  Biso   1.000  C
  H180     1.0000 0.33320  0.03390  0.89430  Biso   1.000  H
  Cu21     1.0000 0.09764  0.84406  0.37212  Biso   1.000  Cu
  Cu22     1.0000 0.13100  0.79193  0.33017  Biso   1.000  Cu
  O151     1.0000 0.11503  0.31973  0.46869  Biso   1.000  O
  O152     1.0000 0.10061  0.24771  0.46920  Biso   1.000  O
  O153     1.0000 0.16474  0.15495  0.39130  Biso   1.000  O
  O154     1.0000 0.20437  0.18462  0.35398  Biso   1.000  O
  O155     1.0000 0.29642  0.42772  0.18772  Biso   1.000  O
  O156     1.0000 0.34482  0.45376  0.15399  Biso   1.000  O
  O157     1.0000 0.37612  0.60916  0.15217  Biso   1.000  O
  O158     1.0000 0.35214  0.65313  0.18928  Biso   1.000  O
  O159     1.0000 0.10966  0.74501  0.35681  Biso   1.000  O
  O160     1.0000 0.07641  0.78957  0.38987  Biso   1.000  O
  O161     1.0000 0.98614  0.72839  0.46900  Biso   1.000  O
  O162     1.0000 0.97174  0.65623  0.46937  Biso   1.000  O
  O163     1.0000 0.16550  0.39277  0.39430  Biso   1.000  O
  O164     1.0000 0.27393  0.48517  0.27967  Biso   1.000  O
  O165     1.0000 0.13720  0.60880  0.36443  Biso   1.000  O
  N61      1.0000 0.21853  0.34336  0.38224  Biso   1.000  N
  H181     1.0000 0.24390  0.33930  0.37310  Biso   1.000  H
  N62      1.0000 0.22430  0.41353  0.36721  Biso   1.000  N
  H182     1.0000 0.25080  0.40570  0.36150  Biso   1.000  H
  N63      1.0000 0.27600  0.55492  0.26082  Biso   1.000  N
  H183     1.0000 0.26800  0.58210  0.26460  Biso   1.000  H
  N64      1.0000 0.24280  0.54180  0.30522  Biso   1.000  N
  H184     1.0000 0.24080  0.57060  0.30570  Biso   1.000  H
  N65      1.0000 0.13520  0.54160  0.38533  Biso   1.000  N
  H185     1.0000 0.12150  0.52450  0.39830  Biso   1.000  H
  N66      1.0000 0.08890  0.59370  0.40259  Biso   1.000  N
  H186     1.0000 0.07660  0.57230  0.41290  Biso   1.000  H
  C331     1.0000 0.11931  0.28156  0.45880  Biso   1.000  C
  C332     1.0000 0.18336  0.18611  0.37849  Biso   1.000  C
  C333     1.0000 0.14998  0.27502  0.43317  Biso   1.000  C
  C334     1.0000 0.15470  0.23365  0.41982  Biso   1.000  C
  H187     1.0000 0.14030  0.20870  0.42810  Biso   1.000  H
  C335     1.0000 0.18089  0.22965  0.39409  Biso   1.000  C
  C336     1.0000 0.20220  0.26554  0.38250  Biso   1.000  C
  H188     1.0000 0.21990  0.26240  0.36500  Biso   1.000  H
  C337     1.0000 0.19820  0.30704  0.39621  Biso   1.000  C
  C338     1.0000 0.17271  0.31111  0.42192  Biso   1.000  C
  H189     1.0000 0.17070  0.33860  0.43190  Biso   1.000  H
  C339     1.0000 0.32026  0.45717  0.17643  Biso   1.000  C
  C340     1.0000 0.35705  0.61673  0.17636  Biso   1.000  C
  C341     1.0000 0.32077  0.50100  0.19203  Biso   1.000  C
  C342     1.0000 0.34041  0.53617  0.17884  Biso   1.000  C
  H190     1.0000 0.35580  0.53260  0.16040  Biso   1.000  H
  C343     1.0000 0.33810  0.57725  0.19218  Biso   1.000  C
  C344     1.0000 0.31720  0.58228  0.21946  Biso   1.000  C
  H191     1.0000 0.31620  0.61030  0.22880  Biso   1.000  H
  C345     1.0000 0.29770  0.54713  0.23314  Biso   1.000  C
  C346     1.0000 0.29870  0.50583  0.21921  Biso   1.000  C
  H192     1.0000 0.28440  0.48140  0.22830  Biso   1.000  H
  C347     1.0000 0.08622  0.75257  0.37988  Biso   1.000  C
  C348     1.0000 0.99092  0.68975  0.46006  Biso   1.000  C
  C349     1.0000 0.07064  0.71397  0.39707  Biso   1.000  C
  C350     1.0000 0.04095  0.71953  0.42063  Biso   1.000  C
  H193     1.0000 0.03200  0.74830  0.42620  Biso   1.000  H
  C351     1.0000 0.02458  0.68395  0.43580  Biso   1.000  C
  C352     1.0000 0.03960  0.64125  0.42874  Biso   1.000  C
  H194     1.0000 0.02810  0.61620  0.43880  Biso   1.000  H
  C353     1.0000 0.07180  0.63690  0.40667  Biso   1.000  C
  C354     1.0000 0.08560  0.67288  0.38988  Biso   1.000  C
  H195     1.0000 0.10530  0.66900  0.37350  Biso   1.000  H
  C355     1.0000 0.20110  0.38360  0.38220  Biso   1.000  C
  C356     1.0000 0.26650  0.52440  0.28204  Biso   1.000  C
  C357     1.0000 0.12240  0.58340  0.38410  Biso   1.000  C
  C358     1.0000 0.21100  0.45640  0.35952  Biso   1.000  C
  C359     1.0000 0.23190  0.47630  0.33588  Biso   1.000  C
  H196     1.0000 0.25350  0.46100  0.32460  Biso   1.000  H
  C360     1.0000 0.22120  0.51870  0.32875  Biso   1.000  C
  C361     1.0000 0.19250  0.54120  0.34528  Biso   1.000  C
  H197     1.0000 0.18840  0.57160  0.34140  Biso   1.000  H
  C362     1.0000 0.16930  0.52180  0.36740  Biso   1.000  C
  C363     1.0000 0.17990  0.47900  0.37695  Biso   1.000  C
  H198     1.0000 0.16680  0.46610  0.39430  Biso   1.000  H
  Cu23     1.0000 0.59764  0.34406  0.87212  Biso   1.000  Cu
  Cu24     1.0000 0.63100  0.29193  0.83017  Biso   1.000  Cu
  O166     1.0000 0.61503  0.81973  0.96869  Biso   1.000  O
  O167     1.0000 0.60061  0.74771  0.96920  Biso   1.000  O
  O168     1.0000 0.66474  0.65495  0.89130  Biso   1.000  O
  O169     1.0000 0.70437  0.68462  0.85398  Biso   1.000  O
  O170     1.0000 0.79642  0.92772  0.68772  Biso   1.000  O
  O171     1.0000 0.84482  0.95376  0.65399  Biso   1.000  O
  O172     1.0000 0.87612  0.10916  0.65217  Biso   1.000  O
  O173     1.0000 0.85214  0.15313  0.68928  Biso   1.000  O
  O174     1.0000 0.60966  0.24501  0.85681  Biso   1.000  O
  O175     1.0000 0.57641  0.28957  0.88987  Biso   1.000  O
  O176     1.0000 0.48614  0.22839  0.96900  Biso   1.000  O
  O177     1.0000 0.47174  0.15623  0.96937  Biso   1.000  O
  O178     1.0000 0.66550  0.89277  0.89430  Biso   1.000  O
  O179     1.0000 0.77393  0.98517  0.77967  Biso   1.000  O
  O180     1.0000 0.63720  0.10880  0.86443  Biso   1.000  O
  N67      1.0000 0.71853  0.84336  0.88224  Biso   1.000  N
  H199     1.0000 0.74390  0.83930  0.87310  Biso   1.000  H
  N68      1.0000 0.72430  0.91353  0.86721  Biso   1.000  N
  H200     1.0000 0.75080  0.90570  0.86150  Biso   1.000  H
  N69      1.0000 0.77600  0.05492  0.76082  Biso   1.000  N
  H201     1.0000 0.76800  0.08210  0.76460  Biso   1.000  H
  N70      1.0000 0.74280  0.04180  0.80522  Biso   1.000  N
  H202     1.0000 0.74080  0.07060  0.80570  Biso   1.000  H
  N71      1.0000 0.63520  0.04160  0.88533  Biso   1.000  N
  H203     1.0000 0.62150  0.02450  0.89830  Biso   1.000  H
  N72      1.0000 0.58890  0.09370  0.90259  Biso   1.000  N
  H204     1.0000 0.57660  0.07230  0.91290  Biso   1.000  H
  C364     1.0000 0.61931  0.78156  0.95880  Biso   1.000  C
  C365     1.0000 0.68336  0.68611  0.87849  Biso   1.000  C
  C366     1.0000 0.64998  0.77502  0.93317  Biso   1.000  C
  C367     1.0000 0.65470  0.73365  0.91982  Biso   1.000  C
  H205     1.0000 0.64030  0.70870  0.92810  Biso   1.000  H
  C368     1.0000 0.68089  0.72965  0.89409  Biso   1.000  C
  C369     1.0000 0.70220  0.76554  0.88250  Biso   1.000  C
  H206     1.0000 0.71990  0.76240  0.86500  Biso   1.000  H
  C370     1.0000 0.69820  0.80704  0.89621  Biso   1.000  C
  C371     1.0000 0.67271  0.81111  0.92192  Biso   1.000  C
  H207     1.0000 0.67070  0.83860  0.93190  Biso   1.000  H
  C372     1.0000 0.82026  0.95717  0.67643  Biso   1.000  C
  C373     1.0000 0.85705  0.11673  0.67636  Biso   1.000  C
  C374     1.0000 0.82077  0.00100  0.69203  Biso   1.000  C
  C375     1.0000 0.84041  0.03617  0.67884  Biso   1.000  C
  H208     1.0000 0.85580  0.03260  0.66040  Biso   1.000  H
  C376     1.0000 0.83810  0.07725  0.69218  Biso   1.000  C
  C377     1.0000 0.81720  0.08228  0.71946  Biso   1.000  C
  H209     1.0000 0.81620  0.11030  0.72880  Biso   1.000  H
  C378     1.0000 0.79770  0.04713  0.73314  Biso   1.000  C
  C379     1.0000 0.79870  0.00583  0.71921  Biso   1.000  C
  H210     1.0000 0.78440  0.98140  0.72830  Biso   1.000  H
  C380     1.0000 0.58622  0.25257  0.87988  Biso   1.000  C
  C381     1.0000 0.49092  0.18975  0.96006  Biso   1.000  C
  C382     1.0000 0.57064  0.21397  0.89707  Biso   1.000  C
  C383     1.0000 0.54095  0.21953  0.92063  Biso   1.000  C
  H211     1.0000 0.53200  0.24830  0.92620  Biso   1.000  H
  C384     1.0000 0.52458  0.18395  0.93580  Biso   1.000  C
  C385     1.0000 0.53960  0.14125  0.92874  Biso   1.000  C
  H212     1.0000 0.52810  0.11620  0.93880  Biso   1.000  H
  C386     1.0000 0.57180  0.13690  0.90667  Biso   1.000  C
  C387     1.0000 0.58560  0.17288  0.88988  Biso   1.000  C
  H213     1.0000 0.60530  0.16900  0.87350  Biso   1.000  H
  C388     1.0000 0.70110  0.88360  0.88220  Biso   1.000  C
  C389     1.0000 0.76650  0.02440  0.78204  Biso   1.000  C
  C390     1.0000 0.62240  0.08340  0.88410  Biso   1.000  C
  C391     1.0000 0.71100  0.95640  0.85952  Biso   1.000  C
  C392     1.0000 0.73190  0.97630  0.83588  Biso   1.000  C
  H214     1.0000 0.75350  0.96100  0.82460  Biso   1.000  H
  C393     1.0000 0.72120  0.01870  0.82875  Biso   1.000  C
  C394     1.0000 0.69250  0.04120  0.84528  Biso   1.000  C
  H215     1.0000 0.68840  0.07160  0.84140  Biso   1.000  H
  C395     1.0000 0.66930  0.02180  0.86740  Biso   1.000  C
  C396     1.0000 0.67990  0.97900  0.87695  Biso   1.000  C
  H216     1.0000 0.66680  0.96610  0.89430  Biso   1.000  H
  Cu25     1.0000 0.84406  0.90236  0.37212  Biso   1.000  Cu
  Cu26     1.0000 0.79193  0.86900  0.33017  Biso   1.000  Cu
  O181     1.0000 0.31973  0.88497  0.46869  Biso   1.000  O
  O182     1.0000 0.24771  0.89939  0.46920  Biso   1.000  O
  O183     1.0000 0.15495  0.83526  0.39130  Biso   1.000  O
  O184     1.0000 0.18462  0.79563  0.35398  Biso   1.000  O
  O185     1.0000 0.42772  0.70358  0.18772  Biso   1.000  O
  O186     1.0000 0.45376  0.65518  0.15399  Biso   1.000  O
  O187     1.0000 0.60916  0.62388  0.15217  Biso   1.000  O
  O188     1.0000 0.65313  0.64786  0.18928  Biso   1.000  O
  O189     1.0000 0.74501  0.89034  0.35681  Biso   1.000  O
  O190     1.0000 0.78957  0.92359  0.38987  Biso   1.000  O
  O191     1.0000 0.72839  0.01386  0.46900  Biso   1.000  O
  O192     1.0000 0.65623  0.02826  0.46937  Biso   1.000  O
  O193     1.0000 0.39277  0.83450  0.39430  Biso   1.000  O
  O194     1.0000 0.48517  0.72607  0.27967  Biso   1.000  O
  O195     1.0000 0.60880  0.86280  0.36443  Biso   1.000  O
  N73      1.0000 0.34336  0.78147  0.38224  Biso   1.000  N
  H217     1.0000 0.33930  0.75610  0.37310  Biso   1.000  H
  N74      1.0000 0.41353  0.77570  0.36721  Biso   1.000  N
  H218     1.0000 0.40570  0.74920  0.36150  Biso   1.000  H
  N75      1.0000 0.55492  0.72400  0.26082  Biso   1.000  N
  H219     1.0000 0.58210  0.73200  0.26460  Biso   1.000  H
  N76      1.0000 0.54180  0.75720  0.30522  Biso   1.000  N
  H220     1.0000 0.57060  0.75920  0.30570  Biso   1.000  H
  N77      1.0000 0.54160  0.86480  0.38533  Biso   1.000  N
  H221     1.0000 0.52450  0.87850  0.39830  Biso   1.000  H
  N78      1.0000 0.59370  0.91110  0.40259  Biso   1.000  N
  H222     1.0000 0.57230  0.92340  0.41290  Biso   1.000  H
  C397     1.0000 0.28156  0.88069  0.45880  Biso   1.000  C
  C398     1.0000 0.18611  0.81664  0.37849  Biso   1.000  C
  C399     1.0000 0.27502  0.85002  0.43317  Biso   1.000  C
  C400     1.0000 0.23365  0.84530  0.41982  Biso   1.000  C
  H223     1.0000 0.20870  0.85970  0.42810  Biso   1.000  H
  C401     1.0000 0.22965  0.81911  0.39409  Biso   1.000  C
  C402     1.0000 0.26554  0.79780  0.38250  Biso   1.000  C
  H224     1.0000 0.26240  0.78010  0.36500  Biso   1.000  H
  C403     1.0000 0.30704  0.80180  0.39621  Biso   1.000  C
  C404     1.0000 0.31111  0.82729  0.42192  Biso   1.000  C
  H225     1.0000 0.33860  0.82930  0.43190  Biso   1.000  H
  C405     1.0000 0.45717  0.67974  0.17643  Biso   1.000  C
  C406     1.0000 0.61673  0.64295  0.17636  Biso   1.000  C
  C407     1.0000 0.50100  0.67923  0.19203  Biso   1.000  C
  C408     1.0000 0.53617  0.65959  0.17884  Biso   1.000  C
  H226     1.0000 0.53260  0.64420  0.16040  Biso   1.000  H
  C409     1.0000 0.57725  0.66190  0.19218  Biso   1.000  C
  C410     1.0000 0.58228  0.68280  0.21946  Biso   1.000  C
  H227     1.0000 0.61030  0.68380  0.22880  Biso   1.000  H
  C411     1.0000 0.54713  0.70230  0.23314  Biso   1.000  C
  C412     1.0000 0.50583  0.70130  0.21921  Biso   1.000  C
  H228     1.0000 0.48140  0.71560  0.22830  Biso   1.000  H
  C413     1.0000 0.75257  0.91378  0.37988  Biso   1.000  C
  C414     1.0000 0.68975  0.00908  0.46006  Biso   1.000  C
  C415     1.0000 0.71397  0.92936  0.39707  Biso   1.000  C
  C416     1.0000 0.71953  0.95905  0.42063  Biso   1.000  C
  H229     1.0000 0.74830  0.96800  0.42620  Biso   1.000  H
  C417     1.0000 0.68395  0.97542  0.43580  Biso   1.000  C
  C418     1.0000 0.64125  0.96040  0.42874  Biso   1.000  C
  H230     1.0000 0.61620  0.97190  0.43880  Biso   1.000  H
  C419     1.0000 0.63690  0.92820  0.40667  Biso   1.000  C
  C420     1.0000 0.67288  0.91440  0.38988  Biso   1.000  C
  H231     1.0000 0.66900  0.89470  0.37350  Biso   1.000  H
  C421     1.0000 0.38360  0.79890  0.38220  Biso   1.000  C
  C422     1.0000 0.52440  0.73350  0.28204  Biso   1.000  C
  C423     1.0000 0.58340  0.87760  0.38410  Biso   1.000  C
  C424     1.0000 0.45640  0.78900  0.35952  Biso   1.000  C
  C425     1.0000 0.47630  0.76810  0.33588  Biso   1.000  C
  H232     1.0000 0.46100  0.74650  0.32460  Biso   1.000  H
  C426     1.0000 0.51870  0.77880  0.32875  Biso   1.000  C
  C427     1.0000 0.54120  0.80750  0.34528  Biso   1.000  C
  H233     1.0000 0.57160  0.81160  0.34140  Biso   1.000  H
  C428     1.0000 0.52180  0.83070  0.36740  Biso   1.000  C
  C429     1.0000 0.47900  0.82010  0.37695  Biso   1.000  C
  H234     1.0000 0.46610  0.83320  0.39430  Biso   1.000  H
  Cu27     1.0000 0.34406  0.40236  0.87212  Biso   1.000  Cu
  Cu28     1.0000 0.29193  0.36900  0.83017  Biso   1.000  Cu
  O196     1.0000 0.81973  0.38497  0.96869  Biso   1.000  O
  O197     1.0000 0.74771  0.39939  0.96920  Biso   1.000  O
  O198     1.0000 0.65495  0.33526  0.89130  Biso   1.000  O
  O199     1.0000 0.68462  0.29563  0.85398  Biso   1.000  O
  O200     1.0000 0.92772  0.20358  0.68772  Biso   1.000  O
  O201     1.0000 0.95376  0.15518  0.65399  Biso   1.000  O
  O202     1.0000 0.10916  0.12388  0.65217  Biso   1.000  O
  O203     1.0000 0.15313  0.14786  0.68928  Biso   1.000  O
  O204     1.0000 0.24501  0.39034  0.85681  Biso   1.000  O
  O205     1.0000 0.28957  0.42359  0.88987  Biso   1.000  O
  O206     1.0000 0.22839  0.51386  0.96900  Biso   1.000  O
  O207     1.0000 0.15623  0.52826  0.96937  Biso   1.000  O
  O208     1.0000 0.89277  0.33450  0.89430  Biso   1.000  O
  O209     1.0000 0.98517  0.22607  0.77967  Biso   1.000  O
  O210     1.0000 0.10880  0.36280  0.86443  Biso   1.000  O
  N79      1.0000 0.84336  0.28147  0.88224  Biso   1.000  N
  H235     1.0000 0.83930  0.25610  0.87310  Biso   1.000  H
  N80      1.0000 0.91353  0.27570  0.86721  Biso   1.000  N
  H236     1.0000 0.90570  0.24920  0.86150  Biso   1.000  H
  N81      1.0000 0.05492  0.22400  0.76082  Biso   1.000  N
  H237     1.0000 0.08210  0.23200  0.76460  Biso   1.000  H
  N82      1.0000 0.04180  0.25720  0.80522  Biso   1.000  N
  H238     1.0000 0.07060  0.25920  0.80570  Biso   1.000  H
  N83      1.0000 0.04160  0.36480  0.88533  Biso   1.000  N
  H239     1.0000 0.02450  0.37850  0.89830  Biso   1.000  H
  N84      1.0000 0.09370  0.41110  0.90259  Biso   1.000  N
  H240     1.0000 0.07230  0.42340  0.91290  Biso   1.000  H
  C430     1.0000 0.78156  0.38069  0.95880  Biso   1.000  C
  C431     1.0000 0.68611  0.31664  0.87849  Biso   1.000  C
  C432     1.0000 0.77502  0.35002  0.93317  Biso   1.000  C
  C433     1.0000 0.73365  0.34530  0.91982  Biso   1.000  C
  H241     1.0000 0.70870  0.35970  0.92810  Biso   1.000  H
  C434     1.0000 0.72965  0.31911  0.89409  Biso   1.000  C
  C435     1.0000 0.76554  0.29780  0.88250  Biso   1.000  C
  H242     1.0000 0.76240  0.28010  0.86500  Biso   1.000  H
  C436     1.0000 0.80704  0.30180  0.89621  Biso   1.000  C
  C437     1.0000 0.81111  0.32729  0.92192  Biso   1.000  C
  H243     1.0000 0.83860  0.32930  0.93190  Biso   1.000  H
  C438     1.0000 0.95717  0.17974  0.67643  Biso   1.000  C
  C439     1.0000 0.11673  0.14295  0.67636  Biso   1.000  C
  C440     1.0000 0.00100  0.17923  0.69203  Biso   1.000  C
  C441     1.0000 0.03617  0.15959  0.67884  Biso   1.000  C
  H244     1.0000 0.03260  0.14420  0.66040  Biso   1.000  H
  C442     1.0000 0.07725  0.16190  0.69218  Biso   1.000  C
  C443     1.0000 0.08228  0.18280  0.71946  Biso   1.000  C
  H245     1.0000 0.11030  0.18380  0.72880  Biso   1.000  H
  C444     1.0000 0.04713  0.20230  0.73314  Biso   1.000  C
  C445     1.0000 0.00583  0.20130  0.71921  Biso   1.000  C
  H246     1.0000 0.98140  0.21560  0.72830  Biso   1.000  H
  C446     1.0000 0.25257  0.41378  0.87988  Biso   1.000  C
  C447     1.0000 0.18975  0.50908  0.96006  Biso   1.000  C
  C448     1.0000 0.21397  0.42936  0.89707  Biso   1.000  C
  C449     1.0000 0.21953  0.45905  0.92063  Biso   1.000  C
  H247     1.0000 0.24830  0.46800  0.92620  Biso   1.000  H
  C450     1.0000 0.18395  0.47542  0.93580  Biso   1.000  C
  C451     1.0000 0.14125  0.46040  0.92874  Biso   1.000  C
  H248     1.0000 0.11620  0.47190  0.93880  Biso   1.000  H
  C452     1.0000 0.13690  0.42820  0.90667  Biso   1.000  C
  C453     1.0000 0.17288  0.41440  0.88988  Biso   1.000  C
  H249     1.0000 0.16900  0.39470  0.87350  Biso   1.000  H
  C454     1.0000 0.88360  0.29890  0.88220  Biso   1.000  C
  C455     1.0000 0.02440  0.23350  0.78204  Biso   1.000  C
  C456     1.0000 0.08340  0.37760  0.88410  Biso   1.000  C
  C457     1.0000 0.95640  0.28900  0.85952  Biso   1.000  C
  C458     1.0000 0.97630  0.26810  0.83588  Biso   1.000  C
  H250     1.0000 0.96100  0.24650  0.82460  Biso   1.000  H
  C459     1.0000 0.01870  0.27880  0.82875  Biso   1.000  C
  C460     1.0000 0.04120  0.30750  0.84528  Biso   1.000  C
  H251     1.0000 0.07160  0.31160  0.84140  Biso   1.000  H
  C461     1.0000 0.02180  0.33070  0.86740  Biso   1.000  C
  C462     1.0000 0.97900  0.32010  0.87695  Biso   1.000  C
  H252     1.0000 0.96610  0.33320  0.89430  Biso   1.000  H
  Cu29     1.0000 0.15594  0.09764  0.37212  Biso   1.000  Cu
  Cu30     1.0000 0.20807  0.13100  0.33017  Biso   1.000  Cu
  O211     1.0000 0.68027  0.11503  0.46869  Biso   1.000  O
  O212     1.0000 0.75229  0.10061  0.46920  Biso   1.000  O
  O213     1.0000 0.84505  0.16474  0.39130  Biso   1.000  O
  O214     1.0000 0.81538  0.20437  0.35398  Biso   1.000  O
  O215     1.0000 0.57228  0.29642  0.18772  Biso   1.000  O
  O216     1.0000 0.54624  0.34482  0.15399  Biso   1.000  O
  O217     1.0000 0.39084  0.37612  0.15217  Biso   1.000  O
  O218     1.0000 0.34687  0.35214  0.18928  Biso   1.000  O
  O219     1.0000 0.25499  0.10966  0.35681  Biso   1.000  O
  O220     1.0000 0.21043  0.07641  0.38987  Biso   1.000  O
  O221     1.0000 0.27161  0.98614  0.46900  Biso   1.000  O
  O222     1.0000 0.34377  0.97174  0.46937  Biso   1.000  O
  O223     1.0000 0.60723  0.16550  0.39430  Biso   1.000  O
  O224     1.0000 0.51483  0.27393  0.27967  Biso   1.000  O
  O225     1.0000 0.39120  0.13720  0.36443  Biso   1.000  O
  N85      1.0000 0.65664  0.21853  0.38224  Biso   1.000  N
  H253     1.0000 0.66070  0.24390  0.37310  Biso   1.000  H
  N86      1.0000 0.58647  0.22430  0.36721  Biso   1.000  N
  H254     1.0000 0.59430  0.25080  0.36150  Biso   1.000  H
  N87      1.0000 0.44508  0.27600  0.26082  Biso   1.000  N
  H255     1.0000 0.41790  0.26800  0.26460  Biso   1.000  H
  N88      1.0000 0.45820  0.24280  0.30522  Biso   1.000  N
  H256     1.0000 0.42940  0.24080  0.30570  Biso   1.000  H
  N89      1.0000 0.45840  0.13520  0.38533  Biso   1.000  N
  H257     1.0000 0.47550  0.12150  0.39830  Biso   1.000  H
  N90      1.0000 0.40630  0.08890  0.40259  Biso   1.000  N
  H258     1.0000 0.42770  0.07660  0.41290  Biso   1.000  H
  C463     1.0000 0.71844  0.11931  0.45880  Biso   1.000  C
  C464     1.0000 0.81389  0.18336  0.37849  Biso   1.000  C
  C465     1.0000 0.72498  0.14998  0.43317  Biso   1.000  C
  C466     1.0000 0.76635  0.15470  0.41982  Biso   1.000  C
  H259     1.0000 0.79130  0.14030  0.42810  Biso   1.000  H
  C467     1.0000 0.77035  0.18089  0.39409  Biso   1.000  C
  C468     1.0000 0.73446  0.20220  0.38250  Biso   1.000  C
  H260     1.0000 0.73760  0.21990  0.36500  Biso   1.000  H
  C469     1.0000 0.69296  0.19820  0.39621  Biso   1.000  C
  C470     1.0000 0.68889  0.17271  0.42192  Biso   1.000  C
  H261     1.0000 0.66140  0.17070  0.43190  Biso   1.000  H
  C471     1.0000 0.54283  0.32026  0.17643  Biso   1.000  C
  C472     1.0000 0.38327  0.35705  0.17636  Biso   1.000  C
  C473     1.0000 0.49900  0.32077  0.19203  Biso   1.000  C
  C474     1.0000 0.46383  0.34041  0.17884  Biso   1.000  C
  H262     1.0000 0.46740  0.35580  0.16040  Biso   1.000  H
  C475     1.0000 0.42275  0.33810  0.19218  Biso   1.000  C
  C476     1.0000 0.41772  0.31720  0.21946  Biso   1.000  C
  H263     1.0000 0.38970  0.31620  0.22880  Biso   1.000  H
  C477     1.0000 0.45287  0.29770  0.23314  Biso   1.000  C
  C478     1.0000 0.49417  0.29870  0.21921  Biso   1.000  C
  H264     1.0000 0.51860  0.28440  0.22830  Biso   1.000  H
  C479     1.0000 0.24743  0.08622  0.37988  Biso   1.000  C
  C480     1.0000 0.31025  0.99092  0.46006  Biso   1.000  C
  C481     1.0000 0.28603  0.07064  0.39707  Biso   1.000  C
  C482     1.0000 0.28047  0.04095  0.42063  Biso   1.000  C
  H265     1.0000 0.25170  0.03200  0.42620  Biso   1.000  H
  C483     1.0000 0.31605  0.02458  0.43580  Biso   1.000  C
  C484     1.0000 0.35875  0.03960  0.42874  Biso   1.000  C
  H266     1.0000 0.38380  0.02810  0.43880  Biso   1.000  H
  C485     1.0000 0.36310  0.07180  0.40667  Biso   1.000  C
  C486     1.0000 0.32712  0.08560  0.38988  Biso   1.000  C
  H267     1.0000 0.33100  0.10530  0.37350  Biso   1.000  H
  C487     1.0000 0.61640  0.20110  0.38220  Biso   1.000  C
  C488     1.0000 0.47560  0.26650  0.28204  Biso   1.000  C
  C489     1.0000 0.41660  0.12240  0.38410  Biso   1.000  C
  C490     1.0000 0.54360  0.21100  0.35952  Biso   1.000  C
  C491     1.0000 0.52370  0.23190  0.33588  Biso   1.000  C
  H268     1.0000 0.53900  0.25350  0.32460  Biso   1.000  H
  C492     1.0000 0.48130  0.22120  0.32875  Biso   1.000  C
  C493     1.0000 0.45880  0.19250  0.34528  Biso   1.000  C
  H269     1.0000 0.42840  0.18840  0.34140  Biso   1.000  H
  C494     1.0000 0.47820  0.16930  0.36740  Biso   1.000  C
  C495     1.0000 0.52100  0.17990  0.37695  Biso   1.000  C
  H270     1.0000 0.53390  0.16680  0.39430  Biso   1.000  H
  Cu31     1.0000 0.65594  0.59764  0.87212  Biso   1.000  Cu
  Cu32     1.0000 0.70807  0.63100  0.83017  Biso   1.000  Cu
  O226     1.0000 0.18027  0.61503  0.96869  Biso   1.000  O
  O227     1.0000 0.25229  0.60061  0.96920  Biso   1.000  O
  O228     1.0000 0.34505  0.66474  0.89130  Biso   1.000  O
  O229     1.0000 0.31538  0.70437  0.85398  Biso   1.000  O
  O230     1.0000 0.07228  0.79642  0.68772  Biso   1.000  O
  O231     1.0000 0.04624  0.84482  0.65399  Biso   1.000  O
  O232     1.0000 0.89084  0.87612  0.65217  Biso   1.000  O
  O233     1.0000 0.84687  0.85214  0.68928  Biso   1.000  O
  O234     1.0000 0.75499  0.60966  0.85681  Biso   1.000  O
  O235     1.0000 0.71043  0.57641  0.88987  Biso   1.000  O
  O236     1.0000 0.77161  0.48614  0.96900  Biso   1.000  O
  O237     1.0000 0.84377  0.47174  0.96937  Biso   1.000  O
  O238     1.0000 0.10723  0.66550  0.89430  Biso   1.000  O
  O239     1.0000 0.01483  0.77393  0.77967  Biso   1.000  O
  O240     1.0000 0.89120  0.63720  0.86443  Biso   1.000  O
  N91      1.0000 0.15664  0.71853  0.88224  Biso   1.000  N
  H271     1.0000 0.16070  0.74390  0.87310  Biso   1.000  H
  N92      1.0000 0.08647  0.72430  0.86721  Biso   1.000  N
  H272     1.0000 0.09430  0.75080  0.86150  Biso   1.000  H
  N93      1.0000 0.94508  0.77600  0.76082  Biso   1.000  N
  H273     1.0000 0.91790  0.76800  0.76460  Biso   1.000  H
  N94      1.0000 0.95820  0.74280  0.80522  Biso   1.000  N
  H274     1.0000 0.92940  0.74080  0.80570  Biso   1.000  H
  N95      1.0000 0.95840  0.63520  0.88533  Biso   1.000  N
  H275     1.0000 0.97550  0.62150  0.89830  Biso   1.000  H
  N96      1.0000 0.90630  0.58890  0.90259  Biso   1.000  N
  H276     1.0000 0.92770  0.57660  0.91290  Biso   1.000  H
  C496     1.0000 0.21844  0.61931  0.95880  Biso   1.000  C
  C497     1.0000 0.31389  0.68336  0.87849  Biso   1.000  C
  C498     1.0000 0.22498  0.64998  0.93317  Biso   1.000  C
  C499     1.0000 0.26635  0.65470  0.91982  Biso   1.000  C
  H277     1.0000 0.29130  0.64030  0.92810  Biso   1.000  H
  C500     1.0000 0.27035  0.68089  0.89409  Biso   1.000  C
  C501     1.0000 0.23446  0.70220  0.88250  Biso   1.000  C
  H278     1.0000 0.23760  0.71990  0.86500  Biso   1.000  H
  C502     1.0000 0.19296  0.69820  0.89621  Biso   1.000  C
  C503     1.0000 0.18889  0.67271  0.92192  Biso   1.000  C
  H279     1.0000 0.16140  0.67070  0.93190  Biso   1.000  H
  C504     1.0000 0.04283  0.82026  0.67643  Biso   1.000  C
  C505     1.0000 0.88327  0.85705  0.67636  Biso   1.000  C
  C506     1.0000 0.99900  0.82077  0.69203  Biso   1.000  C
  C507     1.0000 0.96383  0.84041  0.67884  Biso   1.000  C
  H280     1.0000 0.96740  0.85580  0.66040  Biso   1.000  H
  C508     1.0000 0.92275  0.83810  0.69218  Biso   1.000  C
  C509     1.0000 0.91772  0.81720  0.71946  Biso   1.000  C
  H281     1.0000 0.88970  0.81620  0.72880  Biso   1.000  H
  C510     1.0000 0.95287  0.79770  0.73314  Biso   1.000  C
  C511     1.0000 0.99417  0.79870  0.71921  Biso   1.000  C
  H282     1.0000 0.01860  0.78440  0.72830  Biso   1.000  H
  C512     1.0000 0.74743  0.58622  0.87988  Biso   1.000  C
  C513     1.0000 0.81025  0.49092  0.96006  Biso   1.000  C
  C514     1.0000 0.78603  0.57064  0.89707  Biso   1.000  C
  C515     1.0000 0.78047  0.54095  0.92063  Biso   1.000  C
  H283     1.0000 0.75170  0.53200  0.92620  Biso   1.000  H
  C516     1.0000 0.81605  0.52458  0.93580  Biso   1.000  C
  C517     1.0000 0.85875  0.53960  0.92874  Biso   1.000  C
  H284     1.0000 0.88380  0.52810  0.93880  Biso   1.000  H
  C518     1.0000 0.86310  0.57180  0.90667  Biso   1.000  C
  C519     1.0000 0.82712  0.58560  0.88988  Biso   1.000  C
  H285     1.0000 0.83100  0.60530  0.87350  Biso   1.000  H
  C520     1.0000 0.11640  0.70110  0.88220  Biso   1.000  C
  C521     1.0000 0.97560  0.76650  0.78204  Biso   1.000  C
  C522     1.0000 0.91660  0.62240  0.88410  Biso   1.000  C
  C523     1.0000 0.04360  0.71100  0.85952  Biso   1.000  C
  C524     1.0000 0.02370  0.73190  0.83588  Biso   1.000  C
  H286     1.0000 0.03900  0.75350  0.82460  Biso   1.000  H
  C525     1.0000 0.98130  0.72120  0.82875  Biso   1.000  C
  C526     1.0000 0.95880  0.69250  0.84528  Biso   1.000  C
  H287     1.0000 0.92840  0.68840  0.84140  Biso   1.000  H
  C527     1.0000 0.97820  0.66930  0.86740  Biso   1.000  C
  C528     1.0000 0.02100  0.67990  0.87695  Biso   1.000  C
  H288     1.0000 0.03390  0.66680  0.89430  Biso   1.000  H
  Cu33     1.0000 0.07384  0.33819  0.50000  Biso   1.000  Cu
  Cu34     1.0000 0.05574  0.25309  0.50000  Biso   1.000  Cu
  Cu35     1.0000 0.57384  0.83819  0.00000  Biso   1.000  Cu
  Cu36     1.0000 0.55574  0.75309  0.00000  Biso   1.000  Cu
  Cu37     1.0000 0.92616  0.66181  0.50000  Biso   1.000  Cu
  Cu38     1.0000 0.94426  0.74691  0.50000  Biso   1.000  Cu
  Cu39     1.0000 0.42616  0.16181  0.00000  Biso   1.000  Cu
  Cu40     1.0000 0.44426  0.24691  0.00000  Biso   1.000  Cu
  Cu41     1.0000 0.66181  0.07384  0.50000  Biso   1.000  Cu
  Cu42     1.0000 0.74691  0.05574  0.50000  Biso   1.000  Cu
  Cu43     1.0000 0.16181  0.57384  0.00000  Biso   1.000  Cu
  Cu44     1.0000 0.24691  0.55574  0.00000  Biso   1.000  Cu
  Cu45     1.0000 0.33819  0.92616  0.50000  Biso   1.000  Cu
  Cu46     1.0000 0.25309  0.94426  0.50000  Biso   1.000  Cu
  Cu47     1.0000 0.83819  0.42616  0.00000  Biso   1.000  Cu
  Cu48     1.0000 0.75309  0.44426  0.00000  Biso   1.000  Cu
