data_ALOLIX_charged
_audit_creation_date              2014-07-02
_audit_creation_method            'Materials Studio'
_symmetry_space_group_name_H-M    'P1'
_symmetry_Int_Tables_number       1
_symmetry_cell_setting            triclinic
loop_
_symmetry_equiv_pos_as_xyz
  x,y,z
_cell_length_a                    27.3449
_cell_length_b                    27.3449
_cell_length_c                    28.2554
_cell_angle_alpha                 90.0000
_cell_angle_beta                  90.0000
_cell_angle_gamma                 120.0000
loop_
_atom_site_label
_atom_site_type_symbol
_atom_site_fract_x
_atom_site_fract_y
_atom_site_fract_z
_atom_site_U_iso_or_equiv
_atom_site_adp_type
_atom_site_occupancy
Cs1    Cs    0.00000   0.00000   0.99617   0.01267  Uiso   1.00
Cs2    Cs    0.00000   0.00000   0.49617   0.01267  Uiso   1.00
Cs3    Cs    0.33333   0.66666   0.54972   0.01267  Uiso   1.00
Cs4    Cs    0.33333   0.66666   0.05579   0.01267  Uiso   1.00
Cs5    Cs    0.66667   0.33334   0.04972   0.01267  Uiso   1.00
Cs6    Cs    0.66667   0.33334   0.55579   0.01267  Uiso   1.00
In1    In    0.17750   0.05567   0.99532   0.01267  Uiso   1.00
In2    In    0.51130   0.72402   0.05411   0.01267  Uiso   1.00
In3    In    0.61191   0.45568   0.05440   0.01267  Uiso   1.00
In4    In    0.87817   0.82250   0.99532   0.01267  Uiso   1.00
In5    In    0.21272   0.48870   0.05411   0.01267  Uiso   1.00
In6    In    0.84377   0.38809   0.05440   0.01267  Uiso   1.00
In7    In    0.94433   0.12183   0.99532   0.01267  Uiso   1.00
In8    In    0.27598   0.78728   0.05411   0.01267  Uiso   1.00
In9    In    0.54432   0.15623   0.05440   0.01267  Uiso   1.00
In10   In    0.12183   0.94433   0.49532   0.01267  Uiso   1.00
In11   In    0.78728   0.27598   0.55411   0.01267  Uiso   1.00
In12   In    0.15623   0.54432   0.55440   0.01267  Uiso   1.00
In13   In    0.05567   0.17750   0.49532   0.01267  Uiso   1.00
In14   In    0.72402   0.51130   0.55411   0.01267  Uiso   1.00
In15   In    0.45568   0.61191   0.55440   0.01267  Uiso   1.00
In16   In    0.82250   0.87817   0.49532   0.01267  Uiso   1.00
In17   In    0.48870   0.21272   0.55411   0.01267  Uiso   1.00
In18   In    0.38809   0.84377   0.55440   0.01267  Uiso   1.00
H1     H     0.52370   0.56510   0.05000   0.01267  Uiso   1.00
H2     H     0.36730   0.51720   0.08500   0.01267  Uiso   1.00
H3     H     0.42140   0.41010   0.09090   0.01267  Uiso   1.00
H4     H     0.43540   0.71030   0.36530   0.01267  Uiso   1.00
H5     H     0.40070   0.82550   0.31150   0.01267  Uiso   1.00
H6     H     0.40330   0.85730   0.38790   0.01267  Uiso   1.00
H7     H     0.49990   0.73990   0.29730   0.01267  Uiso   1.00
H8     H     0.51990   0.72490   0.21920   0.01267  Uiso   1.00
H9     H     0.40120   0.75240   0.16860   0.01267  Uiso   1.00
H10    H     0.37790   0.76410   0.24560   0.01267  Uiso   1.00
H11    H     0.37180   0.13890   0.02100   0.01267  Uiso   1.00
H12    H     0.32860   0.25380   0.98880   0.01267  Uiso   1.00
H13    H     0.48670   0.30150   0.02070   0.01267  Uiso   1.00
H14    H     0.38810   0.85160   0.72220   0.01267  Uiso   1.00
H15    H     0.39990   0.83000   0.80030   0.01267  Uiso   1.00
H16    H     0.42890   0.71040   0.74480   0.01267  Uiso   1.00
H17    H     0.41550   0.73680   0.67030   0.01267  Uiso   1.00
H18    H     0.37290   0.76190   0.86420   0.01267  Uiso   1.00
H19    H     0.52290   0.73380   0.88590   0.01267  Uiso   1.00
H20    H     0.49310   0.73870   0.81190   0.01267  Uiso   1.00
H21    H     0.18670   0.05210   0.82450   0.01267  Uiso   1.00
H22    H     0.16720   0.07290   0.74920   0.01267  Uiso   1.00
H23    H     0.04630   0.10070   0.80450   0.01267  Uiso   1.00
H24    H     0.06750   0.08040   0.87840   0.01267  Uiso   1.00
H25    H     0.09900   0.04290   0.68600   0.01267  Uiso   1.00
H26    H     0.08350   0.06230   0.60980   0.01267  Uiso   1.00
H27    H     0.06330   0.18880   0.66600   0.01267  Uiso   1.00
H28    H     0.08180   0.16430   0.74470   0.01267  Uiso   1.00
H29    H     0.70920   0.80770   0.03550   0.01267  Uiso   1.00
H30    H     0.82480   0.97010   0.03050   0.01267  Uiso   1.00
H31    H     0.66400   0.92390   0.06290   0.01267  Uiso   1.00
H32    H     0.04140   0.47630   0.05000   0.01267  Uiso   1.00
H33    H     0.14990   0.63270   0.08500   0.01267  Uiso   1.00
H34    H     0.98870   0.57860   0.09090   0.01267  Uiso   1.00
H35    H     0.27490   0.56460   0.36530   0.01267  Uiso   1.00
H36    H     0.42480   0.59930   0.31150   0.01267  Uiso   1.00
H37    H     0.45400   0.59670   0.38790   0.01267  Uiso   1.00
H38    H     0.24000   0.50010   0.29730   0.01267  Uiso   1.00
H39    H     0.20500   0.48010   0.21920   0.01267  Uiso   1.00
H40    H     0.35120   0.59880   0.16860   0.01267  Uiso   1.00
H41    H     0.38620   0.62210   0.24560   0.01267  Uiso   1.00
H42    H     0.76710   0.62820   0.02100   0.01267  Uiso   1.00
H43    H     0.92520   0.67140   0.98880   0.01267  Uiso   1.00
H44    H     0.81480   0.51330   0.02070   0.01267  Uiso   1.00
H45    H     0.46350   0.61190   0.72220   0.01267  Uiso   1.00
H46    H     0.43010   0.60010   0.80030   0.01267  Uiso   1.00
H47    H     0.28150   0.57110   0.74480   0.01267  Uiso   1.00
H48    H     0.32130   0.58450   0.67030   0.01267  Uiso   1.00
H49    H     0.38900   0.62710   0.86420   0.01267  Uiso   1.00
H50    H     0.21090   0.47710   0.88590   0.01267  Uiso   1.00
H51    H     0.24560   0.50690   0.81190   0.01267  Uiso   1.00
H52    H     0.86540   0.81330   0.82450   0.01267  Uiso   1.00
H53    H     0.90570   0.83280   0.74920   0.01267  Uiso   1.00
H54    H     0.05440   0.95370   0.80450   0.01267  Uiso   1.00
H55    H     0.01290   0.93250   0.87840   0.01267  Uiso   1.00
H56    H     0.94390   0.90100   0.68600   0.01267  Uiso   1.00
H57    H     0.97880   0.91650   0.60980   0.01267  Uiso   1.00
H58    H     0.12550   0.93670   0.66600   0.01267  Uiso   1.00
H59    H     0.08250   0.91820   0.74470   0.01267  Uiso   1.00
H60    H     0.09850   0.29080   0.03550   0.01267  Uiso   1.00
H61    H     0.14530   0.17520   0.03050   0.01267  Uiso   1.00
H62    H     0.25990   0.33600   0.06290   0.01267  Uiso   1.00
H63    H     0.43490   0.95860   0.05000   0.01267  Uiso   1.00
H64    H     0.48280   0.85010   0.08500   0.01267  Uiso   1.00
H65    H     0.58990   0.01130   0.09090   0.01267  Uiso   1.00
H66    H     0.28970   0.72510   0.36530   0.01267  Uiso   1.00
H67    H     0.17450   0.57520   0.31150   0.01267  Uiso   1.00
H68    H     0.14270   0.54600   0.38790   0.01267  Uiso   1.00
H69    H     0.26010   0.76000   0.29730   0.01267  Uiso   1.00
H70    H     0.27510   0.79500   0.21920   0.01267  Uiso   1.00
H71    H     0.24760   0.64880   0.16860   0.01267  Uiso   1.00
H72    H     0.23590   0.61380   0.24560   0.01267  Uiso   1.00
H73    H     0.86110   0.23290   0.02100   0.01267  Uiso   1.00
H74    H     0.74620   0.07480   0.98880   0.01267  Uiso   1.00
H75    H     0.69850   0.18520   0.02070   0.01267  Uiso   1.00
H76    H     0.14840   0.53650   0.72220   0.01267  Uiso   1.00
H77    H     0.17000   0.56990   0.80030   0.01267  Uiso   1.00
H78    H     0.28960   0.71850   0.74480   0.01267  Uiso   1.00
H79    H     0.26320   0.67870   0.67030   0.01267  Uiso   1.00
H80    H     0.23810   0.61100   0.86420   0.01267  Uiso   1.00
H81    H     0.26620   0.78910   0.88590   0.01267  Uiso   1.00
H82    H     0.26130   0.75440   0.81190   0.01267  Uiso   1.00
H83    H     0.94790   0.13460   0.82450   0.01267  Uiso   1.00
H84    H     0.92710   0.09430   0.74920   0.01267  Uiso   1.00
H85    H     0.89930   0.94560   0.80450   0.01267  Uiso   1.00
H86    H     0.91960   0.98710   0.87840   0.01267  Uiso   1.00
H87    H     0.95710   0.05610   0.68600   0.01267  Uiso   1.00
H88    H     0.93770   0.02120   0.60980   0.01267  Uiso   1.00
H89    H     0.81120   0.87450   0.66600   0.01267  Uiso   1.00
H90    H     0.83570   0.91750   0.74470   0.01267  Uiso   1.00
H91    H     0.19230   0.90150   0.03550   0.01267  Uiso   1.00
H92    H     0.02990   0.85470   0.03050   0.01267  Uiso   1.00
H93    H     0.07610   0.74010   0.06290   0.01267  Uiso   1.00
H94    H     0.95860   0.43490   0.55000   0.01267  Uiso   1.00
H95    H     0.85010   0.48280   0.58500   0.01267  Uiso   1.00
H96    H     0.01130   0.58990   0.59090   0.01267  Uiso   1.00
H97    H     0.72510   0.28970   0.86530   0.01267  Uiso   1.00
H98    H     0.57520   0.17450   0.81150   0.01267  Uiso   1.00
H99    H     0.54600   0.14270   0.88790   0.01267  Uiso   1.00
H100   H     0.76000   0.26010   0.79730   0.01267  Uiso   1.00
H101   H     0.79500   0.27510   0.71920   0.01267  Uiso   1.00
H102   H     0.64880   0.24760   0.66860   0.01267  Uiso   1.00
H103   H     0.61380   0.23590   0.74560   0.01267  Uiso   1.00
H104   H     0.23290   0.86110   0.52100   0.01267  Uiso   1.00
H105   H     0.07480   0.74620   0.48880   0.01267  Uiso   1.00
H106   H     0.18520   0.69850   0.52070   0.01267  Uiso   1.00
H107   H     0.53650   0.14840   0.22220   0.01267  Uiso   1.00
H108   H     0.56990   0.17000   0.30030   0.01267  Uiso   1.00
H109   H     0.71850   0.28960   0.24480   0.01267  Uiso   1.00
H110   H     0.67870   0.26320   0.17030   0.01267  Uiso   1.00
H111   H     0.61100   0.23810   0.36420   0.01267  Uiso   1.00
H112   H     0.78910   0.26620   0.38590   0.01267  Uiso   1.00
H113   H     0.75440   0.26130   0.31190   0.01267  Uiso   1.00
H114   H     0.13460   0.94790   0.32450   0.01267  Uiso   1.00
H115   H     0.09430   0.92710   0.24920   0.01267  Uiso   1.00
H116   H     0.94560   0.89930   0.30450   0.01267  Uiso   1.00
H117   H     0.98710   0.91960   0.37840   0.01267  Uiso   1.00
H118   H     0.05610   0.95710   0.18600   0.01267  Uiso   1.00
H119   H     0.02120   0.93770   0.10980   0.01267  Uiso   1.00
H120   H     0.87450   0.81120   0.16600   0.01267  Uiso   1.00
H121   H     0.91750   0.83570   0.24470   0.01267  Uiso   1.00
H122   H     0.90150   0.19230   0.53550   0.01267  Uiso   1.00
H123   H     0.85470   0.02990   0.53050   0.01267  Uiso   1.00
H124   H     0.74010   0.07610   0.56290   0.01267  Uiso   1.00
H125   H     0.56510   0.52370   0.55000   0.01267  Uiso   1.00
H126   H     0.51720   0.36730   0.58500   0.01267  Uiso   1.00
H127   H     0.41010   0.42140   0.59090   0.01267  Uiso   1.00
H128   H     0.71030   0.43540   0.86530   0.01267  Uiso   1.00
H129   H     0.82550   0.40070   0.81150   0.01267  Uiso   1.00
H130   H     0.85730   0.40330   0.88790   0.01267  Uiso   1.00
H131   H     0.73990   0.49990   0.79730   0.01267  Uiso   1.00
H132   H     0.72490   0.51990   0.71920   0.01267  Uiso   1.00
H133   H     0.75240   0.40120   0.66860   0.01267  Uiso   1.00
H134   H     0.76410   0.37790   0.74560   0.01267  Uiso   1.00
H135   H     0.13890   0.37180   0.52100   0.01267  Uiso   1.00
H136   H     0.25380   0.32860   0.48880   0.01267  Uiso   1.00
H137   H     0.30150   0.48670   0.52070   0.01267  Uiso   1.00
H138   H     0.85160   0.38810   0.22220   0.01267  Uiso   1.00
H139   H     0.83000   0.39990   0.30030   0.01267  Uiso   1.00
H140   H     0.71040   0.42890   0.24480   0.01267  Uiso   1.00
H141   H     0.73680   0.41550   0.17030   0.01267  Uiso   1.00
H142   H     0.76190   0.37290   0.36420   0.01267  Uiso   1.00
H143   H     0.73380   0.52290   0.38590   0.01267  Uiso   1.00
H144   H     0.73870   0.49310   0.31190   0.01267  Uiso   1.00
H145   H     0.05210   0.18670   0.32450   0.01267  Uiso   1.00
H146   H     0.07290   0.16720   0.24920   0.01267  Uiso   1.00
H147   H     0.10070   0.04630   0.30450   0.01267  Uiso   1.00
H148   H     0.08040   0.06750   0.37840   0.01267  Uiso   1.00
H149   H     0.04290   0.09900   0.18600   0.01267  Uiso   1.00
H150   H     0.06230   0.08350   0.10980   0.01267  Uiso   1.00
H151   H     0.18880   0.06330   0.16600   0.01267  Uiso   1.00
H152   H     0.16430   0.08180   0.24470   0.01267  Uiso   1.00
H153   H     0.80770   0.70920   0.53550   0.01267  Uiso   1.00
H154   H     0.97010   0.82480   0.53050   0.01267  Uiso   1.00
H155   H     0.92390   0.66400   0.56290   0.01267  Uiso   1.00
H156   H     0.47630   0.04140   0.55000   0.01267  Uiso   1.00
H157   H     0.63270   0.14990   0.58500   0.01267  Uiso   1.00
H158   H     0.57860   0.98870   0.59090   0.01267  Uiso   1.00
H159   H     0.56460   0.27490   0.86530   0.01267  Uiso   1.00
H160   H     0.59930   0.42480   0.81150   0.01267  Uiso   1.00
H161   H     0.59670   0.45400   0.88790   0.01267  Uiso   1.00
H162   H     0.50010   0.24000   0.79730   0.01267  Uiso   1.00
H163   H     0.48010   0.20500   0.71920   0.01267  Uiso   1.00
H164   H     0.59880   0.35120   0.66860   0.01267  Uiso   1.00
H165   H     0.62210   0.38620   0.74560   0.01267  Uiso   1.00
H166   H     0.62820   0.76710   0.52100   0.01267  Uiso   1.00
H167   H     0.67140   0.92520   0.48880   0.01267  Uiso   1.00
H168   H     0.51330   0.81480   0.52070   0.01267  Uiso   1.00
H169   H     0.61190   0.46350   0.22220   0.01267  Uiso   1.00
H170   H     0.60010   0.43010   0.30030   0.01267  Uiso   1.00
H171   H     0.57110   0.28150   0.24480   0.01267  Uiso   1.00
H172   H     0.58450   0.32130   0.17030   0.01267  Uiso   1.00
H173   H     0.62710   0.38900   0.36420   0.01267  Uiso   1.00
H174   H     0.47710   0.21090   0.38590   0.01267  Uiso   1.00
H175   H     0.50690   0.24560   0.31190   0.01267  Uiso   1.00
H176   H     0.81330   0.86540   0.32450   0.01267  Uiso   1.00
H177   H     0.83280   0.90570   0.24920   0.01267  Uiso   1.00
H178   H     0.95370   0.05440   0.30450   0.01267  Uiso   1.00
H179   H     0.93250   0.01290   0.37840   0.01267  Uiso   1.00
H180   H     0.90100   0.94390   0.18600   0.01267  Uiso   1.00
H181   H     0.91650   0.97880   0.10980   0.01267  Uiso   1.00
H182   H     0.93670   0.12550   0.16600   0.01267  Uiso   1.00
H183   H     0.91820   0.08250   0.24470   0.01267  Uiso   1.00
H184   H     0.29080   0.09850   0.53550   0.01267  Uiso   1.00
H185   H     0.17520   0.14530   0.53050   0.01267  Uiso   1.00
H186   H     0.33600   0.25990   0.56290   0.01267  Uiso   1.00
C1     C     0.52630   0.47480   0.05550   0.01267  Uiso   1.00
C2     C     0.47760   0.48380   0.06520   0.01267  Uiso   1.00
C3     C     0.48820   0.53710   0.05980   0.01267  Uiso   1.00
C4     C     0.44750   0.55030   0.06870   0.01267  Uiso   1.00
C5     C     0.39590   0.50850   0.08140   0.01267  Uiso   1.00
C6     C     0.38300   0.45460   0.08930   0.01267  Uiso   1.00
C7     C     0.42680   0.44540   0.08270   0.01267  Uiso   1.00
C8     C     0.45850   0.61230   0.04020   0.01267  Uiso   1.00
C9     C     0.40260   0.81660   0.46450   0.01267  Uiso   1.00
C10    C     0.41070   0.79880   0.42240   0.01267  Uiso   1.00
C11    C     0.41950   0.75570   0.41280   0.01267  Uiso   1.00
C12    C     0.42860   0.74020   0.36820   0.01267  Uiso   1.00
C13    C     0.42760   0.76900   0.32790   0.01267  Uiso   1.00
C14    C     0.41010   0.80980   0.33660   0.01267  Uiso   1.00
C15    C     0.40750   0.82590   0.38340   0.01267  Uiso   1.00
C16    C     0.43490   0.75340   0.28300   0.01267  Uiso   1.00
C17    C     0.47850   0.74190   0.27260   0.01267  Uiso   1.00
C18    C     0.49110   0.73300   0.22440   0.01267  Uiso   1.00
C19    C     0.46420   0.73600   0.19000   0.01267  Uiso   1.00
C20    C     0.42010   0.74900   0.19460   0.01267  Uiso   1.00
C21    C     0.40720   0.75650   0.24150   0.01267  Uiso   1.00
C22    C     0.48290   0.73290   0.14110   0.01267  Uiso   1.00
C23    C     0.48380   0.20880   0.03790   0.01267  Uiso   1.00
C24    C     0.43530   0.21890   0.02140   0.01267  Uiso   1.00
C25    C     0.38200   0.17650   0.01660   0.01267  Uiso   1.00
C26    C     0.34470   0.19250   0.00520   0.01267  Uiso   1.00
C27    C     0.35670   0.24560   0.99700   0.01267  Uiso   1.00
C28    C     0.41090   0.28640   0.00120   0.01267  Uiso   1.00
C29    C     0.44970   0.27300   0.01520   0.01267  Uiso   1.00
C30    C     0.28360   0.14310   0.99610   0.01267  Uiso   1.00
C31    C     0.39180   0.81300   0.64180   0.01267  Uiso   1.00
C32    C     0.40000   0.79440   0.69020   0.01267  Uiso   1.00
C33    C     0.39620   0.82290   0.72760   0.01267  Uiso   1.00
C34    C     0.40410   0.81100   0.77470   0.01267  Uiso   1.00
C35    C     0.41860   0.76870   0.78090   0.01267  Uiso   1.00
C36    C     0.42130   0.73980   0.74140   0.01267  Uiso   1.00
C37    C     0.41230   0.75540   0.69670   0.01267  Uiso   1.00
C38    C     0.43190   0.75640   0.82710   0.01267  Uiso   1.00
C39    C     0.40390   0.75690   0.86790   0.01267  Uiso   1.00
C40    C     0.41780   0.75060   0.91310   0.01267  Uiso   1.00
C41    C     0.46180   0.73700   0.91630   0.01267  Uiso   1.00
C42    C     0.49110   0.73740   0.88160   0.01267  Uiso   1.00
C43    C     0.47450   0.74350   0.83750   0.01267  Uiso   1.00
C44    C     0.47960   0.73340   0.96710   0.01267  Uiso   1.00
C45    C     0.14580   0.05980   0.90940   0.01267  Uiso   1.00
C46    C     0.12870   0.06550   0.85980   0.01267  Uiso   1.00
C47    C     0.15890   0.06180   0.82020   0.01267  Uiso   1.00
C48    C     0.14660   0.07280   0.77540   0.01267  Uiso   1.00
C49    C     0.09950   0.08430   0.77080   0.01267  Uiso   1.00
C50    C     0.07330   0.08980   0.80790   0.01267  Uiso   1.00
C51    C     0.08730   0.07870   0.85230   0.01267  Uiso   1.00
C52    C     0.09200   0.09910   0.71990   0.01267  Uiso   1.00
C53    C     0.09250   0.07290   0.68180   0.01267  Uiso   1.00
C54    C     0.08450   0.08460   0.63500   0.01267  Uiso   1.00
C55    C     0.07800   0.13200   0.62860   0.01267  Uiso   1.00
C56    C     0.07270   0.16070   0.66970   0.01267  Uiso   1.00
C57    C     0.08220   0.14500   0.71770   0.01267  Uiso   1.00
C58    C     0.07100   0.14820   0.57960   0.01267  Uiso   1.00
C59    C     0.61730   0.80940   0.04890   0.01267  Uiso   1.00
C60    C     0.67450   0.85720   0.04430   0.01267  Uiso   1.00
C61    C     0.71750   0.84500   0.03490   0.01267  Uiso   1.00
C62    C     0.77140   0.88660   0.02500   0.01267  Uiso   1.00
C63    C     0.78710   0.94210   0.03390   0.01267  Uiso   1.00
C64    C     0.74690   0.95730   0.04820   0.01267  Uiso   1.00
C65    C     0.69100   0.91480   0.05340   0.01267  Uiso   1.00
C66    C     0.81330   0.87270   0.99640   0.01267  Uiso   1.00
C67    C     0.94850   0.47370   0.05550   0.01267  Uiso   1.00
C68    C     0.00620   0.52240   0.06520   0.01267  Uiso   1.00
C69    C     0.04890   0.51180   0.05980   0.01267  Uiso   1.00
C70    C     0.10280   0.55250   0.06870   0.01267  Uiso   1.00
C71    C     0.11260   0.60410   0.08140   0.01267  Uiso   1.00
C72    C     0.07160   0.61700   0.08930   0.01267  Uiso   1.00
C73    C     0.01860   0.57320   0.08270   0.01267  Uiso   1.00
C74    C     0.15380   0.54150   0.04020   0.01267  Uiso   1.00
C75    C     0.41400   0.59740   0.46450   0.01267  Uiso   1.00
C76    C     0.38810   0.58930   0.42240   0.01267  Uiso   1.00
C77    C     0.33620   0.58050   0.41280   0.01267  Uiso   1.00
C78    C     0.31160   0.57140   0.36820   0.01267  Uiso   1.00
C79    C     0.34140   0.57240   0.32790   0.01267  Uiso   1.00
C80    C     0.39970   0.58990   0.33660   0.01267  Uiso   1.00
C81    C     0.41840   0.59250   0.38340   0.01267  Uiso   1.00
C82    C     0.31850   0.56510   0.28300   0.01267  Uiso   1.00
C83    C     0.26340   0.52150   0.27260   0.01267  Uiso   1.00
C84    C     0.24190   0.50890   0.22440   0.01267  Uiso   1.00
C85    C     0.27180   0.53580   0.19000   0.01267  Uiso   1.00
C86    C     0.32890   0.57990   0.19460   0.01267  Uiso   1.00
C87    C     0.34930   0.59280   0.24150   0.01267  Uiso   1.00
C88    C     0.25000   0.51710   0.14110   0.01267  Uiso   1.00
C89    C     0.72500   0.51620   0.03790   0.01267  Uiso   1.00
C90    C     0.78360   0.56470   0.02140   0.01267  Uiso   1.00
C91    C     0.79450   0.61800   0.01660   0.01267  Uiso   1.00
C92    C     0.84780   0.65530   0.00520   0.01267  Uiso   1.00
C93    C     0.88890   0.64330   0.99700   0.01267  Uiso   1.00
C94    C     0.87550   0.58910   0.00120   0.01267  Uiso   1.00
C95    C     0.82330   0.55030   0.01520   0.01267  Uiso   1.00
C96    C     0.85950   0.71640   0.99610   0.01267  Uiso   1.00
C97    C     0.42120   0.60820   0.64180   0.01267  Uiso   1.00
C98    C     0.39440   0.60000   0.69020   0.01267  Uiso   1.00
C99    C     0.42670   0.60380   0.72760   0.01267  Uiso   1.00
C100   C     0.40690   0.59590   0.77470   0.01267  Uiso   1.00
C101   C     0.35010   0.58140   0.78090   0.01267  Uiso   1.00
C102   C     0.31850   0.57870   0.74140   0.01267  Uiso   1.00
C103   C     0.34310   0.58770   0.69670   0.01267  Uiso   1.00
C104   C     0.32450   0.56810   0.82710   0.01267  Uiso   1.00
C105   C     0.35300   0.59610   0.86790   0.01267  Uiso   1.00
C106   C     0.33280   0.58220   0.91310   0.01267  Uiso   1.00
C107   C     0.27520   0.53820   0.91630   0.01267  Uiso   1.00
C108   C     0.24630   0.50890   0.88160   0.01267  Uiso   1.00
C109   C     0.26900   0.52550   0.83750   0.01267  Uiso   1.00
C110   C     0.25380   0.52040   0.96710   0.01267  Uiso   1.00
C111   C     0.91400   0.85420   0.90940   0.01267  Uiso   1.00
C112   C     0.93680   0.87130   0.85980   0.01267  Uiso   1.00
C113   C     0.90290   0.84110   0.82020   0.01267  Uiso   1.00
C114   C     0.92620   0.85340   0.77540   0.01267  Uiso   1.00
C115   C     0.98480   0.90050   0.77080   0.01267  Uiso   1.00
C116   C     0.01650   0.92670   0.80790   0.01267  Uiso   1.00
C117   C     0.99140   0.91270   0.85230   0.01267  Uiso   1.00
C118   C     0.00710   0.90800   0.71990   0.01267  Uiso   1.00
C119   C     0.98040   0.90750   0.68180   0.01267  Uiso   1.00
C120   C     0.00010   0.91550   0.63500   0.01267  Uiso   1.00
C121   C     0.05400   0.92200   0.62860   0.01267  Uiso   1.00
C122   C     0.08800   0.92730   0.66970   0.01267  Uiso   1.00
C123   C     0.06280   0.91780   0.71770   0.01267  Uiso   1.00
C124   C     0.07720   0.92900   0.57960   0.01267  Uiso   1.00
C125   C     0.19210   0.38270   0.04890   0.01267  Uiso   1.00
C126   C     0.18270   0.32550   0.04430   0.01267  Uiso   1.00
C127   C     0.12750   0.28250   0.03490   0.01267  Uiso   1.00
C128   C     0.11520   0.22860   0.02500   0.01267  Uiso   1.00
C129   C     0.15500   0.21290   0.03390   0.01267  Uiso   1.00
C130   C     0.21040   0.25310   0.04820   0.01267  Uiso   1.00
C131   C     0.22380   0.30900   0.05340   0.01267  Uiso   1.00
C132   C     0.05940   0.18670   0.99640   0.01267  Uiso   1.00
C133   C     0.52520   0.05150   0.05550   0.01267  Uiso   1.00
C134   C     0.51620   0.99380   0.06520   0.01267  Uiso   1.00
C135   C     0.46290   0.95110   0.05980   0.01267  Uiso   1.00
C136   C     0.44970   0.89720   0.06870   0.01267  Uiso   1.00
C137   C     0.49150   0.88740   0.08140   0.01267  Uiso   1.00
C138   C     0.54540   0.92840   0.08930   0.01267  Uiso   1.00
C139   C     0.55460   0.98140   0.08270   0.01267  Uiso   1.00
C140   C     0.38770   0.84620   0.04020   0.01267  Uiso   1.00
C141   C     0.18340   0.58600   0.46450   0.01267  Uiso   1.00
C142   C     0.20120   0.61190   0.42240   0.01267  Uiso   1.00
C143   C     0.24430   0.66380   0.41280   0.01267  Uiso   1.00
C144   C     0.25980   0.68840   0.36820   0.01267  Uiso   1.00
C145   C     0.23100   0.65860   0.32790   0.01267  Uiso   1.00
C146   C     0.19020   0.60030   0.33660   0.01267  Uiso   1.00
C147   C     0.17410   0.58160   0.38340   0.01267  Uiso   1.00
C148   C     0.24660   0.68150   0.28300   0.01267  Uiso   1.00
C149   C     0.25810   0.73660   0.27260   0.01267  Uiso   1.00
C150   C     0.26700   0.75810   0.22440   0.01267  Uiso   1.00
C151   C     0.26400   0.72820   0.19000   0.01267  Uiso   1.00
C152   C     0.25100   0.67110   0.19460   0.01267  Uiso   1.00
C153   C     0.24350   0.65070   0.24150   0.01267  Uiso   1.00
C154   C     0.26710   0.75000   0.14110   0.01267  Uiso   1.00
C155   C     0.79120   0.27500   0.03790   0.01267  Uiso   1.00
C156   C     0.78110   0.21640   0.02140   0.01267  Uiso   1.00
C157   C     0.82350   0.20550   0.01660   0.01267  Uiso   1.00
C158   C     0.80750   0.15220   0.00520   0.01267  Uiso   1.00
C159   C     0.75440   0.11110   0.99700   0.01267  Uiso   1.00
C160   C     0.71360   0.12450   0.00120   0.01267  Uiso   1.00
C161   C     0.72700   0.17670   0.01520   0.01267  Uiso   1.00
C162   C     0.85690   0.14050   0.99610   0.01267  Uiso   1.00
C163   C     0.18700   0.57880   0.64180   0.01267  Uiso   1.00
C164   C     0.20560   0.60560   0.69020   0.01267  Uiso   1.00
C165   C     0.17710   0.57330   0.72760   0.01267  Uiso   1.00
C166   C     0.18900   0.59310   0.77470   0.01267  Uiso   1.00
C167   C     0.23130   0.64990   0.78090   0.01267  Uiso   1.00
C168   C     0.26020   0.68150   0.74140   0.01267  Uiso   1.00
C169   C     0.24460   0.65690   0.69670   0.01267  Uiso   1.00
C170   C     0.24360   0.67550   0.82710   0.01267  Uiso   1.00
C171   C     0.24310   0.64700   0.86790   0.01267  Uiso   1.00
C172   C     0.24940   0.66720   0.91310   0.01267  Uiso   1.00
C173   C     0.26300   0.72480   0.91630   0.01267  Uiso   1.00
C174   C     0.26260   0.75370   0.88160   0.01267  Uiso   1.00
C175   C     0.25650   0.73100   0.83750   0.01267  Uiso   1.00
C176   C     0.26660   0.74620   0.96710   0.01267  Uiso   1.00
C177   C     0.94020   0.08600   0.90940   0.01267  Uiso   1.00
C178   C     0.93450   0.06320   0.85980   0.01267  Uiso   1.00
C179   C     0.93820   0.09710   0.82020   0.01267  Uiso   1.00
C180   C     0.92720   0.07380   0.77540   0.01267  Uiso   1.00
C181   C     0.91570   0.01520   0.77080   0.01267  Uiso   1.00
C182   C     0.91020   0.98350   0.80790   0.01267  Uiso   1.00
C183   C     0.92130   0.00860   0.85230   0.01267  Uiso   1.00
C184   C     0.90090   0.99290   0.71990   0.01267  Uiso   1.00
C185   C     0.92710   0.01960   0.68180   0.01267  Uiso   1.00
C186   C     0.91540   0.99990   0.63500   0.01267  Uiso   1.00
C187   C     0.86800   0.94600   0.62860   0.01267  Uiso   1.00
C188   C     0.83930   0.91200   0.66970   0.01267  Uiso   1.00
C189   C     0.85500   0.93720   0.71770   0.01267  Uiso   1.00
C190   C     0.85180   0.92280   0.57960   0.01267  Uiso   1.00
C191   C     0.19060   0.80790   0.04890   0.01267  Uiso   1.00
C192   C     0.14280   0.81730   0.04430   0.01267  Uiso   1.00
C193   C     0.15500   0.87250   0.03490   0.01267  Uiso   1.00
C194   C     0.11340   0.88480   0.02500   0.01267  Uiso   1.00
C195   C     0.05790   0.84500   0.03390   0.01267  Uiso   1.00
C196   C     0.04270   0.78960   0.04820   0.01267  Uiso   1.00
C197   C     0.08520   0.77620   0.05340   0.01267  Uiso   1.00
C198   C     0.12730   0.94060   0.99640   0.01267  Uiso   1.00
C199   C     0.05150   0.52520   0.55550   0.01267  Uiso   1.00
C200   C     0.99380   0.51620   0.56520   0.01267  Uiso   1.00
C201   C     0.95110   0.46290   0.55980   0.01267  Uiso   1.00
C202   C     0.89720   0.44970   0.56870   0.01267  Uiso   1.00
C203   C     0.88740   0.49150   0.58140   0.01267  Uiso   1.00
C204   C     0.92840   0.54540   0.58930   0.01267  Uiso   1.00
C205   C     0.98140   0.55460   0.58270   0.01267  Uiso   1.00
C206   C     0.84620   0.38770   0.54020   0.01267  Uiso   1.00
C207   C     0.58600   0.18340   0.96450   0.01267  Uiso   1.00
C208   C     0.61190   0.20120   0.92240   0.01267  Uiso   1.00
C209   C     0.66380   0.24430   0.91280   0.01267  Uiso   1.00
C210   C     0.68840   0.25980   0.86820   0.01267  Uiso   1.00
C211   C     0.65860   0.23100   0.82790   0.01267  Uiso   1.00
C212   C     0.60030   0.19020   0.83660   0.01267  Uiso   1.00
C213   C     0.58160   0.17410   0.88340   0.01267  Uiso   1.00
C214   C     0.68150   0.24660   0.78300   0.01267  Uiso   1.00
C215   C     0.73660   0.25810   0.77260   0.01267  Uiso   1.00
C216   C     0.75810   0.26700   0.72440   0.01267  Uiso   1.00
C217   C     0.72820   0.26400   0.69000   0.01267  Uiso   1.00
C218   C     0.67110   0.25100   0.69460   0.01267  Uiso   1.00
C219   C     0.65070   0.24350   0.74150   0.01267  Uiso   1.00
C220   C     0.75000   0.26710   0.64110   0.01267  Uiso   1.00
C221   C     0.27500   0.79120   0.53790   0.01267  Uiso   1.00
C222   C     0.21640   0.78110   0.52140   0.01267  Uiso   1.00
C223   C     0.20550   0.82350   0.51660   0.01267  Uiso   1.00
C224   C     0.15220   0.80750   0.50520   0.01267  Uiso   1.00
C225   C     0.11110   0.75440   0.49700   0.01267  Uiso   1.00
C226   C     0.12450   0.71360   0.50120   0.01267  Uiso   1.00
C227   C     0.17670   0.72700   0.51520   0.01267  Uiso   1.00
C228   C     0.14050   0.85690   0.49610   0.01267  Uiso   1.00
C229   C     0.57880   0.18700   0.14180   0.01267  Uiso   1.00
C230   C     0.60560   0.20560   0.19020   0.01267  Uiso   1.00
C231   C     0.57330   0.17710   0.22760   0.01267  Uiso   1.00
C232   C     0.59310   0.18900   0.27470   0.01267  Uiso   1.00
C233   C     0.64990   0.23130   0.28090   0.01267  Uiso   1.00
C234   C     0.68150   0.26020   0.24140   0.01267  Uiso   1.00
C235   C     0.65690   0.24460   0.19670   0.01267  Uiso   1.00
C236   C     0.67550   0.24360   0.32710   0.01267  Uiso   1.00
C237   C     0.64700   0.24310   0.36790   0.01267  Uiso   1.00
C238   C     0.66720   0.24940   0.41310   0.01267  Uiso   1.00
C239   C     0.72480   0.26300   0.41630   0.01267  Uiso   1.00
C240   C     0.75370   0.26260   0.38160   0.01267  Uiso   1.00
C241   C     0.73100   0.25650   0.33750   0.01267  Uiso   1.00
C242   C     0.74620   0.26660   0.46710   0.01267  Uiso   1.00
C243   C     0.08600   0.94020   0.40940   0.01267  Uiso   1.00
C244   C     0.06320   0.93450   0.35980   0.01267  Uiso   1.00
C245   C     0.09710   0.93820   0.32020   0.01267  Uiso   1.00
C246   C     0.07380   0.92720   0.27540   0.01267  Uiso   1.00
C247   C     0.01520   0.91570   0.27080   0.01267  Uiso   1.00
C248   C     0.98350   0.91020   0.30790   0.01267  Uiso   1.00
C249   C     0.00860   0.92130   0.35230   0.01267  Uiso   1.00
C250   C     0.99290   0.90090   0.21990   0.01267  Uiso   1.00
C251   C     0.01960   0.92710   0.18180   0.01267  Uiso   1.00
C252   C     0.99990   0.91540   0.13500   0.01267  Uiso   1.00
C253   C     0.94600   0.86800   0.12860   0.01267  Uiso   1.00
C254   C     0.91200   0.83930   0.16970   0.01267  Uiso   1.00
C255   C     0.93720   0.85500   0.21770   0.01267  Uiso   1.00
C256   C     0.92280   0.85180   0.07960   0.01267  Uiso   1.00
C257   C     0.80790   0.19060   0.54890   0.01267  Uiso   1.00
C258   C     0.81730   0.14280   0.54430   0.01267  Uiso   1.00
C259   C     0.87250   0.15500   0.53490   0.01267  Uiso   1.00
C260   C     0.88480   0.11340   0.52500   0.01267  Uiso   1.00
C261   C     0.84500   0.05790   0.53390   0.01267  Uiso   1.00
C262   C     0.78960   0.04270   0.54820   0.01267  Uiso   1.00
C263   C     0.77620   0.08520   0.55340   0.01267  Uiso   1.00
C264   C     0.94060   0.12730   0.49640   0.01267  Uiso   1.00
C265   C     0.47480   0.52630   0.55550   0.01267  Uiso   1.00
C266   C     0.48380   0.47760   0.56520   0.01267  Uiso   1.00
C267   C     0.53710   0.48820   0.55980   0.01267  Uiso   1.00
C268   C     0.55030   0.44750   0.56870   0.01267  Uiso   1.00
C269   C     0.50850   0.39590   0.58140   0.01267  Uiso   1.00
C270   C     0.45460   0.38300   0.58930   0.01267  Uiso   1.00
C271   C     0.44540   0.42680   0.58270   0.01267  Uiso   1.00
C272   C     0.61230   0.45850   0.54020   0.01267  Uiso   1.00
C273   C     0.81660   0.40260   0.96450   0.01267  Uiso   1.00
C274   C     0.79880   0.41070   0.92240   0.01267  Uiso   1.00
C275   C     0.75570   0.41950   0.91280   0.01267  Uiso   1.00
C276   C     0.74020   0.42860   0.86820   0.01267  Uiso   1.00
C277   C     0.76900   0.42760   0.82790   0.01267  Uiso   1.00
C278   C     0.80980   0.41010   0.83660   0.01267  Uiso   1.00
C279   C     0.82590   0.40750   0.88340   0.01267  Uiso   1.00
C280   C     0.75340   0.43490   0.78300   0.01267  Uiso   1.00
C281   C     0.74190   0.47850   0.77260   0.01267  Uiso   1.00
C282   C     0.73300   0.49110   0.72440   0.01267  Uiso   1.00
C283   C     0.73600   0.46420   0.69000   0.01267  Uiso   1.00
C284   C     0.74900   0.42010   0.69460   0.01267  Uiso   1.00
C285   C     0.75650   0.40720   0.74150   0.01267  Uiso   1.00
C286   C     0.73290   0.48290   0.64110   0.01267  Uiso   1.00
C287   C     0.20880   0.48380   0.53790   0.01267  Uiso   1.00
C288   C     0.21890   0.43530   0.52140   0.01267  Uiso   1.00
C289   C     0.17650   0.38200   0.51660   0.01267  Uiso   1.00
C290   C     0.19250   0.34470   0.50520   0.01267  Uiso   1.00
C291   C     0.24560   0.35670   0.49700   0.01267  Uiso   1.00
C292   C     0.28640   0.41090   0.50120   0.01267  Uiso   1.00
C293   C     0.27300   0.44970   0.51520   0.01267  Uiso   1.00
C294   C     0.14310   0.28360   0.49610   0.01267  Uiso   1.00
C295   C     0.81300   0.39180   0.14180   0.01267  Uiso   1.00
C296   C     0.79440   0.40000   0.19020   0.01267  Uiso   1.00
C297   C     0.82290   0.39620   0.22760   0.01267  Uiso   1.00
C298   C     0.81100   0.40410   0.27470   0.01267  Uiso   1.00
C299   C     0.76870   0.41860   0.28090   0.01267  Uiso   1.00
C300   C     0.73980   0.42130   0.24140   0.01267  Uiso   1.00
C301   C     0.75540   0.41230   0.19670   0.01267  Uiso   1.00
C302   C     0.75640   0.43190   0.32710   0.01267  Uiso   1.00
C303   C     0.75690   0.40390   0.36790   0.01267  Uiso   1.00
C304   C     0.75060   0.41780   0.41310   0.01267  Uiso   1.00
C305   C     0.73700   0.46180   0.41630   0.01267  Uiso   1.00
C306   C     0.73740   0.49110   0.38160   0.01267  Uiso   1.00
C307   C     0.74350   0.47450   0.33750   0.01267  Uiso   1.00
C308   C     0.73340   0.47960   0.46710   0.01267  Uiso   1.00
C309   C     0.05980   0.14580   0.40940   0.01267  Uiso   1.00
C310   C     0.06550   0.12870   0.35980   0.01267  Uiso   1.00
C311   C     0.06180   0.15890   0.32020   0.01267  Uiso   1.00
C312   C     0.07280   0.14660   0.27540   0.01267  Uiso   1.00
C313   C     0.08430   0.09950   0.27080   0.01267  Uiso   1.00
C314   C     0.08980   0.07330   0.30790   0.01267  Uiso   1.00
C315   C     0.07870   0.08730   0.35230   0.01267  Uiso   1.00
C316   C     0.09910   0.09200   0.21990   0.01267  Uiso   1.00
C317   C     0.07290   0.09250   0.18180   0.01267  Uiso   1.00
C318   C     0.08460   0.08450   0.13500   0.01267  Uiso   1.00
C319   C     0.13200   0.07800   0.12860   0.01267  Uiso   1.00
C320   C     0.16070   0.07270   0.16970   0.01267  Uiso   1.00
C321   C     0.14500   0.08220   0.21770   0.01267  Uiso   1.00
C322   C     0.14820   0.07100   0.07960   0.01267  Uiso   1.00
C323   C     0.80940   0.61730   0.54890   0.01267  Uiso   1.00
C324   C     0.85720   0.67450   0.54430   0.01267  Uiso   1.00
C325   C     0.84500   0.71750   0.53490   0.01267  Uiso   1.00
C326   C     0.88660   0.77140   0.52500   0.01267  Uiso   1.00
C327   C     0.94210   0.78710   0.53390   0.01267  Uiso   1.00
C328   C     0.95730   0.74690   0.54820   0.01267  Uiso   1.00
C329   C     0.91480   0.69100   0.55340   0.01267  Uiso   1.00
C330   C     0.87270   0.81330   0.49640   0.01267  Uiso   1.00
C331   C     0.47370   0.94850   0.55550   0.01267  Uiso   1.00
C332   C     0.52240   0.00620   0.56520   0.01267  Uiso   1.00
C333   C     0.51180   0.04890   0.55980   0.01267  Uiso   1.00
C334   C     0.55250   0.10280   0.56870   0.01267  Uiso   1.00
C335   C     0.60410   0.11260   0.58140   0.01267  Uiso   1.00
C336   C     0.61700   0.07160   0.58930   0.01267  Uiso   1.00
C337   C     0.57320   0.01860   0.58270   0.01267  Uiso   1.00
C338   C     0.54150   0.15380   0.54020   0.01267  Uiso   1.00
C339   C     0.59740   0.41400   0.96450   0.01267  Uiso   1.00
C340   C     0.58930   0.38810   0.92240   0.01267  Uiso   1.00
C341   C     0.58050   0.33620   0.91280   0.01267  Uiso   1.00
C342   C     0.57140   0.31160   0.86820   0.01267  Uiso   1.00
C343   C     0.57240   0.34140   0.82790   0.01267  Uiso   1.00
C344   C     0.58990   0.39970   0.83660   0.01267  Uiso   1.00
C345   C     0.59250   0.41840   0.88340   0.01267  Uiso   1.00
C346   C     0.56510   0.31850   0.78300   0.01267  Uiso   1.00
C347   C     0.52150   0.26340   0.77260   0.01267  Uiso   1.00
C348   C     0.50890   0.24190   0.72440   0.01267  Uiso   1.00
C349   C     0.53580   0.27180   0.69000   0.01267  Uiso   1.00
C350   C     0.57990   0.32890   0.69460   0.01267  Uiso   1.00
C351   C     0.59280   0.34930   0.74150   0.01267  Uiso   1.00
C352   C     0.51710   0.25000   0.64110   0.01267  Uiso   1.00
C353   C     0.51620   0.72500   0.53790   0.01267  Uiso   1.00
C354   C     0.56470   0.78360   0.52140   0.01267  Uiso   1.00
C355   C     0.61800   0.79450   0.51660   0.01267  Uiso   1.00
C356   C     0.65530   0.84780   0.50520   0.01267  Uiso   1.00
C357   C     0.64330   0.88890   0.49700   0.01267  Uiso   1.00
C358   C     0.58910   0.87550   0.50120   0.01267  Uiso   1.00
C359   C     0.55030   0.82330   0.51520   0.01267  Uiso   1.00
C360   C     0.71640   0.85950   0.49610   0.01267  Uiso   1.00
C361   C     0.60820   0.42120   0.14180   0.01267  Uiso   1.00
C362   C     0.60000   0.39440   0.19020   0.01267  Uiso   1.00
C363   C     0.60380   0.42670   0.22760   0.01267  Uiso   1.00
C364   C     0.59590   0.40690   0.27470   0.01267  Uiso   1.00
C365   C     0.58140   0.35010   0.28090   0.01267  Uiso   1.00
C366   C     0.57870   0.31850   0.24140   0.01267  Uiso   1.00
C367   C     0.58770   0.34310   0.19670   0.01267  Uiso   1.00
C368   C     0.56810   0.32450   0.32710   0.01267  Uiso   1.00
C369   C     0.59610   0.35300   0.36790   0.01267  Uiso   1.00
C370   C     0.58220   0.33280   0.41310   0.01267  Uiso   1.00
C371   C     0.53820   0.27520   0.41630   0.01267  Uiso   1.00
C372   C     0.50890   0.24630   0.38160   0.01267  Uiso   1.00
C373   C     0.52550   0.26900   0.33750   0.01267  Uiso   1.00
C374   C     0.52040   0.25380   0.46710   0.01267  Uiso   1.00
C375   C     0.85420   0.91400   0.40940   0.01267  Uiso   1.00
C376   C     0.87130   0.93680   0.35980   0.01267  Uiso   1.00
C377   C     0.84110   0.90290   0.32020   0.01267  Uiso   1.00
C378   C     0.85340   0.92620   0.27540   0.01267  Uiso   1.00
C379   C     0.90050   0.98480   0.27080   0.01267  Uiso   1.00
C380   C     0.92670   0.01650   0.30790   0.01267  Uiso   1.00
C381   C     0.91270   0.99140   0.35230   0.01267  Uiso   1.00
C382   C     0.90800   0.00710   0.21990   0.01267  Uiso   1.00
C383   C     0.90750   0.98040   0.18180   0.01267  Uiso   1.00
C384   C     0.91550   0.00010   0.13500   0.01267  Uiso   1.00
C385   C     0.92200   0.05400   0.12860   0.01267  Uiso   1.00
C386   C     0.92730   0.08800   0.16970   0.01267  Uiso   1.00
C387   C     0.91780   0.06280   0.21770   0.01267  Uiso   1.00
C388   C     0.92900   0.07720   0.07960   0.01267  Uiso   1.00
C389   C     0.38270   0.19210   0.54890   0.01267  Uiso   1.00
C390   C     0.32550   0.18270   0.54430   0.01267  Uiso   1.00
C391   C     0.28250   0.12750   0.53490   0.01267  Uiso   1.00
C392   C     0.22860   0.11520   0.52500   0.01267  Uiso   1.00
C393   C     0.21290   0.15500   0.53390   0.01267  Uiso   1.00
C394   C     0.25310   0.21040   0.54820   0.01267  Uiso   1.00
C395   C     0.30900   0.22380   0.55340   0.01267  Uiso   1.00
C396   C     0.18670   0.05940   0.49640   0.01267  Uiso   1.00
N1     N     0.43070   0.34520   0.98360   0.01267  Uiso   1.00
N2     N     0.76480   0.01810   0.05610   0.01267  Uiso   1.00
N3     N     0.32720   0.42530   0.06090   0.01267  Uiso   1.00
N4     N     0.91450   0.56930   0.98360   0.01267  Uiso   1.00
N5     N     0.25330   0.23520   0.05610   0.01267  Uiso   1.00
N6     N     0.09810   0.67280   0.06090   0.01267  Uiso   1.00
N7     N     0.65480   0.08550   0.98360   0.01267  Uiso   1.00
N8     N     0.98190   0.74670   0.05610   0.01267  Uiso   1.00
N9     N     0.57470   0.90190   0.06090   0.01267  Uiso   1.00
N10    N     0.08550   0.65480   0.48360   0.01267  Uiso   1.00
N11    N     0.74670   0.98190   0.55610   0.01267  Uiso   1.00
N12    N     0.90190   0.57470   0.56090   0.01267  Uiso   1.00
N13    N     0.34520   0.43070   0.48360   0.01267  Uiso   1.00
N14    N     0.01810   0.76480   0.55610   0.01267  Uiso   1.00
N15    N     0.42530   0.32720   0.56090   0.01267  Uiso   1.00
N16    N     0.56930   0.91450   0.48360   0.01267  Uiso   1.00
N17    N     0.23520   0.25330   0.55610   0.01267  Uiso   1.00
N18    N     0.67280   0.09810   0.56090   0.01267  Uiso   1.00
O1     O     0.57360   0.51160   0.05750   0.01267  Uiso   1.00
O2     O     0.51820   0.42390   0.05970   0.01267  Uiso   1.00
O3     O     0.40400   0.78990   0.50460   0.01267  Uiso   1.00
O4     O     0.39510   0.85430   0.47580   0.01267  Uiso   1.00
O5     O     0.53090   0.23440   0.03930   0.01267  Uiso   1.00
O6     O     0.46380   0.15330   0.04850   0.01267  Uiso   1.00
O7     O     0.38230   0.85240   0.63370   0.01267  Uiso   1.00
O8     O     0.39420   0.78500   0.60790   0.01267  Uiso   1.00
O9     O     0.42950   0.62800   0.05220   0.01267  Uiso   1.00
O10    O     0.51270   0.64580   0.05050   0.01267  Uiso   1.00
O11    O     0.45670   0.73780   0.10510   0.01267  Uiso   1.00
O12    O     0.52490   0.72470   0.13470   0.01267  Uiso   1.00
O13    O     0.24170   0.15220   0.99350   0.01267  Uiso   1.00
O14    O     0.27260   0.09290   0.99640   0.01267  Uiso   1.00
O15    O     0.51650   0.72020   0.97590   0.01267  Uiso   1.00
O16    O     0.45660   0.73700   0.00510   0.01267  Uiso   1.00
O17    O     0.12050   0.06560   0.94310   0.01267  Uiso   1.00
O18    O     0.18600   0.05160   0.91430   0.01267  Uiso   1.00
O19    O     0.06970   0.12200   0.54590   0.01267  Uiso   1.00
O20    O     0.06530   0.19410   0.58040   0.01267  Uiso   1.00
O21    O     0.60470   0.75860   0.05280   0.01267  Uiso   1.00
O22    O     0.57590   0.82160   0.05430   0.01267  Uiso   1.00
O23    O     0.86260   0.90400   0.00180   0.01267  Uiso   1.00
O24    O     0.79900   0.82090   0.00160   0.01267  Uiso   1.00
O25    O     0.93800   0.42640   0.05750   0.01267  Uiso   1.00
O26    O     0.90570   0.48180   0.05970   0.01267  Uiso   1.00
O27    O     0.38590   0.59600   0.50460   0.01267  Uiso   1.00
O28    O     0.45920   0.60490   0.47580   0.01267  Uiso   1.00
O29    O     0.70350   0.46910   0.03930   0.01267  Uiso   1.00
O30    O     0.68950   0.53620   0.04850   0.01267  Uiso   1.00
O31    O     0.47010   0.61770   0.63370   0.01267  Uiso   1.00
O32    O     0.39080   0.60580   0.60790   0.01267  Uiso   1.00
O33    O     0.19850   0.57050   0.05220   0.01267  Uiso   1.00
O34    O     0.13310   0.48730   0.05050   0.01267  Uiso   1.00
O35    O     0.28110   0.54330   0.10510   0.01267  Uiso   1.00
O36    O     0.19980   0.47510   0.13470   0.01267  Uiso   1.00
O37    O     0.91050   0.75830   0.99350   0.01267  Uiso   1.00
O38    O     0.82030   0.72740   0.99640   0.01267  Uiso   1.00
O39    O     0.20370   0.48350   0.97590   0.01267  Uiso   1.00
O40    O     0.28040   0.54340   0.00510   0.01267  Uiso   1.00
O41    O     0.94510   0.87950   0.94310   0.01267  Uiso   1.00
O42    O     0.86560   0.81400   0.91430   0.01267  Uiso   1.00
O43    O     0.05230   0.93030   0.54590   0.01267  Uiso   1.00
O44    O     0.12880   0.93470   0.58040   0.01267  Uiso   1.00
O45    O     0.15390   0.39530   0.05280   0.01267  Uiso   1.00
O46    O     0.24570   0.42410   0.05430   0.01267  Uiso   1.00
O47    O     0.04140   0.13740   0.00180   0.01267  Uiso   1.00
O48    O     0.02190   0.20100   0.00160   0.01267  Uiso   1.00
O49    O     0.48840   0.06200   0.05750   0.01267  Uiso   1.00
O50    O     0.57610   0.09430   0.05970   0.01267  Uiso   1.00
O51    O     0.21010   0.61410   0.50460   0.01267  Uiso   1.00
O52    O     0.14570   0.54080   0.47580   0.01267  Uiso   1.00
O53    O     0.76560   0.29650   0.03930   0.01267  Uiso   1.00
O54    O     0.84670   0.31050   0.04850   0.01267  Uiso   1.00
O55    O     0.14760   0.52990   0.63370   0.01267  Uiso   1.00
O56    O     0.21500   0.60920   0.60790   0.01267  Uiso   1.00
O57    O     0.37200   0.80150   0.05220   0.01267  Uiso   1.00
O58    O     0.35420   0.86690   0.05050   0.01267  Uiso   1.00
O59    O     0.26220   0.71890   0.10510   0.01267  Uiso   1.00
O60    O     0.27530   0.80020   0.13470   0.01267  Uiso   1.00
O61    O     0.84780   0.08950   0.99350   0.01267  Uiso   1.00
O62    O     0.90710   0.17970   0.99640   0.01267  Uiso   1.00
O63    O     0.27980   0.79630   0.97590   0.01267  Uiso   1.00
O64    O     0.26300   0.71960   0.00510   0.01267  Uiso   1.00
O65    O     0.93440   0.05490   0.94310   0.01267  Uiso   1.00
O66    O     0.94840   0.13440   0.91430   0.01267  Uiso   1.00
O67    O     0.87800   0.94770   0.54590   0.01267  Uiso   1.00
O68    O     0.80590   0.87120   0.58040   0.01267  Uiso   1.00
O69    O     0.24140   0.84610   0.05280   0.01267  Uiso   1.00
O70    O     0.17840   0.75430   0.05430   0.01267  Uiso   1.00
O71    O     0.09600   0.95860   0.00180   0.01267  Uiso   1.00
O72    O     0.17910   0.97810   0.00160   0.01267  Uiso   1.00
O73    O     0.06200   0.48840   0.55750   0.01267  Uiso   1.00
O74    O     0.09430   0.57610   0.55970   0.01267  Uiso   1.00
O75    O     0.61410   0.21010   0.00460   0.01267  Uiso   1.00
O76    O     0.54080   0.14570   0.97580   0.01267  Uiso   1.00
O77    O     0.29650   0.76560   0.53930   0.01267  Uiso   1.00
O78    O     0.31050   0.84670   0.54850   0.01267  Uiso   1.00
O79    O     0.52990   0.14760   0.13370   0.01267  Uiso   1.00
O80    O     0.60920   0.21500   0.10790   0.01267  Uiso   1.00
O81    O     0.80150   0.37200   0.55220   0.01267  Uiso   1.00
O82    O     0.86690   0.35420   0.55050   0.01267  Uiso   1.00
O83    O     0.71890   0.26220   0.60510   0.01267  Uiso   1.00
O84    O     0.80020   0.27530   0.63470   0.01267  Uiso   1.00
O85    O     0.08950   0.84780   0.49350   0.01267  Uiso   1.00
O86    O     0.17970   0.90710   0.49640   0.01267  Uiso   1.00
O87    O     0.79630   0.27980   0.47590   0.01267  Uiso   1.00
O88    O     0.71960   0.26300   0.50510   0.01267  Uiso   1.00
O89    O     0.05490   0.93440   0.44310   0.01267  Uiso   1.00
O90    O     0.13440   0.94840   0.41430   0.01267  Uiso   1.00
O91    O     0.94770   0.87800   0.04590   0.01267  Uiso   1.00
O92    O     0.87120   0.80590   0.08040   0.01267  Uiso   1.00
O93    O     0.84610   0.24140   0.55280   0.01267  Uiso   1.00
O94    O     0.75430   0.17840   0.55430   0.01267  Uiso   1.00
O95    O     0.95860   0.09600   0.50180   0.01267  Uiso   1.00
O96    O     0.97810   0.17910   0.50160   0.01267  Uiso   1.00
O97    O     0.51160   0.57360   0.55750   0.01267  Uiso   1.00
O98    O     0.42390   0.51820   0.55970   0.01267  Uiso   1.00
O99    O     0.78990   0.40400   0.00460   0.01267  Uiso   1.00
O100   O     0.85430   0.39510   0.97580   0.01267  Uiso   1.00
O101   O     0.23440   0.53090   0.53930   0.01267  Uiso   1.00
O102   O     0.15330   0.46380   0.54850   0.01267  Uiso   1.00
O103   O     0.85240   0.38230   0.13370   0.01267  Uiso   1.00
O104   O     0.78500   0.39420   0.10790   0.01267  Uiso   1.00
O105   O     0.62800   0.42950   0.55220   0.01267  Uiso   1.00
O106   O     0.64580   0.51270   0.55050   0.01267  Uiso   1.00
O107   O     0.73780   0.45670   0.60510   0.01267  Uiso   1.00
O108   O     0.72470   0.52490   0.63470   0.01267  Uiso   1.00
O109   O     0.15220   0.24170   0.49350   0.01267  Uiso   1.00
O110   O     0.09290   0.27260   0.49640   0.01267  Uiso   1.00
O111   O     0.72020   0.51650   0.47590   0.01267  Uiso   1.00
O112   O     0.73700   0.45660   0.50510   0.01267  Uiso   1.00
O113   O     0.06560   0.12050   0.44310   0.01267  Uiso   1.00
O114   O     0.05160   0.18600   0.41430   0.01267  Uiso   1.00
O115   O     0.12200   0.06970   0.04590   0.01267  Uiso   1.00
O116   O     0.19410   0.06530   0.08040   0.01267  Uiso   1.00
O117   O     0.75860   0.60470   0.55280   0.01267  Uiso   1.00
O118   O     0.82160   0.57590   0.55430   0.01267  Uiso   1.00
O119   O     0.90400   0.86260   0.50180   0.01267  Uiso   1.00
O120   O     0.82090   0.79900   0.50160   0.01267  Uiso   1.00
O121   O     0.42640   0.93800   0.55750   0.01267  Uiso   1.00
O122   O     0.48180   0.90570   0.55970   0.01267  Uiso   1.00
O123   O     0.59600   0.38590   0.00460   0.01267  Uiso   1.00
O124   O     0.60490   0.45920   0.97580   0.01267  Uiso   1.00
O125   O     0.46910   0.70350   0.53930   0.01267  Uiso   1.00
O126   O     0.53620   0.68950   0.54850   0.01267  Uiso   1.00
O127   O     0.61770   0.47010   0.13370   0.01267  Uiso   1.00
O128   O     0.60580   0.39080   0.10790   0.01267  Uiso   1.00
O129   O     0.57050   0.19850   0.55220   0.01267  Uiso   1.00
O130   O     0.48730   0.13310   0.55050   0.01267  Uiso   1.00
O131   O     0.54330   0.28110   0.60510   0.01267  Uiso   1.00
O132   O     0.47510   0.19980   0.63470   0.01267  Uiso   1.00
O133   O     0.75830   0.91050   0.49350   0.01267  Uiso   1.00
O134   O     0.72740   0.82030   0.49640   0.01267  Uiso   1.00
O135   O     0.48350   0.20370   0.47590   0.01267  Uiso   1.00
O136   O     0.54340   0.28040   0.50510   0.01267  Uiso   1.00
O137   O     0.87950   0.94510   0.44310   0.01267  Uiso   1.00
O138   O     0.81400   0.86560   0.41430   0.01267  Uiso   1.00
O139   O     0.93030   0.05230   0.04590   0.01267  Uiso   1.00
O140   O     0.93470   0.12880   0.08040   0.01267  Uiso   1.00
O141   O     0.39530   0.15390   0.55280   0.01267  Uiso   1.00
O142   O     0.42410   0.24570   0.55430   0.01267  Uiso   1.00
O143   O     0.13740   0.04140   0.50180   0.01267  Uiso   1.00
O144   O     0.20100   0.02190   0.50160   0.01267  Uiso   1.00
