data_image0
_cell_length_a       30.585
_cell_length_b       30.585
_cell_length_c       27.348
_cell_angle_alpha    90
_cell_angle_beta     90
_cell_angle_gamma    90

_symmetry_space_group_name_H-M    "P 1"
_symmetry_int_tables_number       1

loop_
  _symmetry_equiv_pos_as_xyz
  'x, y, z'

loop_
  _atom_site_label
  _atom_site_occupancy
  _atom_site_fract_x
  _atom_site_fract_y
  _atom_site_fract_z
  _atom_site_thermal_displace_type
  _atom_site_B_iso_or_equiv
  _atom_site_type_symbol
  Nb1      1.0000 0.04054  0.99010  0.80646  Biso   1.000  Nb
  Nb2      1.0000 0.04113  0.99012  0.69930  Biso   1.000  Nb
  Nb3      1.0000 0.98069  0.93278  0.75251  Biso   1.000  Nb
  Nb4      1.0000 0.94700  0.00916  0.80588  Biso   1.000  Nb
  Nb5      1.0000 0.94739  0.00901  0.69870  Biso   1.000  Nb
  Nb6      1.0000 0.00743  0.06633  0.75254  Biso   1.000  Nb
  Cl1      1.0000 0.03291  0.91028  0.81600  Biso   1.000  Cl
  Cl2      1.0000 0.99338  0.99952  0.87885  Biso   1.000  Cl
  Cl3      1.0000 0.10461  0.97778  0.75344  Biso   1.000  Cl
  Cl4      1.0000 0.06469  0.06662  0.81624  Biso   1.000  Cl
  Cl5      1.0000 0.03377  0.91055  0.68975  Biso   1.000  Cl
  Cl6      1.0000 0.99461  0.99954  0.62648  Biso   1.000  Cl
  Cl7      1.0000 0.06551  0.06666  0.68976  Biso   1.000  Cl
  Cl8      1.0000 0.92260  0.93247  0.81530  Biso   1.000  Cl
  Cl9      1.0000 0.92334  0.93239  0.68924  Biso   1.000  Cl
  Cl10     1.0000 0.88370  0.02140  0.75208  Biso   1.000  Cl
  Cl11     1.0000 0.95429  0.08925  0.81519  Biso   1.000  Cl
  Cl12     1.0000 0.95467  0.08897  0.68914  Biso   1.000  Cl
  N1       1.0000 0.11562  0.96749  0.89528  Biso   1.000  N
  N2       1.0000 0.11954  0.97074  0.61336  Biso   1.000  N
  N3       1.0000 0.96749  0.82076  0.75120  Biso   1.000  N
  N4       1.0000 0.87015  0.03100  0.89337  Biso   1.000  N
  N5       1.0000 0.86942  0.02771  0.61216  Biso   1.000  N
  N6       1.0000 0.02371  0.17753  0.75150  Biso   1.000  N
  N7       1.0000 0.03939  0.77021  0.80087  Biso   1.000  N
  N8       1.0000 0.03908  0.77111  0.69996  Biso   1.000  N
  C1       1.0000 0.09109  0.97726  0.86575  Biso   1.000  C
  C2       1.0000 0.09338  0.97819  0.64179  Biso   1.000  C
  C3       1.0000 0.96911  0.85843  0.75203  Biso   1.000  C
  C4       1.0000 0.89543  0.02188  0.86448  Biso   1.000  C
  C5       1.0000 0.89562  0.01998  0.64060  Biso   1.000  C
  C6       1.0000 0.02017  0.14027  0.75211  Biso   1.000  C
  C7       1.0000 0.97690  0.24550  0.64990  Biso   1.000  C
  C8       1.0000 0.91945  0.21912  0.70547  Biso   1.000  C
  C9       1.0000 0.89410  0.20890  0.66018  Biso   1.000  C
  H1       1.0000 0.91200  0.21560  0.63140  Biso   1.000  H
  H2       1.0000 0.86740  0.22660  0.65950  Biso   1.000  H
  H3       1.0000 0.88630  0.17780  0.66000  Biso   1.000  H
  C10      1.0000 0.90078  0.21191  0.75113  Biso   1.000  C
  H4       1.0000 0.87150  0.20170  0.75140  Biso   1.000  H
  C11      1.0000 0.98270  0.23200  0.85130  Biso   1.000  C
  C12      1.0000 0.92028  0.21804  0.79630  Biso   1.000  C
  C13      1.0000 0.89550  0.20540  0.84174  Biso   1.000  C
  H5       1.0000 0.86690  0.19340  0.83260  Biso   1.000  H
  H6       1.0000 0.89140  0.23120  0.86240  Biso   1.000  H
  H7       1.0000 0.91210  0.18320  0.85980  Biso   1.000  H
  C14      1.0000 0.09376  0.81522  0.66003  Biso   1.000  C
  H8       1.0000 0.08050  0.80200  0.63090  Biso   1.000  H
  H9       1.0000 0.12470  0.80710  0.66170  Biso   1.000  H
  H10      1.0000 0.09110  0.84710  0.65810  Biso   1.000  H
  C15      1.0000 0.07055  0.79895  0.70505  Biso   1.000  C
  C16      1.0000 0.08470  0.81366  0.75082  Biso   1.000  C
  H11      1.0000 0.10580  0.83650  0.75100  Biso   1.000  H
  C17      1.0000 0.00260  0.22570  0.10040  Biso   1.000  C
  C18      1.0000 0.07105  0.79835  0.79574  Biso   1.000  C
  C19      1.0000 0.09393  0.81311  0.84166  Biso   1.000  C
  H12      1.0000 0.11700  0.83410  0.83320  Biso   1.000  H
  H13      1.0000 0.10690  0.78780  0.85810  Biso   1.000  H
  H14      1.0000 0.07280  0.82710  0.86360  Biso   1.000  H
  C20      1.0000 0.02500  0.75200  0.65040  Biso   1.000  C
  O1       1.0000 0.95864  0.23463  0.69978  Biso   1.000  O
  O2       1.0000 0.95863  0.23431  0.80149  Biso   1.000  O
  O3       1.0000 0.02021  0.21061  0.05087  Biso   1.000  O
  O4       1.0000 0.02111  0.21092  0.94996  Biso   1.000  O
  Nb7      1.0000 0.54054  0.49010  0.30646  Biso   1.000  Nb
  Nb8      1.0000 0.54113  0.49012  0.19930  Biso   1.000  Nb
  Nb9      1.0000 0.48069  0.43278  0.25251  Biso   1.000  Nb
  Nb10     1.0000 0.44700  0.50916  0.30588  Biso   1.000  Nb
  Nb11     1.0000 0.44739  0.50901  0.19870  Biso   1.000  Nb
  Nb12     1.0000 0.50743  0.56633  0.25254  Biso   1.000  Nb
  Cl13     1.0000 0.53291  0.41028  0.31600  Biso   1.000  Cl
  Cl14     1.0000 0.49338  0.49952  0.37885  Biso   1.000  Cl
  Cl15     1.0000 0.60461  0.47778  0.25344  Biso   1.000  Cl
  Cl16     1.0000 0.56469  0.56662  0.31624  Biso   1.000  Cl
  Cl17     1.0000 0.53377  0.41055  0.18975  Biso   1.000  Cl
  Cl18     1.0000 0.49461  0.49954  0.12648  Biso   1.000  Cl
  Cl19     1.0000 0.56551  0.56666  0.18976  Biso   1.000  Cl
  Cl20     1.0000 0.42260  0.43247  0.31530  Biso   1.000  Cl
  Cl21     1.0000 0.42334  0.43239  0.18924  Biso   1.000  Cl
  Cl22     1.0000 0.38370  0.52140  0.25208  Biso   1.000  Cl
  Cl23     1.0000 0.45429  0.58925  0.31519  Biso   1.000  Cl
  Cl24     1.0000 0.45467  0.58897  0.18914  Biso   1.000  Cl
  N9       1.0000 0.61562  0.46749  0.39528  Biso   1.000  N
  N10      1.0000 0.61954  0.47074  0.11336  Biso   1.000  N
  N11      1.0000 0.46749  0.32076  0.25120  Biso   1.000  N
  N12      1.0000 0.37015  0.53100  0.39337  Biso   1.000  N
  N13      1.0000 0.36942  0.52771  0.11216  Biso   1.000  N
  N14      1.0000 0.52371  0.67753  0.25150  Biso   1.000  N
  N15      1.0000 0.53939  0.27021  0.30087  Biso   1.000  N
  N16      1.0000 0.53908  0.27111  0.19996  Biso   1.000  N
  C21      1.0000 0.59109  0.47726  0.36575  Biso   1.000  C
  C22      1.0000 0.59338  0.47819  0.14179  Biso   1.000  C
  C23      1.0000 0.46911  0.35843  0.25203  Biso   1.000  C
  C24      1.0000 0.39543  0.52188  0.36448  Biso   1.000  C
  C25      1.0000 0.39562  0.51998  0.14060  Biso   1.000  C
  C26      1.0000 0.52017  0.64027  0.25211  Biso   1.000  C
  C27      1.0000 0.47690  0.74550  0.14990  Biso   1.000  C
  C28      1.0000 0.41945  0.71912  0.20547  Biso   1.000  C
  C29      1.0000 0.39410  0.70890  0.16018  Biso   1.000  C
  H15      1.0000 0.41200  0.71560  0.13140  Biso   1.000  H
  H16      1.0000 0.36740  0.72660  0.15950  Biso   1.000  H
  H17      1.0000 0.38630  0.67780  0.16000  Biso   1.000  H
  C30      1.0000 0.40078  0.71191  0.25113  Biso   1.000  C
  H18      1.0000 0.37150  0.70170  0.25140  Biso   1.000  H
  C31      1.0000 0.48270  0.73200  0.35130  Biso   1.000  C
  C32      1.0000 0.42028  0.71804  0.29630  Biso   1.000  C
  C33      1.0000 0.39550  0.70540  0.34174  Biso   1.000  C
  H19      1.0000 0.36690  0.69340  0.33260  Biso   1.000  H
  H20      1.0000 0.39140  0.73120  0.36240  Biso   1.000  H
  H21      1.0000 0.41210  0.68320  0.35980  Biso   1.000  H
  C34      1.0000 0.59376  0.31522  0.16003  Biso   1.000  C
  H22      1.0000 0.58050  0.30200  0.13090  Biso   1.000  H
  H23      1.0000 0.62470  0.30710  0.16170  Biso   1.000  H
  H24      1.0000 0.59110  0.34710  0.15810  Biso   1.000  H
  C35      1.0000 0.57055  0.29895  0.20505  Biso   1.000  C
  C36      1.0000 0.58470  0.31366  0.25082  Biso   1.000  C
  H25      1.0000 0.60580  0.33650  0.25100  Biso   1.000  H
  C37      1.0000 0.50260  0.72570  0.60040  Biso   1.000  C
  C38      1.0000 0.57105  0.29835  0.29574  Biso   1.000  C
  C39      1.0000 0.59393  0.31311  0.34166  Biso   1.000  C
  H26      1.0000 0.61700  0.33410  0.33320  Biso   1.000  H
  H27      1.0000 0.60690  0.28780  0.35810  Biso   1.000  H
  H28      1.0000 0.57280  0.32710  0.36360  Biso   1.000  H
  C40      1.0000 0.52500  0.25200  0.15040  Biso   1.000  C
  O5       1.0000 0.45864  0.73463  0.19978  Biso   1.000  O
  O6       1.0000 0.45863  0.73431  0.30149  Biso   1.000  O
  O7       1.0000 0.52021  0.71061  0.55087  Biso   1.000  O
  O8       1.0000 0.52111  0.71092  0.44996  Biso   1.000  O
  Nb13     1.0000 0.45946  0.00990  0.30646  Biso   1.000  Nb
  Nb14     1.0000 0.45887  0.00988  0.19930  Biso   1.000  Nb
  Nb15     1.0000 0.51931  0.06722  0.25251  Biso   1.000  Nb
  Nb16     1.0000 0.55300  0.99084  0.30588  Biso   1.000  Nb
  Nb17     1.0000 0.55261  0.99099  0.19870  Biso   1.000  Nb
  Nb18     1.0000 0.49257  0.93367  0.25254  Biso   1.000  Nb
  Cl25     1.0000 0.46709  0.08972  0.31600  Biso   1.000  Cl
  Cl26     1.0000 0.50662  0.00048  0.37885  Biso   1.000  Cl
  Cl27     1.0000 0.39539  0.02222  0.25344  Biso   1.000  Cl
  Cl28     1.0000 0.43531  0.93338  0.31624  Biso   1.000  Cl
  Cl29     1.0000 0.46623  0.08945  0.18975  Biso   1.000  Cl
  Cl30     1.0000 0.50539  0.00046  0.12648  Biso   1.000  Cl
  Cl31     1.0000 0.43449  0.93334  0.18976  Biso   1.000  Cl
  Cl32     1.0000 0.57740  0.06753  0.31530  Biso   1.000  Cl
  Cl33     1.0000 0.57666  0.06761  0.18924  Biso   1.000  Cl
  Cl34     1.0000 0.61630  0.97860  0.25208  Biso   1.000  Cl
  Cl35     1.0000 0.54571  0.91075  0.31519  Biso   1.000  Cl
  Cl36     1.0000 0.54533  0.91103  0.18914  Biso   1.000  Cl
  N17      1.0000 0.38438  0.03251  0.39528  Biso   1.000  N
  N18      1.0000 0.38046  0.02926  0.11336  Biso   1.000  N
  N19      1.0000 0.53251  0.17924  0.25120  Biso   1.000  N
  N20      1.0000 0.62985  0.96900  0.39337  Biso   1.000  N
  N21      1.0000 0.63058  0.97229  0.11216  Biso   1.000  N
  N22      1.0000 0.47629  0.82247  0.25150  Biso   1.000  N
  N23      1.0000 0.46061  0.22979  0.30087  Biso   1.000  N
  N24      1.0000 0.46092  0.22889  0.19996  Biso   1.000  N
  C41      1.0000 0.40891  0.02274  0.36575  Biso   1.000  C
  C42      1.0000 0.40662  0.02181  0.14179  Biso   1.000  C
  C43      1.0000 0.53089  0.14157  0.25203  Biso   1.000  C
  C44      1.0000 0.60457  0.97812  0.36448  Biso   1.000  C
  C45      1.0000 0.60438  0.98002  0.14060  Biso   1.000  C
  C46      1.0000 0.47983  0.85973  0.25211  Biso   1.000  C
  C47      1.0000 0.52310  0.75450  0.14990  Biso   1.000  C
  C48      1.0000 0.58055  0.78088  0.20547  Biso   1.000  C
  C49      1.0000 0.60590  0.79110  0.16018  Biso   1.000  C
  H29      1.0000 0.58800  0.78440  0.13140  Biso   1.000  H
  H30      1.0000 0.63260  0.77340  0.15950  Biso   1.000  H
  H31      1.0000 0.61370  0.82220  0.16000  Biso   1.000  H
  C50      1.0000 0.59922  0.78809  0.25113  Biso   1.000  C
  H32      1.0000 0.62850  0.79830  0.25140  Biso   1.000  H
  C51      1.0000 0.51730  0.76800  0.35130  Biso   1.000  C
  C52      1.0000 0.57972  0.78196  0.29630  Biso   1.000  C
  C53      1.0000 0.60450  0.79460  0.34174  Biso   1.000  C
  H33      1.0000 0.63310  0.80660  0.33260  Biso   1.000  H
  H34      1.0000 0.60860  0.76880  0.36240  Biso   1.000  H
  H35      1.0000 0.58790  0.81680  0.35980  Biso   1.000  H
  C54      1.0000 0.40624  0.18478  0.16003  Biso   1.000  C
  H36      1.0000 0.41950  0.19800  0.13090  Biso   1.000  H
  H37      1.0000 0.37530  0.19290  0.16170  Biso   1.000  H
  H38      1.0000 0.40890  0.15290  0.15810  Biso   1.000  H
  C55      1.0000 0.42945  0.20105  0.20505  Biso   1.000  C
  C56      1.0000 0.41530  0.18634  0.25082  Biso   1.000  C
  H39      1.0000 0.39420  0.16350  0.25100  Biso   1.000  H
  C57      1.0000 0.49740  0.77430  0.60040  Biso   1.000  C
  C58      1.0000 0.42895  0.20165  0.29574  Biso   1.000  C
  C59      1.0000 0.40607  0.18689  0.34166  Biso   1.000  C
  H40      1.0000 0.38300  0.16590  0.33320  Biso   1.000  H
  H41      1.0000 0.39310  0.21220  0.35810  Biso   1.000  H
  H42      1.0000 0.42720  0.17290  0.36360  Biso   1.000  H
  C60      1.0000 0.47500  0.24800  0.15040  Biso   1.000  C
  O9       1.0000 0.54136  0.76537  0.19978  Biso   1.000  O
  O10      1.0000 0.54137  0.76569  0.30149  Biso   1.000  O
  O11      1.0000 0.47979  0.78939  0.55087  Biso   1.000  O
  O12      1.0000 0.47889  0.78908  0.44996  Biso   1.000  O
  Nb19     1.0000 0.95946  0.50990  0.80646  Biso   1.000  Nb
  Nb20     1.0000 0.95887  0.50988  0.69930  Biso   1.000  Nb
  Nb21     1.0000 0.01931  0.56722  0.75251  Biso   1.000  Nb
  Nb22     1.0000 0.05300  0.49084  0.80588  Biso   1.000  Nb
  Nb23     1.0000 0.05261  0.49099  0.69870  Biso   1.000  Nb
  Nb24     1.0000 0.99257  0.43367  0.75254  Biso   1.000  Nb
  Cl37     1.0000 0.96709  0.58972  0.81600  Biso   1.000  Cl
  Cl38     1.0000 0.00662  0.50048  0.87885  Biso   1.000  Cl
  Cl39     1.0000 0.89539  0.52222  0.75344  Biso   1.000  Cl
  Cl40     1.0000 0.93531  0.43338  0.81624  Biso   1.000  Cl
  Cl41     1.0000 0.96623  0.58945  0.68975  Biso   1.000  Cl
  Cl42     1.0000 0.00539  0.50046  0.62648  Biso   1.000  Cl
  Cl43     1.0000 0.93449  0.43334  0.68976  Biso   1.000  Cl
  Cl44     1.0000 0.07740  0.56753  0.81530  Biso   1.000  Cl
  Cl45     1.0000 0.07666  0.56761  0.68924  Biso   1.000  Cl
  Cl46     1.0000 0.11630  0.47860  0.75208  Biso   1.000  Cl
  Cl47     1.0000 0.04571  0.41075  0.81519  Biso   1.000  Cl
  Cl48     1.0000 0.04533  0.41103  0.68914  Biso   1.000  Cl
  N25      1.0000 0.88438  0.53251  0.89528  Biso   1.000  N
  N26      1.0000 0.88046  0.52926  0.61336  Biso   1.000  N
  N27      1.0000 0.03251  0.67924  0.75120  Biso   1.000  N
  N28      1.0000 0.12985  0.46900  0.89337  Biso   1.000  N
  N29      1.0000 0.13058  0.47229  0.61216  Biso   1.000  N
  N30      1.0000 0.97629  0.32247  0.75150  Biso   1.000  N
  N31      1.0000 0.96061  0.72979  0.80087  Biso   1.000  N
  N32      1.0000 0.96092  0.72889  0.69996  Biso   1.000  N
  C61      1.0000 0.90891  0.52274  0.86575  Biso   1.000  C
  C62      1.0000 0.90662  0.52181  0.64179  Biso   1.000  C
  C63      1.0000 0.03089  0.64157  0.75203  Biso   1.000  C
  C64      1.0000 0.10457  0.47812  0.86448  Biso   1.000  C
  C65      1.0000 0.10438  0.48002  0.64060  Biso   1.000  C
  C66      1.0000 0.97983  0.35973  0.75211  Biso   1.000  C
  C67      1.0000 0.02310  0.25450  0.64990  Biso   1.000  C
  C68      1.0000 0.08055  0.28088  0.70547  Biso   1.000  C
  C69      1.0000 0.10590  0.29110  0.66018  Biso   1.000  C
  H43      1.0000 0.08800  0.28440  0.63140  Biso   1.000  H
  H44      1.0000 0.13260  0.27340  0.65950  Biso   1.000  H
  H45      1.0000 0.11370  0.32220  0.66000  Biso   1.000  H
  C70      1.0000 0.09922  0.28809  0.75113  Biso   1.000  C
  H46      1.0000 0.12850  0.29830  0.75140  Biso   1.000  H
  C71      1.0000 0.01730  0.26800  0.85130  Biso   1.000  C
  C72      1.0000 0.07972  0.28196  0.79630  Biso   1.000  C
  C73      1.0000 0.10450  0.29460  0.84174  Biso   1.000  C
  H47      1.0000 0.13310  0.30660  0.83260  Biso   1.000  H
  H48      1.0000 0.10860  0.26880  0.86240  Biso   1.000  H
  H49      1.0000 0.08790  0.31680  0.85980  Biso   1.000  H
  C74      1.0000 0.90624  0.68478  0.66003  Biso   1.000  C
  H50      1.0000 0.91950  0.69800  0.63090  Biso   1.000  H
  H51      1.0000 0.87530  0.69290  0.66170  Biso   1.000  H
  H52      1.0000 0.90890  0.65290  0.65810  Biso   1.000  H
  C75      1.0000 0.92945  0.70105  0.70505  Biso   1.000  C
  C76      1.0000 0.91530  0.68634  0.75082  Biso   1.000  C
  H53      1.0000 0.89420  0.66350  0.75100  Biso   1.000  H
  C77      1.0000 0.99740  0.27430  0.10040  Biso   1.000  C
  C78      1.0000 0.92895  0.70165  0.79574  Biso   1.000  C
  C79      1.0000 0.90607  0.68689  0.84166  Biso   1.000  C
  H54      1.0000 0.88300  0.66590  0.83320  Biso   1.000  H
  H55      1.0000 0.89310  0.71220  0.85810  Biso   1.000  H
  H56      1.0000 0.92720  0.67290  0.86360  Biso   1.000  H
  C80      1.0000 0.97500  0.74800  0.65040  Biso   1.000  C
  O13      1.0000 0.04136  0.26537  0.69978  Biso   1.000  O
  O14      1.0000 0.04137  0.26569  0.80149  Biso   1.000  O
  O15      1.0000 0.97979  0.28939  0.05087  Biso   1.000  O
  O16      1.0000 0.97889  0.28908  0.94996  Biso   1.000  O
  Nb25     1.0000 0.75990  0.29054  0.05646  Biso   1.000  Nb
  Nb26     1.0000 0.75988  0.29113  0.94930  Biso   1.000  Nb
  Nb27     1.0000 0.81722  0.23069  0.00251  Biso   1.000  Nb
  Nb28     1.0000 0.74084  0.19700  0.05588  Biso   1.000  Nb
  Nb29     1.0000 0.74099  0.19739  0.94870  Biso   1.000  Nb
  Nb30     1.0000 0.68367  0.25743  0.00254  Biso   1.000  Nb
  Cl49     1.0000 0.83972  0.28291  0.06600  Biso   1.000  Cl
  Cl50     1.0000 0.75048  0.24338  0.12885  Biso   1.000  Cl
  Cl51     1.0000 0.77222  0.35461  0.00344  Biso   1.000  Cl
  Cl52     1.0000 0.68338  0.31469  0.06624  Biso   1.000  Cl
  Cl53     1.0000 0.83945  0.28377  0.93975  Biso   1.000  Cl
  Cl54     1.0000 0.75046  0.24461  0.87648  Biso   1.000  Cl
  Cl55     1.0000 0.68334  0.31551  0.93976  Biso   1.000  Cl
  Cl56     1.0000 0.81753  0.17260  0.06530  Biso   1.000  Cl
  Cl57     1.0000 0.81761  0.17334  0.93924  Biso   1.000  Cl
  Cl58     1.0000 0.72860  0.13370  0.00208  Biso   1.000  Cl
  Cl59     1.0000 0.66075  0.20429  0.06519  Biso   1.000  Cl
  Cl60     1.0000 0.66103  0.20467  0.93914  Biso   1.000  Cl
  N33      1.0000 0.78251  0.36562  0.14528  Biso   1.000  N
  N34      1.0000 0.77926  0.36954  0.86336  Biso   1.000  N
  N35      1.0000 0.92924  0.21749  0.00120  Biso   1.000  N
  N36      1.0000 0.71900  0.12015  0.14337  Biso   1.000  N
  N37      1.0000 0.72229  0.11942  0.86216  Biso   1.000  N
  N38      1.0000 0.57247  0.27371  0.00150  Biso   1.000  N
  C81      1.0000 0.77274  0.34109  0.11575  Biso   1.000  C
  C82      1.0000 0.77181  0.34338  0.89179  Biso   1.000  C
  C83      1.0000 0.89157  0.21911  0.00203  Biso   1.000  C
  C84      1.0000 0.72812  0.14543  0.11448  Biso   1.000  C
  C85      1.0000 0.73002  0.14562  0.89060  Biso   1.000  C
  C86      1.0000 0.60973  0.27017  0.00211  Biso   1.000  C
  C87      1.0000 0.50450  0.22690  0.89990  Biso   1.000  C
  C88      1.0000 0.53088  0.16945  0.95547  Biso   1.000  C
  C89      1.0000 0.54110  0.14410  0.91018  Biso   1.000  C
  H57      1.0000 0.53440  0.16200  0.88140  Biso   1.000  H
  H58      1.0000 0.52340  0.11740  0.90950  Biso   1.000  H
  H59      1.0000 0.57220  0.13630  0.91000  Biso   1.000  H
  C90      1.0000 0.53809  0.15078  0.00113  Biso   1.000  C
  H60      1.0000 0.54830  0.12150  0.00140  Biso   1.000  H
  C91      1.0000 0.51800  0.23270  0.10130  Biso   1.000  C
  C92      1.0000 0.53196  0.17028  0.04630  Biso   1.000  C
  C93      1.0000 0.54460  0.14550  0.09174  Biso   1.000  C
  H61      1.0000 0.55660  0.11690  0.08260  Biso   1.000  H
  H62      1.0000 0.51880  0.14140  0.11240  Biso   1.000  H
  H63      1.0000 0.56680  0.16210  0.10980  Biso   1.000  H
  C94      1.0000 0.93478  0.34376  0.91003  Biso   1.000  C
  H64      1.0000 0.94800  0.33050  0.88090  Biso   1.000  H
  H65      1.0000 0.94290  0.37470  0.91170  Biso   1.000  H
  H66      1.0000 0.90290  0.34110  0.90810  Biso   1.000  H
  C95      1.0000 0.95105  0.32055  0.95505  Biso   1.000  C
  C96      1.0000 0.93634  0.33470  0.00082  Biso   1.000  C
  H67      1.0000 0.91350  0.35580  0.00100  Biso   1.000  H
  C97      1.0000 0.52430  0.25260  0.35040  Biso   1.000  C
  C98      1.0000 0.95165  0.32105  0.04574  Biso   1.000  C
  C99      1.0000 0.93689  0.34393  0.09166  Biso   1.000  C
  H68      1.0000 0.91590  0.36700  0.08320  Biso   1.000  H
  H69      1.0000 0.96220  0.35690  0.10810  Biso   1.000  H
  H70      1.0000 0.92290  0.32280  0.11360  Biso   1.000  H
  C100     1.0000 0.99800  0.27500  0.90040  Biso   1.000  C
  O17      1.0000 0.51537  0.20864  0.94978  Biso   1.000  O
  O18      1.0000 0.51569  0.20863  0.05149  Biso   1.000  O
  Nb31     1.0000 0.25990  0.79054  0.55646  Biso   1.000  Nb
  Nb32     1.0000 0.25988  0.79113  0.44930  Biso   1.000  Nb
  Nb33     1.0000 0.31722  0.73069  0.50251  Biso   1.000  Nb
  Nb34     1.0000 0.24084  0.69700  0.55588  Biso   1.000  Nb
  Nb35     1.0000 0.24099  0.69739  0.44870  Biso   1.000  Nb
  Nb36     1.0000 0.18367  0.75743  0.50254  Biso   1.000  Nb
  Cl61     1.0000 0.33972  0.78291  0.56600  Biso   1.000  Cl
  Cl62     1.0000 0.25048  0.74338  0.62885  Biso   1.000  Cl
  Cl63     1.0000 0.27222  0.85461  0.50344  Biso   1.000  Cl
  Cl64     1.0000 0.18338  0.81469  0.56624  Biso   1.000  Cl
  Cl65     1.0000 0.33945  0.78377  0.43975  Biso   1.000  Cl
  Cl66     1.0000 0.25046  0.74461  0.37648  Biso   1.000  Cl
  Cl67     1.0000 0.18334  0.81551  0.43976  Biso   1.000  Cl
  Cl68     1.0000 0.31753  0.67260  0.56530  Biso   1.000  Cl
  Cl69     1.0000 0.31761  0.67334  0.43924  Biso   1.000  Cl
  Cl70     1.0000 0.22860  0.63370  0.50208  Biso   1.000  Cl
  Cl71     1.0000 0.16075  0.70429  0.56519  Biso   1.000  Cl
  Cl72     1.0000 0.16103  0.70467  0.43914  Biso   1.000  Cl
  N39      1.0000 0.28251  0.86562  0.64528  Biso   1.000  N
  N40      1.0000 0.27926  0.86954  0.36336  Biso   1.000  N
  N41      1.0000 0.42924  0.71749  0.50120  Biso   1.000  N
  N42      1.0000 0.21900  0.62015  0.64337  Biso   1.000  N
  N43      1.0000 0.22229  0.61942  0.36216  Biso   1.000  N
  N44      1.0000 0.07247  0.77371  0.50150  Biso   1.000  N
  C101     1.0000 0.27274  0.84109  0.61575  Biso   1.000  C
  C102     1.0000 0.27181  0.84338  0.39179  Biso   1.000  C
  C103     1.0000 0.39157  0.71911  0.50203  Biso   1.000  C
  C104     1.0000 0.22812  0.64543  0.61448  Biso   1.000  C
  C105     1.0000 0.23002  0.64562  0.39060  Biso   1.000  C
  C106     1.0000 0.10973  0.77017  0.50211  Biso   1.000  C
  C107     1.0000 0.00450  0.72690  0.39990  Biso   1.000  C
  C108     1.0000 0.03088  0.66945  0.45547  Biso   1.000  C
  C109     1.0000 0.04110  0.64410  0.41018  Biso   1.000  C
  H71      1.0000 0.03440  0.66200  0.38140  Biso   1.000  H
  H72      1.0000 0.02340  0.61740  0.40950  Biso   1.000  H
  H73      1.0000 0.07220  0.63630  0.41000  Biso   1.000  H
  C110     1.0000 0.03809  0.65078  0.50113  Biso   1.000  C
  H74      1.0000 0.04830  0.62150  0.50140  Biso   1.000  H
  C111     1.0000 0.01800  0.73270  0.60130  Biso   1.000  C
  C112     1.0000 0.03196  0.67028  0.54630  Biso   1.000  C
  C113     1.0000 0.04460  0.64550  0.59174  Biso   1.000  C
  H75      1.0000 0.05660  0.61690  0.58260  Biso   1.000  H
  H76      1.0000 0.01880  0.64140  0.61240  Biso   1.000  H
  H77      1.0000 0.06680  0.66210  0.60980  Biso   1.000  H
  C114     1.0000 0.43478  0.84376  0.41003  Biso   1.000  C
  H78      1.0000 0.44800  0.83050  0.38090  Biso   1.000  H
  H79      1.0000 0.44290  0.87470  0.41170  Biso   1.000  H
  H80      1.0000 0.40290  0.84110  0.40810  Biso   1.000  H
  C115     1.0000 0.45105  0.82055  0.45505  Biso   1.000  C
  C116     1.0000 0.43634  0.83470  0.50082  Biso   1.000  C
  H81      1.0000 0.41350  0.85580  0.50100  Biso   1.000  H
  C117     1.0000 0.02430  0.75260  0.85040  Biso   1.000  C
  C118     1.0000 0.45165  0.82105  0.54574  Biso   1.000  C
  C119     1.0000 0.43689  0.84393  0.59166  Biso   1.000  C
  H82      1.0000 0.41590  0.86700  0.58320  Biso   1.000  H
  H83      1.0000 0.46220  0.85690  0.60810  Biso   1.000  H
  H84      1.0000 0.42290  0.82280  0.61360  Biso   1.000  H
  C120     1.0000 0.49800  0.77500  0.40040  Biso   1.000  C
  O19      1.0000 0.01537  0.70864  0.44978  Biso   1.000  O
  O20      1.0000 0.01569  0.70863  0.55149  Biso   1.000  O
  Nb37     1.0000 0.74010  0.70946  0.55646  Biso   1.000  Nb
  Nb38     1.0000 0.74012  0.70887  0.44930  Biso   1.000  Nb
  Nb39     1.0000 0.68278  0.76931  0.50251  Biso   1.000  Nb
  Nb40     1.0000 0.75916  0.80300  0.55588  Biso   1.000  Nb
  Nb41     1.0000 0.75901  0.80261  0.44870  Biso   1.000  Nb
  Nb42     1.0000 0.81633  0.74257  0.50254  Biso   1.000  Nb
  Cl73     1.0000 0.66028  0.71709  0.56600  Biso   1.000  Cl
  Cl74     1.0000 0.74952  0.75662  0.62885  Biso   1.000  Cl
  Cl75     1.0000 0.72778  0.64539  0.50344  Biso   1.000  Cl
  Cl76     1.0000 0.81662  0.68531  0.56624  Biso   1.000  Cl
  Cl77     1.0000 0.66055  0.71623  0.43975  Biso   1.000  Cl
  Cl78     1.0000 0.74954  0.75539  0.37648  Biso   1.000  Cl
  Cl79     1.0000 0.81666  0.68449  0.43976  Biso   1.000  Cl
  Cl80     1.0000 0.68247  0.82740  0.56530  Biso   1.000  Cl
  Cl81     1.0000 0.68239  0.82666  0.43924  Biso   1.000  Cl
  Cl82     1.0000 0.77140  0.86630  0.50208  Biso   1.000  Cl
  Cl83     1.0000 0.83925  0.79571  0.56519  Biso   1.000  Cl
  Cl84     1.0000 0.83897  0.79533  0.43914  Biso   1.000  Cl
  N45      1.0000 0.71749  0.63438  0.64528  Biso   1.000  N
  N46      1.0000 0.72074  0.63046  0.36336  Biso   1.000  N
  N47      1.0000 0.57076  0.78251  0.50120  Biso   1.000  N
  N48      1.0000 0.78100  0.87985  0.64337  Biso   1.000  N
  N49      1.0000 0.77771  0.88058  0.36216  Biso   1.000  N
  N50      1.0000 0.92753  0.72629  0.50150  Biso   1.000  N
  C121     1.0000 0.72726  0.65891  0.61575  Biso   1.000  C
  C122     1.0000 0.72819  0.65662  0.39179  Biso   1.000  C
  C123     1.0000 0.60843  0.78089  0.50203  Biso   1.000  C
  C124     1.0000 0.77188  0.85457  0.61448  Biso   1.000  C
  C125     1.0000 0.76998  0.85438  0.39060  Biso   1.000  C
  C126     1.0000 0.89027  0.72983  0.50211  Biso   1.000  C
  C127     1.0000 0.99550  0.77310  0.39990  Biso   1.000  C
  C128     1.0000 0.96912  0.83055  0.45547  Biso   1.000  C
  C129     1.0000 0.95890  0.85590  0.41018  Biso   1.000  C
  H85      1.0000 0.96560  0.83800  0.38140  Biso   1.000  H
  H86      1.0000 0.97660  0.88260  0.40950  Biso   1.000  H
  H87      1.0000 0.92780  0.86370  0.41000  Biso   1.000  H
  C130     1.0000 0.96191  0.84922  0.50113  Biso   1.000  C
  H88      1.0000 0.95170  0.87850  0.50140  Biso   1.000  H
  C131     1.0000 0.98200  0.76730  0.60130  Biso   1.000  C
  C132     1.0000 0.96804  0.82972  0.54630  Biso   1.000  C
  C133     1.0000 0.95540  0.85450  0.59174  Biso   1.000  C
  H89      1.0000 0.94340  0.88310  0.58260  Biso   1.000  H
  H90      1.0000 0.98120  0.85860  0.61240  Biso   1.000  H
  H91      1.0000 0.93320  0.83790  0.60980  Biso   1.000  H
  C134     1.0000 0.56522  0.65624  0.41003  Biso   1.000  C
  H92      1.0000 0.55200  0.66950  0.38090  Biso   1.000  H
  H93      1.0000 0.55710  0.62530  0.41170  Biso   1.000  H
  H94      1.0000 0.59710  0.65890  0.40810  Biso   1.000  H
  C135     1.0000 0.54895  0.67945  0.45505  Biso   1.000  C
  C136     1.0000 0.56366  0.66530  0.50082  Biso   1.000  C
  H95      1.0000 0.58650  0.64420  0.50100  Biso   1.000  H
  C137     1.0000 0.97570  0.74740  0.85040  Biso   1.000  C
  C138     1.0000 0.54835  0.67895  0.54574  Biso   1.000  C
  C139     1.0000 0.56311  0.65607  0.59166  Biso   1.000  C
  H96      1.0000 0.58410  0.63300  0.58320  Biso   1.000  H
  H97      1.0000 0.53780  0.64310  0.60810  Biso   1.000  H
  H98      1.0000 0.57710  0.67720  0.61360  Biso   1.000  H
  C140     1.0000 0.50200  0.72500  0.40040  Biso   1.000  C
  O21      1.0000 0.98463  0.79136  0.44978  Biso   1.000  O
  O22      1.0000 0.98431  0.79137  0.55149  Biso   1.000  O
  Nb43     1.0000 0.24010  0.20946  0.05646  Biso   1.000  Nb
  Nb44     1.0000 0.24012  0.20887  0.94930  Biso   1.000  Nb
  Nb45     1.0000 0.18278  0.26931  0.00251  Biso   1.000  Nb
  Nb46     1.0000 0.25916  0.30300  0.05588  Biso   1.000  Nb
  Nb47     1.0000 0.25901  0.30261  0.94870  Biso   1.000  Nb
  Nb48     1.0000 0.31633  0.24257  0.00254  Biso   1.000  Nb
  Cl85     1.0000 0.16028  0.21709  0.06600  Biso   1.000  Cl
  Cl86     1.0000 0.24952  0.25662  0.12885  Biso   1.000  Cl
  Cl87     1.0000 0.22778  0.14539  0.00344  Biso   1.000  Cl
  Cl88     1.0000 0.31662  0.18531  0.06624  Biso   1.000  Cl
  Cl89     1.0000 0.16055  0.21623  0.93975  Biso   1.000  Cl
  Cl90     1.0000 0.24954  0.25539  0.87648  Biso   1.000  Cl
  Cl91     1.0000 0.31666  0.18449  0.93976  Biso   1.000  Cl
  Cl92     1.0000 0.18247  0.32740  0.06530  Biso   1.000  Cl
  Cl93     1.0000 0.18239  0.32666  0.93924  Biso   1.000  Cl
  Cl94     1.0000 0.27140  0.36630  0.00208  Biso   1.000  Cl
  Cl95     1.0000 0.33925  0.29571  0.06519  Biso   1.000  Cl
  Cl96     1.0000 0.33897  0.29533  0.93914  Biso   1.000  Cl
  N51      1.0000 0.21749  0.13438  0.14528  Biso   1.000  N
  N52      1.0000 0.22074  0.13046  0.86336  Biso   1.000  N
  N53      1.0000 0.07076  0.28251  0.00120  Biso   1.000  N
  N54      1.0000 0.28100  0.37985  0.14337  Biso   1.000  N
  N55      1.0000 0.27771  0.38058  0.86216  Biso   1.000  N
  N56      1.0000 0.42753  0.22629  0.00150  Biso   1.000  N
  C141     1.0000 0.22726  0.15891  0.11575  Biso   1.000  C
  C142     1.0000 0.22819  0.15662  0.89179  Biso   1.000  C
  C143     1.0000 0.10843  0.28089  0.00203  Biso   1.000  C
  C144     1.0000 0.27188  0.35457  0.11448  Biso   1.000  C
  C145     1.0000 0.26998  0.35438  0.89060  Biso   1.000  C
  C146     1.0000 0.39027  0.22983  0.00211  Biso   1.000  C
  C147     1.0000 0.49550  0.27310  0.89990  Biso   1.000  C
  C148     1.0000 0.46912  0.33055  0.95547  Biso   1.000  C
  C149     1.0000 0.45890  0.35590  0.91018  Biso   1.000  C
  H99      1.0000 0.46560  0.33800  0.88140  Biso   1.000  H
  H100     1.0000 0.47660  0.38260  0.90950  Biso   1.000  H
  H101     1.0000 0.42780  0.36370  0.91000  Biso   1.000  H
  C150     1.0000 0.46191  0.34922  0.00113  Biso   1.000  C
  H102     1.0000 0.45170  0.37850  0.00140  Biso   1.000  H
  C151     1.0000 0.48200  0.26730  0.10130  Biso   1.000  C
  C152     1.0000 0.46804  0.32972  0.04630  Biso   1.000  C
  C153     1.0000 0.45540  0.35450  0.09174  Biso   1.000  C
  H103     1.0000 0.44340  0.38310  0.08260  Biso   1.000  H
  H104     1.0000 0.48120  0.35860  0.11240  Biso   1.000  H
  H105     1.0000 0.43320  0.33790  0.10980  Biso   1.000  H
  C154     1.0000 0.06522  0.15624  0.91003  Biso   1.000  C
  H106     1.0000 0.05200  0.16950  0.88090  Biso   1.000  H
  H107     1.0000 0.05710  0.12530  0.91170  Biso   1.000  H
  H108     1.0000 0.09710  0.15890  0.90810  Biso   1.000  H
  C155     1.0000 0.04895  0.17945  0.95505  Biso   1.000  C
  C156     1.0000 0.06366  0.16530  0.00082  Biso   1.000  C
  H109     1.0000 0.08650  0.14420  0.00100  Biso   1.000  H
  C157     1.0000 0.47570  0.24740  0.35040  Biso   1.000  C
  C158     1.0000 0.04835  0.17895  0.04574  Biso   1.000  C
  C159     1.0000 0.06311  0.15607  0.09166  Biso   1.000  C
  H110     1.0000 0.08410  0.13300  0.08320  Biso   1.000  H
  H111     1.0000 0.03780  0.14310  0.10810  Biso   1.000  H
  H112     1.0000 0.07710  0.17720  0.11360  Biso   1.000  H
  C160     1.0000 0.00200  0.22500  0.90040  Biso   1.000  C
  O23      1.0000 0.48463  0.29136  0.94978  Biso   1.000  O
  O24      1.0000 0.48431  0.29137  0.05149  Biso   1.000  O
  Mn1      1.0000 0.00000  0.25000  0.75068  Biso   1.000  Mn
  Mn2      1.0000 0.50000  0.75000  0.25068  Biso   1.000  Mn
  Mn3      1.0000 0.50000  0.25000  0.00068  Biso   1.000  Mn
  Mn4      1.0000 0.00000  0.75000  0.50068  Biso   1.000  Mn
  Mn5      1.0000 0.00000  0.75000  0.75040  Biso   1.000  Mn
  Mn6      1.0000 0.50000  0.25000  0.25040  Biso   1.000  Mn
  Mn7      1.0000 0.00000  0.25000  0.00040  Biso   1.000  Mn
  Mn8      1.0000 0.50000  0.75000  0.50040  Biso   1.000  Mn
  N57      1.0000 0.04136  0.76537  0.30022  Biso   1.000  N
  N58      1.0000 0.04137  0.76569  0.19851  Biso   1.000  N
  N59      1.0000 0.54136  0.26537  0.80022  Biso   1.000  N
  N60      1.0000 0.54137  0.26569  0.69851  Biso   1.000  N
  N61      1.0000 0.45864  0.23463  0.80022  Biso   1.000  N
  N62      1.0000 0.45863  0.23431  0.69851  Biso   1.000  N
  N63      1.0000 0.95864  0.73463  0.30022  Biso   1.000  N
  N64      1.0000 0.95863  0.73431  0.19851  Biso   1.000  N
  N65      1.0000 0.98463  0.29136  0.55022  Biso   1.000  N
  N66      1.0000 0.98431  0.29137  0.44851  Biso   1.000  N
  N67      1.0000 0.48463  0.79136  0.05022  Biso   1.000  N
  N68      1.0000 0.48431  0.79137  0.94851  Biso   1.000  N
  N69      1.0000 0.51537  0.70864  0.05022  Biso   1.000  N
  N70      1.0000 0.51569  0.70863  0.94851  Biso   1.000  N
  N71      1.0000 0.01537  0.20864  0.55022  Biso   1.000  N
  N72      1.0000 0.01569  0.20863  0.44851  Biso   1.000  N
  Nb49     1.0000 0.95946  0.00990  0.19354  Biso   1.000  Nb
  Nb50     1.0000 0.95887  0.00988  0.30070  Biso   1.000  Nb
  Nb51     1.0000 0.01931  0.06722  0.24749  Biso   1.000  Nb
  Nb52     1.0000 0.05300  0.99084  0.19412  Biso   1.000  Nb
  Nb53     1.0000 0.05261  0.99099  0.30130  Biso   1.000  Nb
  Nb54     1.0000 0.99257  0.93367  0.24746  Biso   1.000  Nb
  Cl97     1.0000 0.96709  0.08972  0.18400  Biso   1.000  Cl
  Cl98     1.0000 0.00662  0.00048  0.12115  Biso   1.000  Cl
  Cl99     1.0000 0.89539  0.02222  0.24656  Biso   1.000  Cl
  Cl100    1.0000 0.93531  0.93338  0.18376  Biso   1.000  Cl
  Cl101    1.0000 0.96623  0.08945  0.31025  Biso   1.000  Cl
  Cl102    1.0000 0.00539  0.00046  0.37352  Biso   1.000  Cl
  Cl103    1.0000 0.93449  0.93334  0.31024  Biso   1.000  Cl
  Cl104    1.0000 0.07740  0.06753  0.18470  Biso   1.000  Cl
  Cl105    1.0000 0.07666  0.06761  0.31076  Biso   1.000  Cl
  Cl106    1.0000 0.11630  0.97860  0.24792  Biso   1.000  Cl
  Cl107    1.0000 0.04571  0.91075  0.18481  Biso   1.000  Cl
  Cl108    1.0000 0.04533  0.91103  0.31086  Biso   1.000  Cl
  N73      1.0000 0.88438  0.03251  0.10472  Biso   1.000  N
  N74      1.0000 0.88046  0.02926  0.38664  Biso   1.000  N
  N75      1.0000 0.03251  0.17924  0.24880  Biso   1.000  N
  N76      1.0000 0.12985  0.96900  0.10663  Biso   1.000  N
  N77      1.0000 0.13058  0.97229  0.38784  Biso   1.000  N
  N78      1.0000 0.97629  0.82247  0.24850  Biso   1.000  N
  N79      1.0000 0.96061  0.22979  0.19913  Biso   1.000  N
  N80      1.0000 0.96092  0.22889  0.30004  Biso   1.000  N
  C161     1.0000 0.90891  0.02274  0.13425  Biso   1.000  C
  C162     1.0000 0.90662  0.02181  0.35821  Biso   1.000  C
  C163     1.0000 0.03089  0.14157  0.24797  Biso   1.000  C
  C164     1.0000 0.10457  0.97812  0.13552  Biso   1.000  C
  C165     1.0000 0.10438  0.98002  0.35940  Biso   1.000  C
  C166     1.0000 0.97983  0.85973  0.24789  Biso   1.000  C
  C167     1.0000 0.02310  0.75450  0.35010  Biso   1.000  C
  C168     1.0000 0.08055  0.78088  0.29453  Biso   1.000  C
  C169     1.0000 0.10590  0.79110  0.33982  Biso   1.000  C
  H113     1.0000 0.08800  0.78440  0.36860  Biso   1.000  H
  H114     1.0000 0.13260  0.77340  0.34050  Biso   1.000  H
  H115     1.0000 0.11370  0.82220  0.34000  Biso   1.000  H
  C170     1.0000 0.09922  0.78809  0.24887  Biso   1.000  C
  H116     1.0000 0.12850  0.79830  0.24860  Biso   1.000  H
  C171     1.0000 0.01730  0.76800  0.14870  Biso   1.000  C
  C172     1.0000 0.07972  0.78196  0.20370  Biso   1.000  C
  C173     1.0000 0.10450  0.79460  0.15826  Biso   1.000  C
  H117     1.0000 0.13310  0.80660  0.16740  Biso   1.000  H
  H118     1.0000 0.10860  0.76880  0.13760  Biso   1.000  H
  H119     1.0000 0.08790  0.81680  0.14020  Biso   1.000  H
  C174     1.0000 0.90624  0.18478  0.33997  Biso   1.000  C
  H120     1.0000 0.91950  0.19800  0.36910  Biso   1.000  H
  H121     1.0000 0.87530  0.19290  0.33830  Biso   1.000  H
  H122     1.0000 0.90890  0.15290  0.34190  Biso   1.000  H
  C175     1.0000 0.92945  0.20105  0.29495  Biso   1.000  C
  C176     1.0000 0.91530  0.18634  0.24918  Biso   1.000  C
  H123     1.0000 0.89420  0.16350  0.24900  Biso   1.000  H
  C177     1.0000 0.99740  0.77430  0.89960  Biso   1.000  C
  C178     1.0000 0.92895  0.20165  0.20426  Biso   1.000  C
  C179     1.0000 0.90607  0.18689  0.15834  Biso   1.000  C
  H124     1.0000 0.88300  0.16590  0.16680  Biso   1.000  H
  H125     1.0000 0.89310  0.21220  0.14190  Biso   1.000  H
  H126     1.0000 0.92720  0.17290  0.13640  Biso   1.000  H
  C180     1.0000 0.97500  0.24800  0.34960  Biso   1.000  C
  O25      1.0000 0.97979  0.78939  0.94913  Biso   1.000  O
  O26      1.0000 0.97889  0.78908  0.05004  Biso   1.000  O
  Nb55     1.0000 0.45946  0.50990  0.69354  Biso   1.000  Nb
  Nb56     1.0000 0.45887  0.50988  0.80070  Biso   1.000  Nb
  Nb57     1.0000 0.51931  0.56722  0.74749  Biso   1.000  Nb
  Nb58     1.0000 0.55300  0.49084  0.69412  Biso   1.000  Nb
  Nb59     1.0000 0.55261  0.49099  0.80130  Biso   1.000  Nb
  Nb60     1.0000 0.49257  0.43367  0.74746  Biso   1.000  Nb
  Cl109    1.0000 0.46709  0.58972  0.68400  Biso   1.000  Cl
  Cl110    1.0000 0.50662  0.50048  0.62115  Biso   1.000  Cl
  Cl111    1.0000 0.39539  0.52222  0.74656  Biso   1.000  Cl
  Cl112    1.0000 0.43531  0.43338  0.68376  Biso   1.000  Cl
  Cl113    1.0000 0.46623  0.58945  0.81025  Biso   1.000  Cl
  Cl114    1.0000 0.50539  0.50046  0.87352  Biso   1.000  Cl
  Cl115    1.0000 0.43449  0.43334  0.81024  Biso   1.000  Cl
  Cl116    1.0000 0.57740  0.56753  0.68470  Biso   1.000  Cl
  Cl117    1.0000 0.57666  0.56761  0.81076  Biso   1.000  Cl
  Cl118    1.0000 0.61630  0.47860  0.74792  Biso   1.000  Cl
  Cl119    1.0000 0.54571  0.41075  0.68481  Biso   1.000  Cl
  Cl120    1.0000 0.54533  0.41103  0.81086  Biso   1.000  Cl
  N81      1.0000 0.38438  0.53251  0.60472  Biso   1.000  N
  N82      1.0000 0.38046  0.52926  0.88664  Biso   1.000  N
  N83      1.0000 0.53251  0.67924  0.74880  Biso   1.000  N
  N84      1.0000 0.62985  0.46900  0.60663  Biso   1.000  N
  N85      1.0000 0.63058  0.47229  0.88784  Biso   1.000  N
  N86      1.0000 0.47629  0.32247  0.74850  Biso   1.000  N
  N87      1.0000 0.46061  0.72979  0.69913  Biso   1.000  N
  N88      1.0000 0.46092  0.72889  0.80004  Biso   1.000  N
  C181     1.0000 0.40891  0.52274  0.63425  Biso   1.000  C
  C182     1.0000 0.40662  0.52181  0.85821  Biso   1.000  C
  C183     1.0000 0.53089  0.64157  0.74797  Biso   1.000  C
  C184     1.0000 0.60457  0.47812  0.63552  Biso   1.000  C
  C185     1.0000 0.60438  0.48002  0.85940  Biso   1.000  C
  C186     1.0000 0.47983  0.35973  0.74789  Biso   1.000  C
  C187     1.0000 0.52310  0.25450  0.85010  Biso   1.000  C
  C188     1.0000 0.58055  0.28088  0.79453  Biso   1.000  C
  C189     1.0000 0.60590  0.29110  0.83982  Biso   1.000  C
  H127     1.0000 0.58800  0.28440  0.86860  Biso   1.000  H
  H128     1.0000 0.63260  0.27340  0.84050  Biso   1.000  H
  H129     1.0000 0.61370  0.32220  0.84000  Biso   1.000  H
  C190     1.0000 0.59922  0.28809  0.74887  Biso   1.000  C
  H130     1.0000 0.62850  0.29830  0.74860  Biso   1.000  H
  C191     1.0000 0.51730  0.26800  0.64870  Biso   1.000  C
  C192     1.0000 0.57972  0.28196  0.70370  Biso   1.000  C
  C193     1.0000 0.60450  0.29460  0.65826  Biso   1.000  C
  H131     1.0000 0.63310  0.30660  0.66740  Biso   1.000  H
  H132     1.0000 0.60860  0.26880  0.63760  Biso   1.000  H
  H133     1.0000 0.58790  0.31680  0.64020  Biso   1.000  H
  C194     1.0000 0.40624  0.68478  0.83997  Biso   1.000  C
  H134     1.0000 0.41950  0.69800  0.86910  Biso   1.000  H
  H135     1.0000 0.37530  0.69290  0.83830  Biso   1.000  H
  H136     1.0000 0.40890  0.65290  0.84190  Biso   1.000  H
  C195     1.0000 0.42945  0.70105  0.79495  Biso   1.000  C
  C196     1.0000 0.41530  0.68634  0.74918  Biso   1.000  C
  H137     1.0000 0.39420  0.66350  0.74900  Biso   1.000  H
  C197     1.0000 0.49740  0.27430  0.39960  Biso   1.000  C
  C198     1.0000 0.42895  0.70165  0.70426  Biso   1.000  C
  C199     1.0000 0.40607  0.68689  0.65834  Biso   1.000  C
  H138     1.0000 0.38300  0.66590  0.66680  Biso   1.000  H
  H139     1.0000 0.39310  0.71220  0.64190  Biso   1.000  H
  H140     1.0000 0.42720  0.67290  0.63640  Biso   1.000  H
  C200     1.0000 0.47500  0.74800  0.84960  Biso   1.000  C
  O27      1.0000 0.47979  0.28939  0.44913  Biso   1.000  O
  O28      1.0000 0.47889  0.28908  0.55004  Biso   1.000  O
  Nb61     1.0000 0.54054  0.99010  0.69354  Biso   1.000  Nb
  Nb62     1.0000 0.54113  0.99012  0.80070  Biso   1.000  Nb
  Nb63     1.0000 0.48069  0.93278  0.74749  Biso   1.000  Nb
  Nb64     1.0000 0.44700  0.00916  0.69412  Biso   1.000  Nb
  Nb65     1.0000 0.44739  0.00901  0.80130  Biso   1.000  Nb
  Nb66     1.0000 0.50743  0.06633  0.74746  Biso   1.000  Nb
  Cl121    1.0000 0.53291  0.91028  0.68400  Biso   1.000  Cl
  Cl122    1.0000 0.49338  0.99952  0.62115  Biso   1.000  Cl
  Cl123    1.0000 0.60461  0.97778  0.74656  Biso   1.000  Cl
  Cl124    1.0000 0.56469  0.06662  0.68376  Biso   1.000  Cl
  Cl125    1.0000 0.53377  0.91055  0.81025  Biso   1.000  Cl
  Cl126    1.0000 0.49461  0.99954  0.87352  Biso   1.000  Cl
  Cl127    1.0000 0.56551  0.06666  0.81024  Biso   1.000  Cl
  Cl128    1.0000 0.42260  0.93247  0.68470  Biso   1.000  Cl
  Cl129    1.0000 0.42334  0.93239  0.81076  Biso   1.000  Cl
  Cl130    1.0000 0.38370  0.02140  0.74792  Biso   1.000  Cl
  Cl131    1.0000 0.45429  0.08925  0.68481  Biso   1.000  Cl
  Cl132    1.0000 0.45467  0.08897  0.81086  Biso   1.000  Cl
  N89      1.0000 0.61562  0.96749  0.60472  Biso   1.000  N
  N90      1.0000 0.61954  0.97074  0.88664  Biso   1.000  N
  N91      1.0000 0.46749  0.82076  0.74880  Biso   1.000  N
  N92      1.0000 0.37015  0.03100  0.60663  Biso   1.000  N
  N93      1.0000 0.36942  0.02771  0.88784  Biso   1.000  N
  N94      1.0000 0.52371  0.17753  0.74850  Biso   1.000  N
  N95      1.0000 0.53939  0.77021  0.69913  Biso   1.000  N
  N96      1.0000 0.53908  0.77111  0.80004  Biso   1.000  N
  C201     1.0000 0.59109  0.97726  0.63425  Biso   1.000  C
  C202     1.0000 0.59338  0.97819  0.85821  Biso   1.000  C
  C203     1.0000 0.46911  0.85843  0.74797  Biso   1.000  C
  C204     1.0000 0.39543  0.02188  0.63552  Biso   1.000  C
  C205     1.0000 0.39562  0.01998  0.85940  Biso   1.000  C
  C206     1.0000 0.52017  0.14027  0.74789  Biso   1.000  C
  C207     1.0000 0.47690  0.24550  0.85010  Biso   1.000  C
  C208     1.0000 0.41945  0.21912  0.79453  Biso   1.000  C
  C209     1.0000 0.39410  0.20890  0.83982  Biso   1.000  C
  H141     1.0000 0.41200  0.21560  0.86860  Biso   1.000  H
  H142     1.0000 0.36740  0.22660  0.84050  Biso   1.000  H
  H143     1.0000 0.38630  0.17780  0.84000  Biso   1.000  H
  C210     1.0000 0.40078  0.21191  0.74887  Biso   1.000  C
  H144     1.0000 0.37150  0.20170  0.74860  Biso   1.000  H
  C211     1.0000 0.48270  0.23200  0.64870  Biso   1.000  C
  C212     1.0000 0.42028  0.21804  0.70370  Biso   1.000  C
  C213     1.0000 0.39550  0.20540  0.65826  Biso   1.000  C
  H145     1.0000 0.36690  0.19340  0.66740  Biso   1.000  H
  H146     1.0000 0.39140  0.23120  0.63760  Biso   1.000  H
  H147     1.0000 0.41210  0.18320  0.64020  Biso   1.000  H
  C214     1.0000 0.59376  0.81522  0.83997  Biso   1.000  C
  H148     1.0000 0.58050  0.80200  0.86910  Biso   1.000  H
  H149     1.0000 0.62470  0.80710  0.83830  Biso   1.000  H
  H150     1.0000 0.59110  0.84710  0.84190  Biso   1.000  H
  C215     1.0000 0.57055  0.79895  0.79495  Biso   1.000  C
  C216     1.0000 0.58470  0.81366  0.74918  Biso   1.000  C
  H151     1.0000 0.60580  0.83650  0.74900  Biso   1.000  H
  C217     1.0000 0.50260  0.22570  0.39960  Biso   1.000  C
  C218     1.0000 0.57105  0.79835  0.70426  Biso   1.000  C
  C219     1.0000 0.59393  0.81311  0.65834  Biso   1.000  C
  H152     1.0000 0.61700  0.83410  0.66680  Biso   1.000  H
  H153     1.0000 0.60690  0.78780  0.64190  Biso   1.000  H
  H154     1.0000 0.57280  0.82710  0.63640  Biso   1.000  H
  C220     1.0000 0.52500  0.75200  0.84960  Biso   1.000  C
  O29      1.0000 0.52021  0.21061  0.44913  Biso   1.000  O
  O30      1.0000 0.52111  0.21092  0.55004  Biso   1.000  O
  Nb67     1.0000 0.04054  0.49010  0.19354  Biso   1.000  Nb
  Nb68     1.0000 0.04113  0.49012  0.30070  Biso   1.000  Nb
  Nb69     1.0000 0.98069  0.43278  0.24749  Biso   1.000  Nb
  Nb70     1.0000 0.94700  0.50916  0.19412  Biso   1.000  Nb
  Nb71     1.0000 0.94739  0.50901  0.30130  Biso   1.000  Nb
  Nb72     1.0000 0.00743  0.56633  0.24746  Biso   1.000  Nb
  Cl133    1.0000 0.03291  0.41028  0.18400  Biso   1.000  Cl
  Cl134    1.0000 0.99338  0.49952  0.12115  Biso   1.000  Cl
  Cl135    1.0000 0.10461  0.47778  0.24656  Biso   1.000  Cl
  Cl136    1.0000 0.06469  0.56662  0.18376  Biso   1.000  Cl
  Cl137    1.0000 0.03377  0.41055  0.31025  Biso   1.000  Cl
  Cl138    1.0000 0.99461  0.49954  0.37352  Biso   1.000  Cl
  Cl139    1.0000 0.06551  0.56666  0.31024  Biso   1.000  Cl
  Cl140    1.0000 0.92260  0.43247  0.18470  Biso   1.000  Cl
  Cl141    1.0000 0.92334  0.43239  0.31076  Biso   1.000  Cl
  Cl142    1.0000 0.88370  0.52140  0.24792  Biso   1.000  Cl
  Cl143    1.0000 0.95429  0.58925  0.18481  Biso   1.000  Cl
  Cl144    1.0000 0.95467  0.58897  0.31086  Biso   1.000  Cl
  N97      1.0000 0.11562  0.46749  0.10472  Biso   1.000  N
  N98      1.0000 0.11954  0.47074  0.38664  Biso   1.000  N
  N99      1.0000 0.96749  0.32076  0.24880  Biso   1.000  N
  N100     1.0000 0.87015  0.53100  0.10663  Biso   1.000  N
  N101     1.0000 0.86942  0.52771  0.38784  Biso   1.000  N
  N102     1.0000 0.02371  0.67753  0.24850  Biso   1.000  N
  N103     1.0000 0.03939  0.27021  0.19913  Biso   1.000  N
  N104     1.0000 0.03908  0.27111  0.30004  Biso   1.000  N
  C221     1.0000 0.09109  0.47726  0.13425  Biso   1.000  C
  C222     1.0000 0.09338  0.47819  0.35821  Biso   1.000  C
  C223     1.0000 0.96911  0.35843  0.24797  Biso   1.000  C
  C224     1.0000 0.89543  0.52188  0.13552  Biso   1.000  C
  C225     1.0000 0.89562  0.51998  0.35940  Biso   1.000  C
  C226     1.0000 0.02017  0.64027  0.24789  Biso   1.000  C
  C227     1.0000 0.97690  0.74550  0.35010  Biso   1.000  C
  C228     1.0000 0.91945  0.71912  0.29453  Biso   1.000  C
  C229     1.0000 0.89410  0.70890  0.33982  Biso   1.000  C
  H155     1.0000 0.91200  0.71560  0.36860  Biso   1.000  H
  H156     1.0000 0.86740  0.72660  0.34050  Biso   1.000  H
  H157     1.0000 0.88630  0.67780  0.34000  Biso   1.000  H
  C230     1.0000 0.90078  0.71191  0.24887  Biso   1.000  C
  H158     1.0000 0.87150  0.70170  0.24860  Biso   1.000  H
  C231     1.0000 0.98270  0.73200  0.14870  Biso   1.000  C
  C232     1.0000 0.92028  0.71804  0.20370  Biso   1.000  C
  C233     1.0000 0.89550  0.70540  0.15826  Biso   1.000  C
  H159     1.0000 0.86690  0.69340  0.16740  Biso   1.000  H
  H160     1.0000 0.89140  0.73120  0.13760  Biso   1.000  H
  H161     1.0000 0.91210  0.68320  0.14020  Biso   1.000  H
  C234     1.0000 0.09376  0.31522  0.33997  Biso   1.000  C
  H162     1.0000 0.08050  0.30200  0.36910  Biso   1.000  H
  H163     1.0000 0.12470  0.30710  0.33830  Biso   1.000  H
  H164     1.0000 0.09110  0.34710  0.34190  Biso   1.000  H
  C235     1.0000 0.07055  0.29895  0.29495  Biso   1.000  C
  C236     1.0000 0.08470  0.31366  0.24918  Biso   1.000  C
  H165     1.0000 0.10580  0.33650  0.24900  Biso   1.000  H
  C237     1.0000 0.00260  0.72570  0.89960  Biso   1.000  C
  C238     1.0000 0.07105  0.29835  0.20426  Biso   1.000  C
  C239     1.0000 0.09393  0.31311  0.15834  Biso   1.000  C
  H166     1.0000 0.11700  0.33410  0.16680  Biso   1.000  H
  H167     1.0000 0.10690  0.28780  0.14190  Biso   1.000  H
  H168     1.0000 0.07280  0.32710  0.13640  Biso   1.000  H
  C240     1.0000 0.02500  0.25200  0.34960  Biso   1.000  C
  O31      1.0000 0.02021  0.71061  0.94913  Biso   1.000  O
  O32      1.0000 0.02111  0.71092  0.05004  Biso   1.000  O
  Nb73     1.0000 0.24010  0.70946  0.94354  Biso   1.000  Nb
  Nb74     1.0000 0.24012  0.70887  0.05070  Biso   1.000  Nb
  Nb75     1.0000 0.18278  0.76931  0.99749  Biso   1.000  Nb
  Nb76     1.0000 0.25916  0.80300  0.94412  Biso   1.000  Nb
  Nb77     1.0000 0.25901  0.80261  0.05130  Biso   1.000  Nb
  Nb78     1.0000 0.31633  0.74257  0.99746  Biso   1.000  Nb
  Cl145    1.0000 0.16028  0.71709  0.93400  Biso   1.000  Cl
  Cl146    1.0000 0.24952  0.75662  0.87115  Biso   1.000  Cl
  Cl147    1.0000 0.22778  0.64539  0.99656  Biso   1.000  Cl
  Cl148    1.0000 0.31662  0.68531  0.93376  Biso   1.000  Cl
  Cl149    1.0000 0.16055  0.71623  0.06025  Biso   1.000  Cl
  Cl150    1.0000 0.24954  0.75539  0.12352  Biso   1.000  Cl
  Cl151    1.0000 0.31666  0.68449  0.06024  Biso   1.000  Cl
  Cl152    1.0000 0.18247  0.82740  0.93470  Biso   1.000  Cl
  Cl153    1.0000 0.18239  0.82666  0.06076  Biso   1.000  Cl
  Cl154    1.0000 0.27140  0.86630  0.99792  Biso   1.000  Cl
  Cl155    1.0000 0.33925  0.79571  0.93481  Biso   1.000  Cl
  Cl156    1.0000 0.33897  0.79533  0.06086  Biso   1.000  Cl
  N105     1.0000 0.21749  0.63438  0.85472  Biso   1.000  N
  N106     1.0000 0.22074  0.63046  0.13664  Biso   1.000  N
  N107     1.0000 0.07076  0.78251  0.99880  Biso   1.000  N
  N108     1.0000 0.28100  0.87985  0.85663  Biso   1.000  N
  N109     1.0000 0.27771  0.88058  0.13784  Biso   1.000  N
  N110     1.0000 0.42753  0.72629  0.99850  Biso   1.000  N
  C241     1.0000 0.22726  0.65891  0.88425  Biso   1.000  C
  C242     1.0000 0.22819  0.65662  0.10821  Biso   1.000  C
  C243     1.0000 0.10843  0.78089  0.99797  Biso   1.000  C
  C244     1.0000 0.27188  0.85457  0.88552  Biso   1.000  C
  C245     1.0000 0.26998  0.85438  0.10940  Biso   1.000  C
  C246     1.0000 0.39027  0.72983  0.99789  Biso   1.000  C
  C247     1.0000 0.49550  0.77310  0.10010  Biso   1.000  C
  C248     1.0000 0.46912  0.83055  0.04453  Biso   1.000  C
  C249     1.0000 0.45890  0.85590  0.08982  Biso   1.000  C
  H169     1.0000 0.46560  0.83800  0.11860  Biso   1.000  H
  H170     1.0000 0.47660  0.88260  0.09050  Biso   1.000  H
  H171     1.0000 0.42780  0.86370  0.09000  Biso   1.000  H
  C250     1.0000 0.46191  0.84922  0.99887  Biso   1.000  C
  H172     1.0000 0.45170  0.87850  0.99860  Biso   1.000  H
  C251     1.0000 0.48200  0.76730  0.89870  Biso   1.000  C
  C252     1.0000 0.46804  0.82972  0.95370  Biso   1.000  C
  C253     1.0000 0.45540  0.85450  0.90826  Biso   1.000  C
  H173     1.0000 0.44340  0.88310  0.91740  Biso   1.000  H
  H174     1.0000 0.48120  0.85860  0.88760  Biso   1.000  H
  H175     1.0000 0.43320  0.83790  0.89020  Biso   1.000  H
  C254     1.0000 0.06522  0.65624  0.08997  Biso   1.000  C
  H176     1.0000 0.05200  0.66950  0.11910  Biso   1.000  H
  H177     1.0000 0.05710  0.62530  0.08830  Biso   1.000  H
  H178     1.0000 0.09710  0.65890  0.09190  Biso   1.000  H
  C255     1.0000 0.04895  0.67945  0.04495  Biso   1.000  C
  C256     1.0000 0.06366  0.66530  0.99918  Biso   1.000  C
  H179     1.0000 0.08650  0.64420  0.99900  Biso   1.000  H
  C257     1.0000 0.47570  0.74740  0.64960  Biso   1.000  C
  C258     1.0000 0.04835  0.67895  0.95426  Biso   1.000  C
  C259     1.0000 0.06311  0.65607  0.90834  Biso   1.000  C
  H180     1.0000 0.08410  0.63300  0.91680  Biso   1.000  H
  H181     1.0000 0.03780  0.64310  0.89190  Biso   1.000  H
  H182     1.0000 0.07710  0.67720  0.88640  Biso   1.000  H
  C260     1.0000 0.00200  0.72500  0.09960  Biso   1.000  C
  Nb79     1.0000 0.74010  0.20946  0.44354  Biso   1.000  Nb
  Nb80     1.0000 0.74012  0.20887  0.55070  Biso   1.000  Nb
  Nb81     1.0000 0.68278  0.26931  0.49749  Biso   1.000  Nb
  Nb82     1.0000 0.75916  0.30300  0.44412  Biso   1.000  Nb
  Nb83     1.0000 0.75901  0.30261  0.55130  Biso   1.000  Nb
  Nb84     1.0000 0.81633  0.24257  0.49746  Biso   1.000  Nb
  Cl157    1.0000 0.66028  0.21709  0.43400  Biso   1.000  Cl
  Cl158    1.0000 0.74952  0.25662  0.37115  Biso   1.000  Cl
  Cl159    1.0000 0.72778  0.14539  0.49656  Biso   1.000  Cl
  Cl160    1.0000 0.81662  0.18531  0.43376  Biso   1.000  Cl
  Cl161    1.0000 0.66055  0.21623  0.56025  Biso   1.000  Cl
  Cl162    1.0000 0.74954  0.25539  0.62352  Biso   1.000  Cl
  Cl163    1.0000 0.81666  0.18449  0.56024  Biso   1.000  Cl
  Cl164    1.0000 0.68247  0.32740  0.43470  Biso   1.000  Cl
  Cl165    1.0000 0.68239  0.32666  0.56076  Biso   1.000  Cl
  Cl166    1.0000 0.77140  0.36630  0.49792  Biso   1.000  Cl
  Cl167    1.0000 0.83925  0.29571  0.43481  Biso   1.000  Cl
  Cl168    1.0000 0.83897  0.29533  0.56086  Biso   1.000  Cl
  N111     1.0000 0.71749  0.13438  0.35472  Biso   1.000  N
  N112     1.0000 0.72074  0.13046  0.63664  Biso   1.000  N
  N113     1.0000 0.57076  0.28251  0.49880  Biso   1.000  N
  N114     1.0000 0.78100  0.37985  0.35663  Biso   1.000  N
  N115     1.0000 0.77771  0.38058  0.63784  Biso   1.000  N
  N116     1.0000 0.92753  0.22629  0.49850  Biso   1.000  N
  C261     1.0000 0.72726  0.15891  0.38425  Biso   1.000  C
  C262     1.0000 0.72819  0.15662  0.60821  Biso   1.000  C
  C263     1.0000 0.60843  0.28089  0.49797  Biso   1.000  C
  C264     1.0000 0.77188  0.35457  0.38552  Biso   1.000  C
  C265     1.0000 0.76998  0.35438  0.60940  Biso   1.000  C
  C266     1.0000 0.89027  0.22983  0.49789  Biso   1.000  C
  C267     1.0000 0.99550  0.27310  0.60010  Biso   1.000  C
  C268     1.0000 0.96912  0.33055  0.54453  Biso   1.000  C
  C269     1.0000 0.95890  0.35590  0.58982  Biso   1.000  C
  H183     1.0000 0.96560  0.33800  0.61860  Biso   1.000  H
  H184     1.0000 0.97660  0.38260  0.59050  Biso   1.000  H
  H185     1.0000 0.92780  0.36370  0.59000  Biso   1.000  H
  C270     1.0000 0.96191  0.34922  0.49887  Biso   1.000  C
  H186     1.0000 0.95170  0.37850  0.49860  Biso   1.000  H
  C271     1.0000 0.98200  0.26730  0.39870  Biso   1.000  C
  C272     1.0000 0.96804  0.32972  0.45370  Biso   1.000  C
  C273     1.0000 0.95540  0.35450  0.40826  Biso   1.000  C
  H187     1.0000 0.94340  0.38310  0.41740  Biso   1.000  H
  H188     1.0000 0.98120  0.35860  0.38760  Biso   1.000  H
  H189     1.0000 0.93320  0.33790  0.39020  Biso   1.000  H
  C274     1.0000 0.56522  0.15624  0.58997  Biso   1.000  C
  H190     1.0000 0.55200  0.16950  0.61910  Biso   1.000  H
  H191     1.0000 0.55710  0.12530  0.58830  Biso   1.000  H
  H192     1.0000 0.59710  0.15890  0.59190  Biso   1.000  H
  C275     1.0000 0.54895  0.17945  0.54495  Biso   1.000  C
  C276     1.0000 0.56366  0.16530  0.49918  Biso   1.000  C
  H193     1.0000 0.58650  0.14420  0.49900  Biso   1.000  H
  C277     1.0000 0.97570  0.24740  0.14960  Biso   1.000  C
  C278     1.0000 0.54835  0.17895  0.45426  Biso   1.000  C
  C279     1.0000 0.56311  0.15607  0.40834  Biso   1.000  C
  H194     1.0000 0.58410  0.13300  0.41680  Biso   1.000  H
  H195     1.0000 0.53780  0.14310  0.39190  Biso   1.000  H
  H196     1.0000 0.57710  0.17720  0.38640  Biso   1.000  H
  C280     1.0000 0.50200  0.22500  0.59960  Biso   1.000  C
  Nb85     1.0000 0.25990  0.29054  0.44354  Biso   1.000  Nb
  Nb86     1.0000 0.25988  0.29113  0.55070  Biso   1.000  Nb
  Nb87     1.0000 0.31722  0.23069  0.49749  Biso   1.000  Nb
  Nb88     1.0000 0.24084  0.19700  0.44412  Biso   1.000  Nb
  Nb89     1.0000 0.24099  0.19739  0.55130  Biso   1.000  Nb
  Nb90     1.0000 0.18367  0.25743  0.49746  Biso   1.000  Nb
  Cl169    1.0000 0.33972  0.28291  0.43400  Biso   1.000  Cl
  Cl170    1.0000 0.25048  0.24338  0.37115  Biso   1.000  Cl
  Cl171    1.0000 0.27222  0.35461  0.49656  Biso   1.000  Cl
  Cl172    1.0000 0.18338  0.31469  0.43376  Biso   1.000  Cl
  Cl173    1.0000 0.33945  0.28377  0.56025  Biso   1.000  Cl
  Cl174    1.0000 0.25046  0.24461  0.62352  Biso   1.000  Cl
  Cl175    1.0000 0.18334  0.31551  0.56024  Biso   1.000  Cl
  Cl176    1.0000 0.31753  0.17260  0.43470  Biso   1.000  Cl
  Cl177    1.0000 0.31761  0.17334  0.56076  Biso   1.000  Cl
  Cl178    1.0000 0.22860  0.13370  0.49792  Biso   1.000  Cl
  Cl179    1.0000 0.16075  0.20429  0.43481  Biso   1.000  Cl
  Cl180    1.0000 0.16103  0.20467  0.56086  Biso   1.000  Cl
  N117     1.0000 0.28251  0.36562  0.35472  Biso   1.000  N
  N118     1.0000 0.27926  0.36954  0.63664  Biso   1.000  N
  N119     1.0000 0.42924  0.21749  0.49880  Biso   1.000  N
  N120     1.0000 0.21900  0.12015  0.35663  Biso   1.000  N
  N121     1.0000 0.22229  0.11942  0.63784  Biso   1.000  N
  N122     1.0000 0.07247  0.27371  0.49850  Biso   1.000  N
  C281     1.0000 0.27274  0.34109  0.38425  Biso   1.000  C
  C282     1.0000 0.27181  0.34338  0.60821  Biso   1.000  C
  C283     1.0000 0.39157  0.21911  0.49797  Biso   1.000  C
  C284     1.0000 0.22812  0.14543  0.38552  Biso   1.000  C
  C285     1.0000 0.23002  0.14562  0.60940  Biso   1.000  C
  C286     1.0000 0.10973  0.27017  0.49789  Biso   1.000  C
  C287     1.0000 0.00450  0.22690  0.60010  Biso   1.000  C
  C288     1.0000 0.03088  0.16945  0.54453  Biso   1.000  C
  C289     1.0000 0.04110  0.14410  0.58982  Biso   1.000  C
  H197     1.0000 0.03440  0.16200  0.61860  Biso   1.000  H
  H198     1.0000 0.02340  0.11740  0.59050  Biso   1.000  H
  H199     1.0000 0.07220  0.13630  0.59000  Biso   1.000  H
  C290     1.0000 0.03809  0.15078  0.49887  Biso   1.000  C
  H200     1.0000 0.04830  0.12150  0.49860  Biso   1.000  H
  C291     1.0000 0.01800  0.23270  0.39870  Biso   1.000  C
  C292     1.0000 0.03196  0.17028  0.45370  Biso   1.000  C
  C293     1.0000 0.04460  0.14550  0.40826  Biso   1.000  C
  H201     1.0000 0.05660  0.11690  0.41740  Biso   1.000  H
  H202     1.0000 0.01880  0.14140  0.38760  Biso   1.000  H
  H203     1.0000 0.06680  0.16210  0.39020  Biso   1.000  H
  C294     1.0000 0.43478  0.34376  0.58997  Biso   1.000  C
  H204     1.0000 0.44800  0.33050  0.61910  Biso   1.000  H
  H205     1.0000 0.44290  0.37470  0.58830  Biso   1.000  H
  H206     1.0000 0.40290  0.34110  0.59190  Biso   1.000  H
  C295     1.0000 0.45105  0.32055  0.54495  Biso   1.000  C
  C296     1.0000 0.43634  0.33470  0.49918  Biso   1.000  C
  H207     1.0000 0.41350  0.35580  0.49900  Biso   1.000  H
  C297     1.0000 0.02430  0.25260  0.14960  Biso   1.000  C
  C298     1.0000 0.45165  0.32105  0.45426  Biso   1.000  C
  C299     1.0000 0.43689  0.34393  0.40834  Biso   1.000  C
  H208     1.0000 0.41590  0.36700  0.41680  Biso   1.000  H
  H209     1.0000 0.46220  0.35690  0.39190  Biso   1.000  H
  H210     1.0000 0.42290  0.32280  0.38640  Biso   1.000  H
  C300     1.0000 0.49800  0.27500  0.59960  Biso   1.000  C
  Nb91     1.0000 0.75990  0.79054  0.94354  Biso   1.000  Nb
  Nb92     1.0000 0.75988  0.79113  0.05070  Biso   1.000  Nb
  Nb93     1.0000 0.81722  0.73069  0.99749  Biso   1.000  Nb
  Nb94     1.0000 0.74084  0.69700  0.94412  Biso   1.000  Nb
  Nb95     1.0000 0.74099  0.69739  0.05130  Biso   1.000  Nb
  Nb96     1.0000 0.68367  0.75743  0.99746  Biso   1.000  Nb
  Cl181    1.0000 0.83972  0.78291  0.93400  Biso   1.000  Cl
  Cl182    1.0000 0.75048  0.74338  0.87115  Biso   1.000  Cl
  Cl183    1.0000 0.77222  0.85461  0.99656  Biso   1.000  Cl
  Cl184    1.0000 0.68338  0.81469  0.93376  Biso   1.000  Cl
  Cl185    1.0000 0.83945  0.78377  0.06025  Biso   1.000  Cl
  Cl186    1.0000 0.75046  0.74461  0.12352  Biso   1.000  Cl
  Cl187    1.0000 0.68334  0.81551  0.06024  Biso   1.000  Cl
  Cl188    1.0000 0.81753  0.67260  0.93470  Biso   1.000  Cl
  Cl189    1.0000 0.81761  0.67334  0.06076  Biso   1.000  Cl
  Cl190    1.0000 0.72860  0.63370  0.99792  Biso   1.000  Cl
  Cl191    1.0000 0.66075  0.70429  0.93481  Biso   1.000  Cl
  Cl192    1.0000 0.66103  0.70467  0.06086  Biso   1.000  Cl
  N123     1.0000 0.78251  0.86562  0.85472  Biso   1.000  N
  N124     1.0000 0.77926  0.86954  0.13664  Biso   1.000  N
  N125     1.0000 0.92924  0.71749  0.99880  Biso   1.000  N
  N126     1.0000 0.71900  0.62015  0.85663  Biso   1.000  N
  N127     1.0000 0.72229  0.61942  0.13784  Biso   1.000  N
  N128     1.0000 0.57247  0.77371  0.99850  Biso   1.000  N
  C301     1.0000 0.77274  0.84109  0.88425  Biso   1.000  C
  C302     1.0000 0.77181  0.84338  0.10821  Biso   1.000  C
  C303     1.0000 0.89157  0.71911  0.99797  Biso   1.000  C
  C304     1.0000 0.72812  0.64543  0.88552  Biso   1.000  C
  C305     1.0000 0.73002  0.64562  0.10940  Biso   1.000  C
  C306     1.0000 0.60973  0.77017  0.99789  Biso   1.000  C
  C307     1.0000 0.50450  0.72690  0.10010  Biso   1.000  C
  C308     1.0000 0.53088  0.66945  0.04453  Biso   1.000  C
  C309     1.0000 0.54110  0.64410  0.08982  Biso   1.000  C
  H211     1.0000 0.53440  0.66200  0.11860  Biso   1.000  H
  H212     1.0000 0.52340  0.61740  0.09050  Biso   1.000  H
  H213     1.0000 0.57220  0.63630  0.09000  Biso   1.000  H
  C310     1.0000 0.53809  0.65078  0.99887  Biso   1.000  C
  H214     1.0000 0.54830  0.62150  0.99860  Biso   1.000  H
  C311     1.0000 0.51800  0.73270  0.89870  Biso   1.000  C
  C312     1.0000 0.53196  0.67028  0.95370  Biso   1.000  C
  C313     1.0000 0.54460  0.64550  0.90826  Biso   1.000  C
  H215     1.0000 0.55660  0.61690  0.91740  Biso   1.000  H
  H216     1.0000 0.51880  0.64140  0.88760  Biso   1.000  H
  H217     1.0000 0.56680  0.66210  0.89020  Biso   1.000  H
  C314     1.0000 0.93478  0.84376  0.08997  Biso   1.000  C
  H218     1.0000 0.94800  0.83050  0.11910  Biso   1.000  H
  H219     1.0000 0.94290  0.87470  0.08830  Biso   1.000  H
  H220     1.0000 0.90290  0.84110  0.09190  Biso   1.000  H
  C315     1.0000 0.95105  0.82055  0.04495  Biso   1.000  C
  C316     1.0000 0.93634  0.83470  0.99918  Biso   1.000  C
  H221     1.0000 0.91350  0.85580  0.99900  Biso   1.000  H
  C317     1.0000 0.52430  0.75260  0.64960  Biso   1.000  C
  C318     1.0000 0.95165  0.82105  0.95426  Biso   1.000  C
  C319     1.0000 0.93689  0.84393  0.90834  Biso   1.000  C
  H222     1.0000 0.91590  0.86700  0.91680  Biso   1.000  H
  H223     1.0000 0.96220  0.85690  0.89190  Biso   1.000  H
  H224     1.0000 0.92290  0.82280  0.88640  Biso   1.000  H
  C320     1.0000 0.99800  0.77500  0.09960  Biso   1.000  C
  Mn9      1.0000 0.00000  0.75000  0.24932  Biso   1.000  Mn
  Mn10     1.0000 0.50000  0.25000  0.74932  Biso   1.000  Mn
  Mn11     1.0000 0.50000  0.75000  0.99932  Biso   1.000  Mn
  Mn12     1.0000 0.00000  0.25000  0.49932  Biso   1.000  Mn
  Mn13     1.0000 0.00000  0.25000  0.24960  Biso   1.000  Mn
  Mn14     1.0000 0.50000  0.75000  0.74960  Biso   1.000  Mn
  Mn15     1.0000 0.00000  0.75000  0.99960  Biso   1.000  Mn
  Mn16     1.0000 0.50000  0.25000  0.49960  Biso   1.000  Mn
