data_ALULEZ_clean
_audit_creation_date              2014-07-02
_audit_creation_method            'Materials Studio'
_symmetry_space_group_name_H-M    'P1'
_symmetry_Int_Tables_number       1
_symmetry_cell_setting            triclinic
loop_
_symmetry_equiv_pos_as_xyz
  x,y,z
_cell_length_a                    34.5146
_cell_length_b                    34.5146
_cell_length_c                    34.5146
_cell_angle_alpha                 109.4710
_cell_angle_beta                  109.4710
_cell_angle_gamma                 109.4710
loop_
_atom_site_label
_atom_site_type_symbol
_atom_site_fract_x
_atom_site_fract_y
_atom_site_fract_z
_atom_site_U_iso_or_equiv
_atom_site_adp_type
_atom_site_occupancy
Ce1    Ce    0.50000   0.50000   0.00000   0.01267  Uiso   1.00
Ce2    Ce    0.00000   0.50000   0.50000   0.01267  Uiso   1.00
Ce3    Ce    0.50000   1.00000   0.50000   0.01267  Uiso   1.00
Ce4    Ce    0.00000   0.00000   0.00000   0.01267  Uiso   1.00
Ce5    Ce    0.61713   0.61713   0.11713   0.01267  Uiso   1.00
Ce6    Ce    0.00000   0.50000   0.38287   0.01267  Uiso   1.00
Ce7    Ce    0.50000   0.88287   0.50000   0.01267  Uiso   1.00
Ce8    Ce    0.88287  -0.00000   0.00000   0.01267  Uiso   1.00
Ce9    Ce    0.38287   0.38287   0.88287   0.01267  Uiso   1.00
Ce10   Ce    1.00000   0.50000   0.61713   0.01267  Uiso   1.00
Ce11   Ce    0.50000   0.11713   0.50000   0.01267  Uiso   1.00
Ce12   Ce    0.11713  -0.00000   0.00000   0.01267  Uiso   1.00
H1     H     0.76430   0.90420   0.03230   0.01267  Uiso   1.00
H2     H     0.71500   0.83960   0.02700   0.01267  Uiso   1.00
H3     H     0.73160   0.75710   0.92630   0.01267  Uiso   1.00
H4     H     0.78340   0.82520   0.93240   0.01267  Uiso   1.00
H5     H     0.59520   0.58920   0.93880   0.01267  Uiso   1.00
H6     H     0.63990   0.65210   0.93300   0.01267  Uiso   1.00
H7     H     0.63530   0.74100   0.04050   0.01267  Uiso   1.00
H8     H     0.59420   0.67590   0.04770   0.01267  Uiso   1.00
H9     H     0.37190   0.73200   0.46770   0.01267  Uiso   1.00
H10    H     0.31260   0.68800   0.47300   0.01267  Uiso   1.00
H11    H     0.33080   0.80530   0.57370   0.01267  Uiso   1.00
H12    H     0.39280   0.85100   0.56760   0.01267  Uiso   1.00
H13    H     0.15040   0.65640   0.56120   0.01267  Uiso   1.00
H14    H     0.21910   0.70690   0.56700   0.01267  Uiso   1.00
H15    H     0.20050   0.59480   0.45950   0.01267  Uiso   1.00
H16    H     0.12820   0.54650   0.45230   0.01267  Uiso   1.00
H17    H     0.12810   0.59580   0.36010   0.01267  Uiso   1.00
H18    H     0.18740   0.66040   0.37540   0.01267  Uiso   1.00
H19    H     0.16920   0.74290   0.47450   0.01267  Uiso   1.00
H20    H     0.10720   0.67480   0.45820   0.01267  Uiso   1.00
H21    H     0.34960   0.91080   0.50600   0.01267  Uiso   1.00
H22    H     0.28090   0.84790   0.48780   0.01267  Uiso   1.00
H23    H     0.29950   0.75900   0.39430   0.01267  Uiso   1.00
H24    H     0.37180   0.82410   0.41830   0.01267  Uiso   1.00
H25    H     0.73570   0.76800   0.13990   0.01267  Uiso   1.00
H26    H     0.78500   0.81200   0.12460   0.01267  Uiso   1.00
H27    H     0.76840   0.69470   0.02550   0.01267  Uiso   1.00
H28    H     0.71660   0.64900   0.04180   0.01267  Uiso   1.00
H29    H     0.90480   0.84360   0.99400   0.01267  Uiso   1.00
H30    H     0.86010   0.79310   0.01220   0.01267  Uiso   1.00
H31    H     0.86470   0.90520   0.10570   0.01267  Uiso   1.00
H32    H     0.90580   0.95350   0.08170   0.01267  Uiso   1.00
H33    H     0.86010   0.12810   0.09580   0.01267  Uiso   1.00
H34    H     0.87540   0.18740   0.16040   0.01267  Uiso   1.00
H35    H     0.97450   0.16920   0.24290   0.01267  Uiso   1.00
H36    H     0.95820   0.10720   0.17480   0.01267  Uiso   1.00
H37    H     0.00600   0.34960   0.41080   0.01267  Uiso   1.00
H38    H     0.98780   0.28090   0.34790   0.01267  Uiso   1.00
H39    H     0.89430   0.29950   0.25900   0.01267  Uiso   1.00
H40    H     0.91830   0.37180   0.32410   0.01267  Uiso   1.00
H41    H     0.63990   0.73570   0.26800   0.01267  Uiso   1.00
H42    H     0.62460   0.78500   0.31200   0.01267  Uiso   1.00
H43    H     0.52550   0.76840   0.19470   0.01267  Uiso   1.00
H44    H     0.54180   0.71660   0.14900   0.01267  Uiso   1.00
H45    H     0.49400   0.90480   0.34360   0.01267  Uiso   1.00
H46    H     0.51220   0.86010   0.29310   0.01267  Uiso   1.00
H47    H     0.60570   0.86470   0.40520   0.01267  Uiso   1.00
H48    H     0.58170   0.90580   0.45350   0.01267  Uiso   1.00
H49    H     0.53230   0.76430   0.40420   0.01267  Uiso   1.00
H50    H     0.52700   0.71500   0.33960   0.01267  Uiso   1.00
H51    H     0.42630   0.73160   0.25710   0.01267  Uiso   1.00
H52    H     0.43240   0.78340   0.32520   0.01267  Uiso   1.00
H53    H     0.43880   0.59520   0.08920   0.01267  Uiso   1.00
H54    H     0.43300   0.63990   0.15210   0.01267  Uiso   1.00
H55    H     0.54050   0.63530   0.24100   0.01267  Uiso   1.00
H56    H     0.54770   0.59420   0.17590   0.01267  Uiso   1.00
H57    H     0.96770   0.37190   0.23200   0.01267  Uiso   1.00
H58    H     0.97300   0.31260   0.18800   0.01267  Uiso   1.00
H59    H     0.07370   0.33080   0.30530   0.01267  Uiso   1.00
H60    H     0.06760   0.39280   0.35100   0.01267  Uiso   1.00
H61    H     0.06120   0.15040   0.15640   0.01267  Uiso   1.00
H62    H     0.06700   0.21910   0.20690   0.01267  Uiso   1.00
H63    H     0.95950   0.20050   0.09480   0.01267  Uiso   1.00
H64    H     0.95230   0.12820   0.04650   0.01267  Uiso   1.00
H65    H     0.73200   0.96770   0.87190   0.01267  Uiso   1.00
H66    H     0.68800   0.97300   0.81260   0.01267  Uiso   1.00
H67    H     0.80530   0.07370   0.83080   0.01267  Uiso   1.00
H68    H     0.85100   0.06760   0.89280   0.01267  Uiso   1.00
H69    H     0.65640   0.06120   0.65040   0.01267  Uiso   1.00
H70    H     0.70690   0.06700   0.71910   0.01267  Uiso   1.00
H71    H     0.59480   0.95950   0.70050   0.01267  Uiso   1.00
H72    H     0.54650   0.95230   0.62820   0.01267  Uiso   1.00
H73    H     0.90420   0.53230   0.26430   0.01267  Uiso   1.00
H74    H     0.83960   0.52700   0.21500   0.01267  Uiso   1.00
H75    H     0.75710   0.42630   0.23160   0.01267  Uiso   1.00
H76    H     0.82520   0.43240   0.28340   0.01267  Uiso   1.00
H77    H     0.58920   0.43880   0.09520   0.01267  Uiso   1.00
H78    H     0.65210   0.43300   0.13990   0.01267  Uiso   1.00
H79    H     0.74100   0.54050   0.13530   0.01267  Uiso   1.00
H80    H     0.67590   0.54770   0.09420   0.01267  Uiso   1.00
H81    H     0.76800   0.63990   0.23570   0.01267  Uiso   1.00
H82    H     0.81200   0.62460   0.28500   0.01267  Uiso   1.00
H83    H     0.69470   0.52550   0.26840   0.01267  Uiso   1.00
H84    H     0.64900   0.54180   0.21660   0.01267  Uiso   1.00
H85    H     0.84360   0.49400   0.40480   0.01267  Uiso   1.00
H86    H     0.79310   0.51220   0.36010   0.01267  Uiso   1.00
H87    H     0.90520   0.60570   0.36470   0.01267  Uiso   1.00
H88    H     0.95350   0.58170   0.40580   0.01267  Uiso   1.00
H89    H     0.59580   0.86010   0.62810   0.01267  Uiso   1.00
H90    H     0.66040   0.87540   0.68740   0.01267  Uiso   1.00
H91    H     0.74290   0.97450   0.66920   0.01267  Uiso   1.00
H92    H     0.67480   0.95820   0.60720   0.01267  Uiso   1.00
H93    H     0.91080   0.00600   0.84960   0.01267  Uiso   1.00
H94    H     0.84790   0.98780   0.78090   0.01267  Uiso   1.00
H95    H     0.75900   0.89430   0.79950   0.01267  Uiso   1.00
H96    H     0.82410   0.91830   0.87180   0.01267  Uiso   1.00
H97    H     0.23570   0.09580   0.96770   0.01267  Uiso   1.00
H98    H     0.28500   0.16040   0.97300   0.01267  Uiso   1.00
H99    H     0.26840   0.24290   0.07370   0.01267  Uiso   1.00
H100   H     0.21660   0.17480   0.06760   0.01267  Uiso   1.00
H101   H     0.40480   0.41080   0.06120   0.01267  Uiso   1.00
H102   H     0.36010   0.34790   0.06700   0.01267  Uiso   1.00
H103   H     0.36470   0.25900   0.95950   0.01267  Uiso   1.00
H104   H     0.40580   0.32410   0.95230   0.01267  Uiso   1.00
H105   H     0.62810   0.26800   0.53230   0.01267  Uiso   1.00
H106   H     0.68740   0.31200   0.52700   0.01267  Uiso   1.00
H107   H     0.66920   0.19470   0.42630   0.01267  Uiso   1.00
H108   H     0.60720   0.14900   0.43240   0.01267  Uiso   1.00
H109   H     0.84960   0.34360   0.43880   0.01267  Uiso   1.00
H110   H     0.78090   0.29310   0.43300   0.01267  Uiso   1.00
H111   H     0.79950   0.40520   0.54050   0.01267  Uiso   1.00
H112   H     0.87180   0.45350   0.54770   0.01267  Uiso   1.00
H113   H     0.87190   0.40420   0.63990   0.01267  Uiso   1.00
H114   H     0.81260   0.33960   0.62460   0.01267  Uiso   1.00
H115   H     0.83080   0.25710   0.52550   0.01267  Uiso   1.00
H116   H     0.89280   0.32520   0.54180   0.01267  Uiso   1.00
H117   H     0.65040   0.08920   0.49400   0.01267  Uiso   1.00
H118   H     0.71910   0.15210   0.51220   0.01267  Uiso   1.00
H119   H     0.70050   0.24100   0.60570   0.01267  Uiso   1.00
H120   H     0.62820   0.17590   0.58170   0.01267  Uiso   1.00
H121   H     0.26430   0.23200   0.86010   0.01267  Uiso   1.00
H122   H     0.21500   0.18800   0.87540   0.01267  Uiso   1.00
H123   H     0.23160   0.30530   0.97450   0.01267  Uiso   1.00
H124   H     0.28340   0.35100   0.95820   0.01267  Uiso   1.00
H125   H     0.09520   0.15640   0.00600   0.01267  Uiso   1.00
H126   H     0.13990   0.20690   0.98780   0.01267  Uiso   1.00
H127   H     0.13530   0.09480   0.89430   0.01267  Uiso   1.00
H128   H     0.09420   0.04650   0.91830   0.01267  Uiso   1.00
H129   H     0.13990   0.87190   0.90420   0.01267  Uiso   1.00
H130   H     0.12460   0.81260   0.83960   0.01267  Uiso   1.00
H131   H     0.02550   0.83080   0.75710   0.01267  Uiso   1.00
H132   H     0.04180   0.89280   0.82520   0.01267  Uiso   1.00
H133   H     0.99400   0.65040   0.58920   0.01267  Uiso   1.00
H134   H     0.01220   0.71910   0.65210   0.01267  Uiso   1.00
H135   H     0.10570   0.70050   0.74100   0.01267  Uiso   1.00
H136   H     0.08170   0.62820   0.67590   0.01267  Uiso   1.00
H137   H     0.36010   0.26430   0.73200   0.01267  Uiso   1.00
H138   H     0.37540   0.21500   0.68800   0.01267  Uiso   1.00
H139   H     0.47450   0.23160   0.80530   0.01267  Uiso   1.00
H140   H     0.45820   0.28340   0.85100   0.01267  Uiso   1.00
H141   H     0.50600   0.09520   0.65640   0.01267  Uiso   1.00
H142   H     0.48780   0.13990   0.70690   0.01267  Uiso   1.00
H143   H     0.39430   0.13530   0.59480   0.01267  Uiso   1.00
H144   H     0.41830   0.09420   0.54650   0.01267  Uiso   1.00
H145   H     0.46770   0.23570   0.59580   0.01267  Uiso   1.00
H146   H     0.47300   0.28500   0.66040   0.01267  Uiso   1.00
H147   H     0.57370   0.26840   0.74290   0.01267  Uiso   1.00
H148   H     0.56760   0.21660   0.67480   0.01267  Uiso   1.00
H149   H     0.56120   0.40480   0.91080   0.01267  Uiso   1.00
H150   H     0.56700   0.36010   0.84790   0.01267  Uiso   1.00
H151   H     0.45950   0.36470   0.75900   0.01267  Uiso   1.00
H152   H     0.45230   0.40580   0.82410   0.01267  Uiso   1.00
H153   H     0.03230   0.62810   0.76800   0.01267  Uiso   1.00
H154   H     0.02700   0.68740   0.81200   0.01267  Uiso   1.00
H155   H     0.92630   0.66920   0.69470   0.01267  Uiso   1.00
H156   H     0.93240   0.60720   0.64900   0.01267  Uiso   1.00
H157   H     0.93880   0.84960   0.84360   0.01267  Uiso   1.00
H158   H     0.93300   0.78090   0.79310   0.01267  Uiso   1.00
H159   H     0.04050   0.79950   0.90520   0.01267  Uiso   1.00
H160   H     0.04770   0.87180   0.95350   0.01267  Uiso   1.00
H161   H     0.26800   0.03230   0.12810   0.01267  Uiso   1.00
H162   H     0.31200   0.02700   0.18740   0.01267  Uiso   1.00
H163   H     0.19470   0.92630   0.16920   0.01267  Uiso   1.00
H164   H     0.14900   0.93240   0.10720   0.01267  Uiso   1.00
H165   H     0.34360   0.93880   0.34960   0.01267  Uiso   1.00
H166   H     0.29310   0.93300   0.28090   0.01267  Uiso   1.00
H167   H     0.40520   0.04050   0.29950   0.01267  Uiso   1.00
H168   H     0.45350   0.04770   0.37180   0.01267  Uiso   1.00
H169   H     0.09580   0.46770   0.73570   0.01267  Uiso   1.00
H170   H     0.16040   0.47300   0.78500   0.01267  Uiso   1.00
H171   H     0.24290   0.57370   0.76840   0.01267  Uiso   1.00
H172   H     0.17480   0.56760   0.71660   0.01267  Uiso   1.00
H173   H     0.41080   0.56120   0.90480   0.01267  Uiso   1.00
H174   H     0.34790   0.56700   0.86010   0.01267  Uiso   1.00
H175   H     0.25900   0.45950   0.86470   0.01267  Uiso   1.00
H176   H     0.32410   0.45230   0.90580   0.01267  Uiso   1.00
H177   H     0.23200   0.36010   0.76430   0.01267  Uiso   1.00
H178   H     0.18800   0.37540   0.71500   0.01267  Uiso   1.00
H179   H     0.30530   0.47450   0.73160   0.01267  Uiso   1.00
H180   H     0.35100   0.45820   0.78340   0.01267  Uiso   1.00
H181   H     0.15640   0.50600   0.59520   0.01267  Uiso   1.00
H182   H     0.20690   0.48780   0.63990   0.01267  Uiso   1.00
H183   H     0.09480   0.39430   0.63530   0.01267  Uiso   1.00
H184   H     0.04650   0.41830   0.59420   0.01267  Uiso   1.00
H185   H     0.40420   0.13990   0.37190   0.01267  Uiso   1.00
H186   H     0.33960   0.12460   0.31260   0.01267  Uiso   1.00
H187   H     0.25710   0.02550   0.33080   0.01267  Uiso   1.00
H188   H     0.32520   0.04180   0.39280   0.01267  Uiso   1.00
H189   H     0.08920   0.99400   0.15040   0.01267  Uiso   1.00
H190   H     0.15210   0.01220   0.21910   0.01267  Uiso   1.00
H191   H     0.24100   0.10570   0.20050   0.01267  Uiso   1.00
H192   H     0.17590   0.08170   0.12820   0.01267  Uiso   1.00
C1     C     0.81127   0.91461   0.98626   0.01267  Uiso   1.00
C2     C     0.77885   0.87145   0.98272   0.01267  Uiso   1.00
C3     C     0.75771   0.87466   0.01105   0.01267  Uiso   1.00
C4     C     0.72880   0.83643   0.00795   0.01267  Uiso   1.00
C5     C     0.71743   0.78985   0.97638   0.01267  Uiso   1.00
C6     C     0.73841   0.78671   0.94774   0.01267  Uiso   1.00
C7     C     0.76922   0.82738   0.95112   0.01267  Uiso   1.00
C8     C     0.56489   0.58636   0.99829   0.01267  Uiso   1.00
C9     C     0.58918   0.62658   0.99284   0.01267  Uiso   1.00
C10    C     0.60359   0.61982   0.95933   0.01267  Uiso   1.00
C11    C     0.62993   0.65671   0.95534   0.01267  Uiso   1.00
C12    C     0.64046   0.70085   0.98655   0.01267  Uiso   1.00
C13    C     0.62765   0.71044   0.02065   0.01267  Uiso   1.00
C14    C     0.60215   0.67114   0.02393   0.01267  Uiso   1.00
C15    C     0.42835   0.82501   0.51374   0.01267  Uiso   1.00
C16    C     0.38873   0.79613   0.51728   0.01267  Uiso   1.00
C17    C     0.36361   0.74666   0.48895   0.01267  Uiso   1.00
C18    C     0.32848   0.72085   0.49205   0.01267  Uiso   1.00
C19    C     0.31347   0.74105   0.52362   0.01267  Uiso   1.00
C20    C     0.33897   0.79067   0.55226   0.01267  Uiso   1.00
C21    C     0.37626   0.81810   0.54888   0.01267  Uiso   1.00
C22    C     0.08807   0.56660   0.50171   0.01267  Uiso   1.00
C23    C     0.13374   0.59634   0.50716   0.01267  Uiso   1.00
C24    C     0.16049   0.64426   0.54067   0.01267  Uiso   1.00
C25    C     0.20137   0.67459   0.54466   0.01267  Uiso   1.00
C26    C     0.21430   0.65391   0.51345   0.01267  Uiso   1.00
C27    C     0.18979   0.60700   0.47935   0.01267  Uiso   1.00
C28    C     0.14721   0.57822   0.47607   0.01267  Uiso   1.00
C29    C     0.07165   0.58539   0.39666   0.01267  Uiso   1.00
C30    C     0.11127   0.62855   0.40740   0.01267  Uiso   1.00
C31    C     0.13639   0.62534   0.38305   0.01267  Uiso   1.00
C32    C     0.17152   0.66357   0.39237   0.01267  Uiso   1.00
C33    C     0.18653   0.71015   0.42758   0.01267  Uiso   1.00
C34    C     0.16103   0.71329   0.45170   0.01267  Uiso   1.00
C35    C     0.12374   0.67262   0.44184   0.01267  Uiso   1.00
C36    C     0.41193   0.91364   0.47853   0.01267  Uiso   1.00
C37    C     0.36626   0.87342   0.46260   0.01267  Uiso   1.00
C38    C     0.33951   0.88018   0.48377   0.01267  Uiso   1.00
C39    C     0.29863   0.84329   0.47322   0.01267  Uiso   1.00
C40    C     0.28570   0.79915   0.43961   0.01267  Uiso   1.00
C41    C     0.31021   0.78956   0.41721   0.01267  Uiso   1.00
C42    C     0.35279   0.82886   0.43101   0.01267  Uiso   1.00
C43    C     0.68873   0.67499   0.10334   0.01267  Uiso   1.00
C44    C     0.72115   0.70387   0.09260   0.01267  Uiso   1.00
C45    C     0.74229   0.75334   0.11695   0.01267  Uiso   1.00
C46    C     0.77120   0.77915   0.10763   0.01267  Uiso   1.00
C47    C     0.78257   0.75895   0.07242   0.01267  Uiso   1.00
C48    C     0.76159   0.70933   0.04830   0.01267  Uiso   1.00
C49    C     0.73078   0.68190   0.05816   0.01267  Uiso   1.00
C50    C     0.93511   0.93340   0.02147   0.01267  Uiso   1.00
C51    C     0.91082   0.90366   0.03740   0.01267  Uiso   1.00
C52    C     0.89641   0.85574   0.01623   0.01267  Uiso   1.00
C53    C     0.87007   0.82541   0.02678   0.01267  Uiso   1.00
C54    C     0.85954   0.84609   0.06039   0.01267  Uiso   1.00
C55    C     0.87235   0.89300   0.08279   0.01267  Uiso   1.00
C56    C     0.89785   0.92178   0.06899   0.01267  Uiso   1.00
C57    C     0.89666   0.07165   0.08539   0.01267  Uiso   1.00
C58    C     0.90740   0.11127   0.12855   0.01267  Uiso   1.00
C59    C     0.88305   0.13639   0.12534   0.01267  Uiso   1.00
C60    C     0.89237   0.17152   0.16357   0.01267  Uiso   1.00
C61    C     0.92758   0.18653   0.21015   0.01267  Uiso   1.00
C62    C     0.95170   0.16103   0.21329   0.01267  Uiso   1.00
C63    C     0.94184   0.12374   0.17262   0.01267  Uiso   1.00
C64    C     0.97853   0.41193   0.41364   0.01267  Uiso   1.00
C65    C     0.96260   0.36626   0.37342   0.01267  Uiso   1.00
C66    C     0.98377   0.33951   0.38018   0.01267  Uiso   1.00
C67    C     0.97322   0.29863   0.34329   0.01267  Uiso   1.00
C68    C     0.93961   0.28570   0.29915   0.01267  Uiso   1.00
C69    C     0.91721   0.31021   0.28956   0.01267  Uiso   1.00
C70    C     0.93101   0.35279   0.32886   0.01267  Uiso   1.00
C71    C     0.60334   0.68873   0.17499   0.01267  Uiso   1.00
C72    C     0.59260   0.72115   0.20387   0.01267  Uiso   1.00
C73    C     0.61695   0.74229   0.25334   0.01267  Uiso   1.00
C74    C     0.60763   0.77120   0.27915   0.01267  Uiso   1.00
C75    C     0.57242   0.78257   0.25895   0.01267  Uiso   1.00
C76    C     0.54830   0.76159   0.20933   0.01267  Uiso   1.00
C77    C     0.55816   0.73078   0.18190   0.01267  Uiso   1.00
C78    C     0.52147   0.93511   0.43340   0.01267  Uiso   1.00
C79    C     0.53740   0.91082   0.40366   0.01267  Uiso   1.00
C80    C     0.51623   0.89641   0.35574   0.01267  Uiso   1.00
C81    C     0.52678   0.87007   0.32541   0.01267  Uiso   1.00
C82    C     0.56039   0.85954   0.34609   0.01267  Uiso   1.00
C83    C     0.58279   0.87235   0.39300   0.01267  Uiso   1.00
C84    C     0.56899   0.89785   0.42178   0.01267  Uiso   1.00
C85    C     0.48626   0.81127   0.41461   0.01267  Uiso   1.00
C86    C     0.48272   0.77885   0.37145   0.01267  Uiso   1.00
C87    C     0.51105   0.75771   0.37466   0.01267  Uiso   1.00
C88    C     0.50795   0.72880   0.33643   0.01267  Uiso   1.00
C89    C     0.47638   0.71743   0.28985   0.01267  Uiso   1.00
C90    C     0.44774   0.73841   0.28671   0.01267  Uiso   1.00
C91    C     0.45112   0.76922   0.32738   0.01267  Uiso   1.00
C92    C     0.49829   0.56489   0.08636   0.01267  Uiso   1.00
C93    C     0.49284   0.58918   0.12658   0.01267  Uiso   1.00
C94    C     0.45933   0.60359   0.11982   0.01267  Uiso   1.00
C95    C     0.45534   0.62993   0.15671   0.01267  Uiso   1.00
C96    C     0.48655   0.64046   0.20085   0.01267  Uiso   1.00
C97    C     0.52065   0.62765   0.21044   0.01267  Uiso   1.00
C98    C     0.52393   0.60215   0.17114   0.01267  Uiso   1.00
C99    C     0.01374   0.42835   0.32501   0.01267  Uiso   1.00
C100   C     0.01728   0.38873   0.29613   0.01267  Uiso   1.00
C101   C     0.98895   0.36361   0.24666   0.01267  Uiso   1.00
C102   C     0.99205   0.32848   0.22085   0.01267  Uiso   1.00
C103   C     0.02362   0.31347   0.24105   0.01267  Uiso   1.00
C104   C     0.05226   0.33897   0.29067   0.01267  Uiso   1.00
C105   C     0.04888   0.37626   0.31810   0.01267  Uiso   1.00
C106   C     0.00171   0.08807   0.06660   0.01267  Uiso   1.00
C107   C     0.00716   0.13374   0.09634   0.01267  Uiso   1.00
C108   C     0.04067   0.16049   0.14426   0.01267  Uiso   1.00
C109   C     0.04466   0.20137   0.17459   0.01267  Uiso   1.00
C110   C     0.01345   0.21430   0.15391   0.01267  Uiso   1.00
C111   C     0.97935   0.18979   0.10700   0.01267  Uiso   1.00
C112   C     0.97607   0.14721   0.07822   0.01267  Uiso   1.00
C113   C     0.82501   0.01374   0.92835   0.01267  Uiso   1.00
C114   C     0.79613   0.01728   0.88873   0.01267  Uiso   1.00
C115   C     0.74666   0.98895   0.86361   0.01267  Uiso   1.00
C116   C     0.72085   0.99205   0.82848   0.01267  Uiso   1.00
C117   C     0.74105   0.02362   0.81347   0.01267  Uiso   1.00
C118   C     0.79067   0.05226   0.83897   0.01267  Uiso   1.00
C119   C     0.81810   0.04888   0.87626   0.01267  Uiso   1.00
C120   C     0.56660   0.00171   0.58807   0.01267  Uiso   1.00
C121   C     0.59634   0.00716   0.63374   0.01267  Uiso   1.00
C122   C     0.64426   0.04067   0.66049   0.01267  Uiso   1.00
C123   C     0.67459   0.04466   0.70137   0.01267  Uiso   1.00
C124   C     0.65391   0.01345   0.71430   0.01267  Uiso   1.00
C125   C     0.60700   0.97935   0.68979   0.01267  Uiso   1.00
C126   C     0.57822   0.97607   0.64721   0.01267  Uiso   1.00
C127   C     0.91461   0.48626   0.31127   0.01267  Uiso   1.00
C128   C     0.87145   0.48272   0.27885   0.01267  Uiso   1.00
C129   C     0.87466   0.51105   0.25771   0.01267  Uiso   1.00
C130   C     0.83643   0.50795   0.22880   0.01267  Uiso   1.00
C131   C     0.78985   0.47638   0.21743   0.01267  Uiso   1.00
C132   C     0.78671   0.44774   0.23841   0.01267  Uiso   1.00
C133   C     0.82738   0.45112   0.26922   0.01267  Uiso   1.00
C134   C     0.58636   0.49829   0.06489   0.01267  Uiso   1.00
C135   C     0.62658   0.49284   0.08918   0.01267  Uiso   1.00
C136   C     0.61982   0.45933   0.10359   0.01267  Uiso   1.00
C137   C     0.65671   0.45534   0.12993   0.01267  Uiso   1.00
C138   C     0.70085   0.48655   0.14046   0.01267  Uiso   1.00
C139   C     0.71044   0.52065   0.12765   0.01267  Uiso   1.00
C140   C     0.67114   0.52393   0.10215   0.01267  Uiso   1.00
C141   C     0.67499   0.60334   0.18873   0.01267  Uiso   1.00
C142   C     0.70387   0.59260   0.22115   0.01267  Uiso   1.00
C143   C     0.75334   0.61695   0.24229   0.01267  Uiso   1.00
C144   C     0.77915   0.60763   0.27120   0.01267  Uiso   1.00
C145   C     0.75895   0.57242   0.28257   0.01267  Uiso   1.00
C146   C     0.70933   0.54830   0.26159   0.01267  Uiso   1.00
C147   C     0.68190   0.55816   0.23078   0.01267  Uiso   1.00
C148   C     0.93340   0.52147   0.43511   0.01267  Uiso   1.00
C149   C     0.90366   0.53740   0.41082   0.01267  Uiso   1.00
C150   C     0.85574   0.51623   0.39641   0.01267  Uiso   1.00
C151   C     0.82541   0.52678   0.37007   0.01267  Uiso   1.00
C152   C     0.84609   0.56039   0.35954   0.01267  Uiso   1.00
C153   C     0.89300   0.58279   0.37235   0.01267  Uiso   1.00
C154   C     0.92178   0.56899   0.39785   0.01267  Uiso   1.00
C155   C     0.58539   0.89666   0.57165   0.01267  Uiso   1.00
C156   C     0.62855   0.90740   0.61127   0.01267  Uiso   1.00
C157   C     0.62534   0.88305   0.63639   0.01267  Uiso   1.00
C158   C     0.66357   0.89237   0.67152   0.01267  Uiso   1.00
C159   C     0.71015   0.92758   0.68653   0.01267  Uiso   1.00
C160   C     0.71329   0.95170   0.66103   0.01267  Uiso   1.00
C161   C     0.67262   0.94184   0.62374   0.01267  Uiso   1.00
C162   C     0.91364   0.97853   0.91193   0.01267  Uiso   1.00
C163   C     0.87342   0.96260   0.86626   0.01267  Uiso   1.00
C164   C     0.88018   0.98377   0.83951   0.01267  Uiso   1.00
C165   C     0.84329   0.97322   0.79863   0.01267  Uiso   1.00
C166   C     0.79915   0.93961   0.78570   0.01267  Uiso   1.00
C167   C     0.78956   0.91721   0.81021   0.01267  Uiso   1.00
C168   C     0.82886   0.93101   0.85279   0.01267  Uiso   1.00
C169   C     0.18873   0.08539   0.01374   0.01267  Uiso   1.00
C170   C     0.22115   0.12855   0.01728   0.01267  Uiso   1.00
C171   C     0.24229   0.12534   0.98895   0.01267  Uiso   1.00
C172   C     0.27120   0.16357   0.99205   0.01267  Uiso   1.00
C173   C     0.28257   0.21015   0.02362   0.01267  Uiso   1.00
C174   C     0.26159   0.21329   0.05226   0.01267  Uiso   1.00
C175   C     0.23078   0.17262   0.04888   0.01267  Uiso   1.00
C176   C     0.43511   0.41364   0.00171   0.01267  Uiso   1.00
C177   C     0.41082   0.37342   0.00716   0.01267  Uiso   1.00
C178   C     0.39641   0.38018   0.04067   0.01267  Uiso   1.00
C179   C     0.37007   0.34329   0.04466   0.01267  Uiso   1.00
C180   C     0.35954   0.29915   0.01345   0.01267  Uiso   1.00
C181   C     0.37235   0.28956   0.97935   0.01267  Uiso   1.00
C182   C     0.39785   0.32886   0.97607   0.01267  Uiso   1.00
C183   C     0.57165   0.17499   0.48626   0.01267  Uiso   1.00
C184   C     0.61127   0.20387   0.48272   0.01267  Uiso   1.00
C185   C     0.63639   0.25334   0.51105   0.01267  Uiso   1.00
C186   C     0.67152   0.27915   0.50795   0.01267  Uiso   1.00
C187   C     0.68653   0.25895   0.47638   0.01267  Uiso   1.00
C188   C     0.66103   0.20933   0.44774   0.01267  Uiso   1.00
C189   C     0.62374   0.18190   0.45112   0.01267  Uiso   1.00
C190   C     0.91193   0.43340   0.49829   0.01267  Uiso   1.00
C191   C     0.86626   0.40366   0.49284   0.01267  Uiso   1.00
C192   C     0.83951   0.35574   0.45933   0.01267  Uiso   1.00
C193   C     0.79863   0.32541   0.45534   0.01267  Uiso   1.00
C194   C     0.78570   0.34609   0.48655   0.01267  Uiso   1.00
C195   C     0.81021   0.39300   0.52065   0.01267  Uiso   1.00
C196   C     0.85279   0.42178   0.52393   0.01267  Uiso   1.00
C197   C     0.92835   0.41461   0.60334   0.01267  Uiso   1.00
C198   C     0.88873   0.37145   0.59260   0.01267  Uiso   1.00
C199   C     0.86361   0.37466   0.61695   0.01267  Uiso   1.00
C200   C     0.82848   0.33643   0.60763   0.01267  Uiso   1.00
C201   C     0.81347   0.28985   0.57242   0.01267  Uiso   1.00
C202   C     0.83897   0.28671   0.54830   0.01267  Uiso   1.00
C203   C     0.87626   0.32738   0.55816   0.01267  Uiso   1.00
C204   C     0.58807   0.08636   0.52147   0.01267  Uiso   1.00
C205   C     0.63374   0.12658   0.53740   0.01267  Uiso   1.00
C206   C     0.66049   0.11982   0.51623   0.01267  Uiso   1.00
C207   C     0.70137   0.15671   0.52678   0.01267  Uiso   1.00
C208   C     0.71430   0.20085   0.56039   0.01267  Uiso   1.00
C209   C     0.68979   0.21044   0.58279   0.01267  Uiso   1.00
C210   C     0.64721   0.17114   0.56899   0.01267  Uiso   1.00
C211   C     0.31127   0.32501   0.89666   0.01267  Uiso   1.00
C212   C     0.27885   0.29613   0.90740   0.01267  Uiso   1.00
C213   C     0.25771   0.24666   0.88305   0.01267  Uiso   1.00
C214   C     0.22880   0.22085   0.89237   0.01267  Uiso   1.00
C215   C     0.21743   0.24105   0.92758   0.01267  Uiso   1.00
C216   C     0.23841   0.29067   0.95170   0.01267  Uiso   1.00
C217   C     0.26922   0.31810   0.94184   0.01267  Uiso   1.00
C218   C     0.06489   0.06660   0.97853   0.01267  Uiso   1.00
C219   C     0.08918   0.09634   0.96260   0.01267  Uiso   1.00
C220   C     0.10359   0.14426   0.98377   0.01267  Uiso   1.00
C221   C     0.12993   0.17459   0.97322   0.01267  Uiso   1.00
C222   C     0.14046   0.15391   0.93961   0.01267  Uiso   1.00
C223   C     0.12765   0.10700   0.91721   0.01267  Uiso   1.00
C224   C     0.10215   0.07822   0.93101   0.01267  Uiso   1.00
C225   C     0.10334   0.92835   0.91461   0.01267  Uiso   1.00
C226   C     0.09260   0.88873   0.87145   0.01267  Uiso   1.00
C227   C     0.11695   0.86361   0.87466   0.01267  Uiso   1.00
C228   C     0.10763   0.82848   0.83643   0.01267  Uiso   1.00
C229   C     0.07242   0.81347   0.78985   0.01267  Uiso   1.00
C230   C     0.04830   0.83897   0.78671   0.01267  Uiso   1.00
C231   C     0.05816   0.87626   0.82738   0.01267  Uiso   1.00
C232   C     0.02147   0.58807   0.58636   0.01267  Uiso   1.00
C233   C     0.03740   0.63374   0.62658   0.01267  Uiso   1.00
C234   C     0.01623   0.66049   0.61982   0.01267  Uiso   1.00
C235   C     0.02678   0.70137   0.65671   0.01267  Uiso   1.00
C236   C     0.06039   0.71430   0.70085   0.01267  Uiso   1.00
C237   C     0.08279   0.68979   0.71044   0.01267  Uiso   1.00
C238   C     0.06899   0.64721   0.67114   0.01267  Uiso   1.00
C239   C     0.39666   0.31127   0.82501   0.01267  Uiso   1.00
C240   C     0.40740   0.27885   0.79613   0.01267  Uiso   1.00
C241   C     0.38305   0.25771   0.74666   0.01267  Uiso   1.00
C242   C     0.39237   0.22880   0.72085   0.01267  Uiso   1.00
C243   C     0.42758   0.21743   0.74105   0.01267  Uiso   1.00
C244   C     0.45170   0.23841   0.79067   0.01267  Uiso   1.00
C245   C     0.44184   0.26922   0.81810   0.01267  Uiso   1.00
C246   C     0.47853   0.06489   0.56660   0.01267  Uiso   1.00
C247   C     0.46260   0.08918   0.59634   0.01267  Uiso   1.00
C248   C     0.48377   0.10359   0.64426   0.01267  Uiso   1.00
C249   C     0.47322   0.12993   0.67459   0.01267  Uiso   1.00
C250   C     0.43961   0.14046   0.65391   0.01267  Uiso   1.00
C251   C     0.41721   0.12765   0.60700   0.01267  Uiso   1.00
C252   C     0.43101   0.10215   0.57822   0.01267  Uiso   1.00
C253   C     0.51374   0.18873   0.58539   0.01267  Uiso   1.00
C254   C     0.51728   0.22115   0.62855   0.01267  Uiso   1.00
C255   C     0.48895   0.24229   0.62534   0.01267  Uiso   1.00
C256   C     0.49205   0.27120   0.66357   0.01267  Uiso   1.00
C257   C     0.52362   0.28257   0.71015   0.01267  Uiso   1.00
C258   C     0.55226   0.26159   0.71329   0.01267  Uiso   1.00
C259   C     0.54888   0.23078   0.67262   0.01267  Uiso   1.00
C260   C     0.50171   0.43511   0.91364   0.01267  Uiso   1.00
C261   C     0.50716   0.41082   0.87342   0.01267  Uiso   1.00
C262   C     0.54067   0.39641   0.88018   0.01267  Uiso   1.00
C263   C     0.54466   0.37007   0.84329   0.01267  Uiso   1.00
C264   C     0.51345   0.35954   0.79915   0.01267  Uiso   1.00
C265   C     0.47935   0.37235   0.78956   0.01267  Uiso   1.00
C266   C     0.47607   0.39785   0.82886   0.01267  Uiso   1.00
C267   C     0.98626   0.57165   0.67499   0.01267  Uiso   1.00
C268   C     0.98272   0.61127   0.70387   0.01267  Uiso   1.00
C269   C     0.01105   0.63639   0.75334   0.01267  Uiso   1.00
C270   C     0.00795   0.67152   0.77915   0.01267  Uiso   1.00
C271   C     0.97638   0.68653   0.75895   0.01267  Uiso   1.00
C272   C     0.94774   0.66103   0.70933   0.01267  Uiso   1.00
C273   C     0.95112   0.62374   0.68190   0.01267  Uiso   1.00
C274   C     0.99829   0.91193   0.93340   0.01267  Uiso   1.00
C275   C     0.99284   0.86626   0.90366   0.01267  Uiso   1.00
C276   C     0.95933   0.83951   0.85574   0.01267  Uiso   1.00
C277   C     0.95534   0.79863   0.82541   0.01267  Uiso   1.00
C278   C     0.98655   0.78570   0.84609   0.01267  Uiso   1.00
C279   C     0.02065   0.81021   0.89300   0.01267  Uiso   1.00
C280   C     0.02393   0.85279   0.92178   0.01267  Uiso   1.00
C281   C     0.17499   0.98626   0.07165   0.01267  Uiso   1.00
C282   C     0.20387   0.98272   0.11127   0.01267  Uiso   1.00
C283   C     0.25334   0.01105   0.13639   0.01267  Uiso   1.00
C284   C     0.27915   0.00795   0.17152   0.01267  Uiso   1.00
C285   C     0.25895   0.97638   0.18653   0.01267  Uiso   1.00
C286   C     0.20933   0.94774   0.16103   0.01267  Uiso   1.00
C287   C     0.18190   0.95112   0.12374   0.01267  Uiso   1.00
C288   C     0.43340   0.99829   0.41193   0.01267  Uiso   1.00
C289   C     0.40366   0.99284   0.36626   0.01267  Uiso   1.00
C290   C     0.35574   0.95933   0.33951   0.01267  Uiso   1.00
C291   C     0.32541   0.95534   0.29863   0.01267  Uiso   1.00
C292   C     0.34609   0.98655   0.28570   0.01267  Uiso   1.00
C293   C     0.39300   0.02065   0.31021   0.01267  Uiso   1.00
C294   C     0.42178   0.02393   0.35279   0.01267  Uiso   1.00
C295   C     0.08539   0.51374   0.68873   0.01267  Uiso   1.00
C296   C     0.12855   0.51728   0.72115   0.01267  Uiso   1.00
C297   C     0.12534   0.48895   0.74229   0.01267  Uiso   1.00
C298   C     0.16357   0.49205   0.77120   0.01267  Uiso   1.00
C299   C     0.21015   0.52362   0.78257   0.01267  Uiso   1.00
C300   C     0.21329   0.55226   0.76159   0.01267  Uiso   1.00
C301   C     0.17262   0.54888   0.73078   0.01267  Uiso   1.00
C302   C     0.41364   0.50171   0.93511   0.01267  Uiso   1.00
C303   C     0.37342   0.50716   0.91082   0.01267  Uiso   1.00
C304   C     0.38018   0.54067   0.89641   0.01267  Uiso   1.00
C305   C     0.34329   0.54466   0.87007   0.01267  Uiso   1.00
C306   C     0.29915   0.51345   0.85954   0.01267  Uiso   1.00
C307   C     0.28956   0.47935   0.87235   0.01267  Uiso   1.00
C308   C     0.32886   0.47607   0.89785   0.01267  Uiso   1.00
C309   C     0.32501   0.39666   0.81127   0.01267  Uiso   1.00
C310   C     0.29613   0.40740   0.77885   0.01267  Uiso   1.00
C311   C     0.24666   0.38305   0.75771   0.01267  Uiso   1.00
C312   C     0.22085   0.39237   0.72880   0.01267  Uiso   1.00
C313   C     0.24105   0.42758   0.71743   0.01267  Uiso   1.00
C314   C     0.29067   0.45170   0.73841   0.01267  Uiso   1.00
C315   C     0.31810   0.44184   0.76922   0.01267  Uiso   1.00
C316   C     0.06660   0.47853   0.56489   0.01267  Uiso   1.00
C317   C     0.09634   0.46260   0.58918   0.01267  Uiso   1.00
C318   C     0.14426   0.48377   0.60359   0.01267  Uiso   1.00
C319   C     0.17459   0.47322   0.62993   0.01267  Uiso   1.00
C320   C     0.15391   0.43961   0.64046   0.01267  Uiso   1.00
C321   C     0.10700   0.41721   0.62765   0.01267  Uiso   1.00
C322   C     0.07822   0.43101   0.60215   0.01267  Uiso   1.00
C323   C     0.41461   0.10334   0.42835   0.01267  Uiso   1.00
C324   C     0.37145   0.09260   0.38873   0.01267  Uiso   1.00
C325   C     0.37466   0.11695   0.36361   0.01267  Uiso   1.00
C326   C     0.33643   0.10763   0.32848   0.01267  Uiso   1.00
C327   C     0.28985   0.07242   0.31347   0.01267  Uiso   1.00
C328   C     0.28671   0.04830   0.33897   0.01267  Uiso   1.00
C329   C     0.32738   0.05816   0.37626   0.01267  Uiso   1.00
C330   C     0.08636   0.02147   0.08807   0.01267  Uiso   1.00
C331   C     0.12658   0.03740   0.13374   0.01267  Uiso   1.00
C332   C     0.11982   0.01623   0.16049   0.01267  Uiso   1.00
C333   C     0.15671   0.02678   0.20137   0.01267  Uiso   1.00
C334   C     0.20085   0.06039   0.21430   0.01267  Uiso   1.00
C335   C     0.21044   0.08279   0.18979   0.01267  Uiso   1.00
C336   C     0.17114   0.06899   0.14721   0.01267  Uiso   1.00
N1     N     0.68966   0.74526   0.96648   0.01267  Uiso   1.00
N2     N     0.66782   0.74259   0.98975   0.01267  Uiso   1.00
N3     N     0.27878   0.72318   0.53352   0.01267  Uiso   1.00
N4     N     0.25284   0.67807   0.51025   0.01267  Uiso   1.00
N5     N     0.22122   0.75474   0.44440   0.01267  Uiso   1.00
N6     N     0.24716   0.75741   0.42523   0.01267  Uiso   1.00
N7     N     0.81034   0.77682   0.05560   0.01267  Uiso   1.00
N8     N     0.83218   0.82193   0.07477   0.01267  Uiso   1.00
N9     N     0.94440   0.22122   0.25474   0.01267  Uiso   1.00
N10    N     0.92523   0.24716   0.25741   0.01267  Uiso   1.00
N11    N     0.55560   0.81034   0.27682   0.01267  Uiso   1.00
N12    N     0.57477   0.83218   0.32193   0.01267  Uiso   1.00
N13    N     0.46648   0.68966   0.24526   0.01267  Uiso   1.00
N14    N     0.48975   0.66782   0.24259   0.01267  Uiso   1.00
N15    N     0.03352   0.27878   0.22318   0.01267  Uiso   1.00
N16    N     0.01025   0.25284   0.17807   0.01267  Uiso   1.00
N17    N     0.72318   0.03352   0.77878   0.01267  Uiso   1.00
N18    N     0.67807   0.01025   0.75284   0.01267  Uiso   1.00
N19    N     0.74526   0.46648   0.18966   0.01267  Uiso   1.00
N20    N     0.74259   0.48975   0.16782   0.01267  Uiso   1.00
N21    N     0.77682   0.55560   0.31034   0.01267  Uiso   1.00
N22    N     0.82193   0.57477   0.33218   0.01267  Uiso   1.00
N23    N     0.75474   0.94440   0.72122   0.01267  Uiso   1.00
N24    N     0.75741   0.92523   0.74716   0.01267  Uiso   1.00
N25    N     0.31034   0.25474   0.03352   0.01267  Uiso   1.00
N26    N     0.33218   0.25741   0.01025   0.01267  Uiso   1.00
N27    N     0.72122   0.27682   0.46648   0.01267  Uiso   1.00
N28    N     0.74716   0.32193   0.48975   0.01267  Uiso   1.00
N29    N     0.77878   0.24526   0.55560   0.01267  Uiso   1.00
N30    N     0.75284   0.24259   0.57477   0.01267  Uiso   1.00
N31    N     0.18966   0.22318   0.94440   0.01267  Uiso   1.00
N32    N     0.16782   0.17807   0.92523   0.01267  Uiso   1.00
N33    N     0.05560   0.77878   0.74526   0.01267  Uiso   1.00
N34    N     0.07477   0.75284   0.74259   0.01267  Uiso   1.00
N35    N     0.44440   0.18966   0.72318   0.01267  Uiso   1.00
N36    N     0.42523   0.16782   0.67807   0.01267  Uiso   1.00
N37    N     0.53352   0.31034   0.75474   0.01267  Uiso   1.00
N38    N     0.51025   0.33218   0.75741   0.01267  Uiso   1.00
N39    N     0.96648   0.72122   0.77682   0.01267  Uiso   1.00
N40    N     0.98975   0.74716   0.82193   0.01267  Uiso   1.00
N41    N     0.27682   0.96648   0.22122   0.01267  Uiso   1.00
N42    N     0.32193   0.98975   0.24716   0.01267  Uiso   1.00
N43    N     0.25474   0.53352   0.81034   0.01267  Uiso   1.00
N44    N     0.25741   0.51025   0.83218   0.01267  Uiso   1.00
N45    N     0.22318   0.44440   0.68966   0.01267  Uiso   1.00
N46    N     0.17807   0.42523   0.66782   0.01267  Uiso   1.00
N47    N     0.24526   0.05560   0.27878   0.01267  Uiso   1.00
N48    N     0.24259   0.07477   0.25284   0.01267  Uiso   1.00
O1     O     0.54793   0.54415   0.96634   0.01267  Uiso   1.00
O2     O     0.56079   0.59462   0.03483   0.01267  Uiso   1.00
O3     O     0.83042   0.91038   0.95954   0.01267  Uiso   1.00
O4     O     0.82281   0.95360   0.01727   0.01267  Uiso   1.00
O5     O     0.07781   0.58159   0.53366   0.01267  Uiso   1.00
O6     O     0.05979   0.52596   0.46517   0.01267  Uiso   1.00
O7     O     0.45084   0.87088   0.54046   0.01267  Uiso   1.00
O8     O     0.43633   0.80554   0.48273   0.01267  Uiso   1.00
O9     O     0.42219   0.95585   0.50378   0.01267  Uiso   1.00
O10    O     0.44021   0.90538   0.46617   0.01267  Uiso   1.00
O11    O     0.04916   0.58962   0.42004   0.01267  Uiso   1.00
O12    O     0.06367   0.54640   0.36921   0.01267  Uiso   1.00
O13    O     0.95207   0.91841   0.99622   0.01267  Uiso   1.00
O14    O     0.93921   0.97404   0.03383   0.01267  Uiso   1.00
O15    O     0.66958   0.62912   0.07996   0.01267  Uiso   1.00
O16    O     0.67719   0.69446   0.13079   0.01267  Uiso   1.00
O17    O     0.00378   0.42219   0.45585   0.01267  Uiso   1.00
O18    O     0.96617   0.44021   0.40538   0.01267  Uiso   1.00
O19    O     0.92004   0.04916   0.08962   0.01267  Uiso   1.00
O20    O     0.86921   0.06367   0.04640   0.01267  Uiso   1.00
O21    O     0.49622   0.95207   0.41841   0.01267  Uiso   1.00
O22    O     0.53383   0.93921   0.47404   0.01267  Uiso   1.00
O23    O     0.57996   0.66958   0.12912   0.01267  Uiso   1.00
O24    O     0.63079   0.67719   0.19446   0.01267  Uiso   1.00
O25    O     0.46634   0.54793   0.04415   0.01267  Uiso   1.00
O26    O     0.53483   0.56079   0.09462   0.01267  Uiso   1.00
O27    O     0.45954   0.83042   0.41038   0.01267  Uiso   1.00
O28    O     0.51727   0.82281   0.45360   0.01267  Uiso   1.00
O29    O     0.03366   0.07781   0.08159   0.01267  Uiso   1.00
O30    O     0.96517   0.05979   0.02596   0.01267  Uiso   1.00
O31    O     0.04046   0.45084   0.37088   0.01267  Uiso   1.00
O32    O     0.98273   0.43633   0.30554   0.01267  Uiso   1.00
O33    O     0.58159   0.03366   0.57781   0.01267  Uiso   1.00
O34    O     0.52596   0.96517   0.55979   0.01267  Uiso   1.00
O35    O     0.87088   0.04046   0.95084   0.01267  Uiso   1.00
O36    O     0.80554   0.98273   0.93633   0.01267  Uiso   1.00
O37    O     0.54415   0.46634   0.04793   0.01267  Uiso   1.00
O38    O     0.59462   0.53483   0.06079   0.01267  Uiso   1.00
O39    O     0.91038   0.45954   0.33042   0.01267  Uiso   1.00
O40    O     0.95360   0.51727   0.32281   0.01267  Uiso   1.00
O41    O     0.91841   0.49622   0.45207   0.01267  Uiso   1.00
O42    O     0.97404   0.53383   0.43921   0.01267  Uiso   1.00
O43    O     0.62912   0.57996   0.16958   0.01267  Uiso   1.00
O44    O     0.69446   0.63079   0.17719   0.01267  Uiso   1.00
O45    O     0.95585   0.00378   0.92219   0.01267  Uiso   1.00
O46    O     0.90538   0.96617   0.94021   0.01267  Uiso   1.00
O47    O     0.58962   0.92004   0.54916   0.01267  Uiso   1.00
O48    O     0.54640   0.86921   0.56367   0.01267  Uiso   1.00
O49    O     0.45207   0.45585   0.03366   0.01267  Uiso   1.00
O50    O     0.43921   0.40538   0.96517   0.01267  Uiso   1.00
O51    O     0.16958   0.08962   0.04046   0.01267  Uiso   1.00
O52    O     0.17719   0.04640   0.98273   0.01267  Uiso   1.00
O53    O     0.92219   0.41841   0.46634   0.01267  Uiso   1.00
O54    O     0.94021   0.47404   0.53483   0.01267  Uiso   1.00
O55    O     0.54916   0.12912   0.45954   0.01267  Uiso   1.00
O56    O     0.56367   0.19446   0.51727   0.01267  Uiso   1.00
O57    O     0.57781   0.04415   0.49622   0.01267  Uiso   1.00
O58    O     0.55979   0.09462   0.53383   0.01267  Uiso   1.00
O59    O     0.95084   0.41038   0.57996   0.01267  Uiso   1.00
O60    O     0.93633   0.45360   0.63079   0.01267  Uiso   1.00
O61    O     0.04793   0.08159   0.00378   0.01267  Uiso   1.00
O62    O     0.06079   0.02596   0.96617   0.01267  Uiso   1.00
O63    O     0.33042   0.37088   0.92004   0.01267  Uiso   1.00
O64    O     0.32281   0.30554   0.86921   0.01267  Uiso   1.00
O65    O     0.99622   0.57781   0.54415   0.01267  Uiso   1.00
O66    O     0.03383   0.55979   0.59462   0.01267  Uiso   1.00
O67    O     0.07996   0.95084   0.91038   0.01267  Uiso   1.00
O68    O     0.13079   0.93633   0.95360   0.01267  Uiso   1.00
O69    O     0.50378   0.04793   0.58159   0.01267  Uiso   1.00
O70    O     0.46617   0.06079   0.52596   0.01267  Uiso   1.00
O71    O     0.42004   0.33042   0.87088   0.01267  Uiso   1.00
O72    O     0.36921   0.32281   0.80554   0.01267  Uiso   1.00
O73    O     0.53366   0.45207   0.95585   0.01267  Uiso   1.00
O74    O     0.46517   0.43921   0.90538   0.01267  Uiso   1.00
O75    O     0.54046   0.16958   0.58962   0.01267  Uiso   1.00
O76    O     0.48273   0.17719   0.54640   0.01267  Uiso   1.00
O77    O     0.96634   0.92219   0.91841   0.01267  Uiso   1.00
O78    O     0.03483   0.94021   0.97404   0.01267  Uiso   1.00
O79    O     0.95954   0.54916   0.62912   0.01267  Uiso   1.00
O80    O     0.01727   0.56367   0.69446   0.01267  Uiso   1.00
O81    O     0.41841   0.96634   0.42219   0.01267  Uiso   1.00
O82    O     0.47404   0.03483   0.44021   0.01267  Uiso   1.00
O83    O     0.12912   0.95954   0.04916   0.01267  Uiso   1.00
O84    O     0.19446   0.01727   0.06367   0.01267  Uiso   1.00
O85    O     0.45585   0.53366   0.95207   0.01267  Uiso   1.00
O86    O     0.40538   0.46517   0.93921   0.01267  Uiso   1.00
O87    O     0.08962   0.54046   0.66958   0.01267  Uiso   1.00
O88    O     0.04640   0.48273   0.67719   0.01267  Uiso   1.00
O89    O     0.08159   0.50378   0.54793   0.01267  Uiso   1.00
O90    O     0.02596   0.46617   0.56079   0.01267  Uiso   1.00
O91    O     0.37088   0.42004   0.83042   0.01267  Uiso   1.00
O92    O     0.30554   0.36921   0.82281   0.01267  Uiso   1.00
O93    O     0.04415   0.99622   0.07781   0.01267  Uiso   1.00
O94    O     0.09462   0.03383   0.05979   0.01267  Uiso   1.00
O95    O     0.41038   0.07996   0.45084   0.01267  Uiso   1.00
O96    O     0.45360   0.13079   0.43633   0.01267  Uiso   1.00
