data_image0
_cell_length_a       28.187
_cell_length_b       14.002
_cell_length_c       27.657
_cell_angle_alpha    90
_cell_angle_beta     116.228
_cell_angle_gamma    90

_symmetry_space_group_name_H-M    "P 1"
_symmetry_int_tables_number       1

loop_
  _symmetry_equiv_pos_as_xyz
  'x, y, z'

loop_
  _atom_site_label
  _atom_site_occupancy
  _atom_site_fract_x
  _atom_site_fract_y
  _atom_site_fract_z
  _atom_site_thermal_displace_type
  _atom_site_B_iso_or_equiv
  _atom_site_type_symbol
  Cd1      1.0000 0.19982  0.63155  0.15299  Biso   1.000  Cd
  Cd2      1.0000 0.40450  0.37502  0.04978  Biso   1.000  Cd
  Cd3      1.0000 0.12435  0.46383  0.22083  Biso   1.000  Cd
  O1       1.0000 0.17927  0.47081  0.14634  Biso   1.000  O
  O2       1.0000 0.34035  0.50180  0.11905  Biso   1.000  O
  O3       1.0000 0.18460  0.37369  0.21237  Biso   1.000  O
  O4       1.0000 0.31795  0.10763  0.27146  Biso   1.000  O
  O5       1.0000 0.38598  0.36840  0.12425  Biso   1.000  O
  O6       1.0000 0.38485  0.11850  0.25161  Biso   1.000  O
  N1       1.0000 0.10859  0.08480  0.11115  Biso   1.000  N
  N2       1.0000 0.21434  0.11500  0.28707  Biso   1.000  N
  N3       1.0000 0.31427  0.38420  0.99197  Biso   1.000  N
  N4       1.0000 0.23037  0.43290  0.95485  Biso   1.000  N
  N5       1.0000 0.19284  0.79320  0.15191  Biso   1.000  N
  N6       1.0000 0.06881  0.96700  0.15102  Biso   1.000  N
  N7       1.0000 0.13586  0.42260  0.93714  Biso   1.000  N
  N8       1.0000 0.20305  0.61310  0.07204  Biso   1.000  N
  N9       1.0000 0.19263  0.55960  0.99217  Biso   1.000  N
  N10      1.0000 0.14890  0.06090  0.21200  Biso   1.000  N
  N11      1.0000 0.08361  0.13460  0.02706  Biso   1.000  N
  N12      1.0000 0.16344  0.55160  0.89225  Biso   1.000  N
  N13      1.0000 0.15704  0.93480  0.15074  Biso   1.000  N
  N14      1.0000 0.98734  0.90810  0.11247  Biso   1.000  N
  N15      1.0000 0.13723  0.57640  0.80465  Biso   1.000  N
  N16      1.0000 0.09590  0.28950  0.94339  Biso   1.000  N
  C1       1.0000 0.22414  0.86260  0.14536  Biso   1.000  C
  H1       1.0000 0.25530  0.85160  0.14250  Biso   1.000  H
  C2       1.0000 0.01123  0.87950  0.16522  Biso   1.000  C
  H2       1.0000 0.99580  0.84160  0.18190  Biso   1.000  H
  C3       1.0000 0.27247  0.27840  0.21360  Biso   1.000  C
  H3       1.0000 0.25520  0.24930  0.23160  Biso   1.000  H
  C4       1.0000 0.32494  0.36690  0.16114  Biso   1.000  C
  C5       1.0000 0.31987  0.24090  0.21799  Biso   1.000  C
  C6       1.0000 0.23478  0.35700  0.92494  Biso   1.000  C
  H4       1.0000 0.20740  0.33020  0.89470  Biso   1.000  H
  C7       1.0000 0.34284  0.15110  0.24974  Biso   1.000  C
  C8       1.0000 0.35338  0.41520  0.13283  Biso   1.000  C
  C9       1.0000 0.20082  0.40460  0.17956  Biso   1.000  C
  C10      1.0000 0.06079  0.91520  0.18914  Biso   1.000  C
  H5       1.0000 0.08510  0.90640  0.22490  Biso   1.000  H
  C11      1.0000 0.02312  0.95880  0.10596  Biso   1.000  C
  H6       1.0000 0.01750  0.98650  0.07330  Biso   1.000  H
  C12      1.0000 0.34585  0.28520  0.19148  Biso   1.000  C
  H7       1.0000 0.37740  0.25990  0.19410  Biso   1.000  H
  C13      1.0000 0.16373  0.52100  0.84634  Biso   1.000  C
  H8       1.0000 0.18110  0.46570  0.84420  Biso   1.000  H
  C14      1.0000 0.05854  0.35390  0.91250  Biso   1.000  C
  H9       1.0000 0.02220  0.34330  0.89680  Biso   1.000  H
  C15      1.0000 0.18272  0.54630  0.03522  Biso   1.000  C
  H10      1.0000 0.16340  0.49490  0.03850  Biso   1.000  H
  C16      1.0000 0.20241  0.94960  0.14378  Biso   1.000  C
  H11      1.0000 0.21540  0.00800  0.13900  Biso   1.000  H
  C17      1.0000 0.27710  0.40360  0.15609  Biso   1.000  C
  H12      1.0000 0.26270  0.45760  0.13510  Biso   1.000  H
  C18      1.0000 0.13370  0.63430  0.87777  Biso   1.000  C
  H13      1.0000 0.12580  0.67310  0.90050  Biso   1.000  H
  C19      1.0000 0.15366  0.83980  0.15504  Biso   1.000  C
  H14      1.0000 0.12650  0.81000  0.15970  Biso   1.000  H
  C20      1.0000 0.09803  0.06140  0.05999  Biso   1.000  C
  H15      1.0000 0.10070  0.99950  0.04920  Biso   1.000  H
  C21      1.0000 0.20135  0.06550  0.24256  Biso   1.000  C
  H16      1.0000 0.22590  0.03680  0.23330  Biso   1.000  H
  C22      1.0000 0.12742  0.11330  0.23943  Biso   1.000  C
  H17      1.0000 0.09170  0.12550  0.22840  Biso   1.000  H
  C23      1.0000 0.11834  0.64860  0.82464  Biso   1.000  C
  H18      1.0000 0.09800  0.69970  0.80470  Biso   1.000  H
  C24      1.0000 0.28582  0.32880  0.94740  Biso   1.000  C
  H19      1.0000 0.29960  0.27970  0.93470  Biso   1.000  H
  C25      1.0000 0.10082  0.18180  0.11014  Biso   1.000  C
  H20      1.0000 0.10480  0.21990  0.13920  Biso   1.000  H
  C26      1.0000 0.27985  0.44440  0.99458  Biso   1.000  C
  H21      1.0000 0.28870  0.49080  0.02130  Biso   1.000  H
  C27      1.0000 0.22300  0.64080  0.00401  Biso   1.000  C
  H22      1.0000 0.23700  0.66880  0.98260  Biso   1.000  H
  C28      1.0000 0.14156  0.33330  0.95700  Biso   1.000  C
  H23      1.0000 0.17420  0.30540  0.97810  Biso   1.000  H
  C29      1.0000 0.08201  0.43520  0.90800  Biso   1.000  C
  H24      1.0000 0.06500  0.48950  0.88880  Biso   1.000  H
  C30      1.0000 0.22880  0.67250  0.05242  Biso   1.000  C
  H25      1.0000 0.24760  0.72680  0.06980  Biso   1.000  H
  C31      1.0000 0.16788  0.14380  0.28543  Biso   1.000  C
  H26      1.0000 0.16440  0.17940  0.31200  Biso   1.000  H
  C32      1.0000 0.08640  0.21160  0.05926  Biso   1.000  C
  H27      1.0000 0.07940  0.27460  0.04760  Biso   1.000  H
  C33      1.0000 0.25078  0.35960  0.18235  Biso   1.000  C
  B1       1.0000 0.18059  0.49210  0.94440  Biso   1.000  B
  B2       1.0000 0.12084  0.01260  0.15664  Biso   1.000  B
  Cd4      1.0000 0.69982  0.13155  0.15299  Biso   1.000  Cd
  Cd5      1.0000 0.90450  0.87502  0.04978  Biso   1.000  Cd
  Cd6      1.0000 0.62435  0.96383  0.22083  Biso   1.000  Cd
  O7       1.0000 0.67927  0.97081  0.14634  Biso   1.000  O
  O8       1.0000 0.84035  0.00180  0.11905  Biso   1.000  O
  O9       1.0000 0.68460  0.87369  0.21237  Biso   1.000  O
  O10      1.0000 0.81795  0.60763  0.27146  Biso   1.000  O
  O11      1.0000 0.88598  0.86840  0.12425  Biso   1.000  O
  O12      1.0000 0.88485  0.61850  0.25161  Biso   1.000  O
  N17      1.0000 0.60859  0.58480  0.11115  Biso   1.000  N
  N18      1.0000 0.71434  0.61500  0.28707  Biso   1.000  N
  N19      1.0000 0.81427  0.88420  0.99197  Biso   1.000  N
  N20      1.0000 0.73037  0.93290  0.95485  Biso   1.000  N
  N21      1.0000 0.69284  0.29320  0.15191  Biso   1.000  N
  N22      1.0000 0.56881  0.46700  0.15102  Biso   1.000  N
  N23      1.0000 0.63586  0.92260  0.93714  Biso   1.000  N
  N24      1.0000 0.70305  0.11310  0.07204  Biso   1.000  N
  N25      1.0000 0.69263  0.05960  0.99217  Biso   1.000  N
  N26      1.0000 0.64890  0.56090  0.21200  Biso   1.000  N
  N27      1.0000 0.58361  0.63460  0.02706  Biso   1.000  N
  N28      1.0000 0.66344  0.05160  0.89225  Biso   1.000  N
  N29      1.0000 0.65704  0.43480  0.15074  Biso   1.000  N
  N30      1.0000 0.48734  0.40810  0.11247  Biso   1.000  N
  N31      1.0000 0.63723  0.07640  0.80465  Biso   1.000  N
  N32      1.0000 0.59590  0.78950  0.94339  Biso   1.000  N
  C34      1.0000 0.72414  0.36260  0.14536  Biso   1.000  C
  H28      1.0000 0.75530  0.35160  0.14250  Biso   1.000  H
  C35      1.0000 0.51123  0.37950  0.16522  Biso   1.000  C
  H29      1.0000 0.49580  0.34160  0.18190  Biso   1.000  H
  C36      1.0000 0.77247  0.77840  0.21360  Biso   1.000  C
  H30      1.0000 0.75520  0.74930  0.23160  Biso   1.000  H
  C37      1.0000 0.82494  0.86690  0.16114  Biso   1.000  C
  C38      1.0000 0.81987  0.74090  0.21799  Biso   1.000  C
  C39      1.0000 0.73478  0.85700  0.92494  Biso   1.000  C
  H31      1.0000 0.70740  0.83020  0.89470  Biso   1.000  H
  C40      1.0000 0.84284  0.65110  0.24974  Biso   1.000  C
  C41      1.0000 0.85338  0.91520  0.13283  Biso   1.000  C
  C42      1.0000 0.70082  0.90460  0.17956  Biso   1.000  C
  C43      1.0000 0.56079  0.41520  0.18914  Biso   1.000  C
  H32      1.0000 0.58510  0.40640  0.22490  Biso   1.000  H
  C44      1.0000 0.52312  0.45880  0.10596  Biso   1.000  C
  H33      1.0000 0.51750  0.48650  0.07330  Biso   1.000  H
  C45      1.0000 0.84585  0.78520  0.19148  Biso   1.000  C
  H34      1.0000 0.87740  0.75990  0.19410  Biso   1.000  H
  C46      1.0000 0.66373  0.02100  0.84634  Biso   1.000  C
  H35      1.0000 0.68110  0.96570  0.84420  Biso   1.000  H
  C47      1.0000 0.55854  0.85390  0.91250  Biso   1.000  C
  H36      1.0000 0.52220  0.84330  0.89680  Biso   1.000  H
  C48      1.0000 0.68272  0.04630  0.03522  Biso   1.000  C
  H37      1.0000 0.66340  0.99490  0.03850  Biso   1.000  H
  C49      1.0000 0.70241  0.44960  0.14378  Biso   1.000  C
  H38      1.0000 0.71540  0.50800  0.13900  Biso   1.000  H
  C50      1.0000 0.77710  0.90360  0.15609  Biso   1.000  C
  H39      1.0000 0.76270  0.95760  0.13510  Biso   1.000  H
  C51      1.0000 0.63370  0.13430  0.87777  Biso   1.000  C
  H40      1.0000 0.62580  0.17310  0.90050  Biso   1.000  H
  C52      1.0000 0.65366  0.33980  0.15504  Biso   1.000  C
  H41      1.0000 0.62650  0.31000  0.15970  Biso   1.000  H
  C53      1.0000 0.59803  0.56140  0.05999  Biso   1.000  C
  H42      1.0000 0.60070  0.49950  0.04920  Biso   1.000  H
  C54      1.0000 0.70135  0.56550  0.24256  Biso   1.000  C
  H43      1.0000 0.72590  0.53680  0.23330  Biso   1.000  H
  C55      1.0000 0.62742  0.61330  0.23943  Biso   1.000  C
  H44      1.0000 0.59170  0.62550  0.22840  Biso   1.000  H
  C56      1.0000 0.61834  0.14860  0.82464  Biso   1.000  C
  H45      1.0000 0.59800  0.19970  0.80470  Biso   1.000  H
  C57      1.0000 0.78582  0.82880  0.94740  Biso   1.000  C
  H46      1.0000 0.79960  0.77970  0.93470  Biso   1.000  H
  C58      1.0000 0.60082  0.68180  0.11014  Biso   1.000  C
  H47      1.0000 0.60480  0.71990  0.13920  Biso   1.000  H
  C59      1.0000 0.77985  0.94440  0.99458  Biso   1.000  C
  H48      1.0000 0.78870  0.99080  0.02130  Biso   1.000  H
  C60      1.0000 0.72300  0.14080  0.00401  Biso   1.000  C
  H49      1.0000 0.73700  0.16880  0.98260  Biso   1.000  H
  C61      1.0000 0.64156  0.83330  0.95700  Biso   1.000  C
  H50      1.0000 0.67420  0.80540  0.97810  Biso   1.000  H
  C62      1.0000 0.58201  0.93520  0.90800  Biso   1.000  C
  H51      1.0000 0.56500  0.98950  0.88880  Biso   1.000  H
  C63      1.0000 0.72880  0.17250  0.05242  Biso   1.000  C
  H52      1.0000 0.74760  0.22680  0.06980  Biso   1.000  H
  C64      1.0000 0.66788  0.64380  0.28543  Biso   1.000  C
  H53      1.0000 0.66440  0.67940  0.31200  Biso   1.000  H
  C65      1.0000 0.58640  0.71160  0.05926  Biso   1.000  C
  H54      1.0000 0.57940  0.77460  0.04760  Biso   1.000  H
  C66      1.0000 0.75078  0.85960  0.18235  Biso   1.000  C
  B3       1.0000 0.68059  0.99210  0.94440  Biso   1.000  B
  B4       1.0000 0.62084  0.51260  0.15664  Biso   1.000  B
  Cd7      1.0000 0.80018  0.63155  0.34701  Biso   1.000  Cd
  Cd8      1.0000 0.59550  0.37502  0.45022  Biso   1.000  Cd
  Cd9      1.0000 0.87565  0.46383  0.27917  Biso   1.000  Cd
  O13      1.0000 0.82073  0.47081  0.35366  Biso   1.000  O
  O14      1.0000 0.65965  0.50180  0.38095  Biso   1.000  O
  O15      1.0000 0.81540  0.37369  0.28763  Biso   1.000  O
  O16      1.0000 0.68205  0.10763  0.22854  Biso   1.000  O
  O17      1.0000 0.61402  0.36840  0.37575  Biso   1.000  O
  O18      1.0000 0.61515  0.11850  0.24839  Biso   1.000  O
  N33      1.0000 0.89141  0.08480  0.38885  Biso   1.000  N
  N34      1.0000 0.78566  0.11500  0.21293  Biso   1.000  N
  N35      1.0000 0.68573  0.38420  0.50803  Biso   1.000  N
  N36      1.0000 0.76963  0.43290  0.54515  Biso   1.000  N
  N37      1.0000 0.80716  0.79320  0.34809  Biso   1.000  N
  N38      1.0000 0.93119  0.96700  0.34898  Biso   1.000  N
  N39      1.0000 0.86414  0.42260  0.56286  Biso   1.000  N
  N40      1.0000 0.79695  0.61310  0.42796  Biso   1.000  N
  N41      1.0000 0.80737  0.55960  0.50783  Biso   1.000  N
  N42      1.0000 0.85110  0.06090  0.28800  Biso   1.000  N
  N43      1.0000 0.91639  0.13460  0.47294  Biso   1.000  N
  N44      1.0000 0.83656  0.55160  0.60775  Biso   1.000  N
  N45      1.0000 0.84296  0.93480  0.34926  Biso   1.000  N
  N46      1.0000 0.01266  0.90810  0.38753  Biso   1.000  N
  N47      1.0000 0.86277  0.57640  0.69535  Biso   1.000  N
  N48      1.0000 0.90410  0.28950  0.55661  Biso   1.000  N
  C67      1.0000 0.77586  0.86260  0.35464  Biso   1.000  C
  H55      1.0000 0.74470  0.85160  0.35750  Biso   1.000  H
  C68      1.0000 0.98877  0.87950  0.33478  Biso   1.000  C
  H56      1.0000 0.00420  0.84160  0.31810  Biso   1.000  H
  C69      1.0000 0.72753  0.27840  0.28640  Biso   1.000  C
  H57      1.0000 0.74480  0.24930  0.26840  Biso   1.000  H
  C70      1.0000 0.67506  0.36690  0.33886  Biso   1.000  C
  C71      1.0000 0.68013  0.24090  0.28201  Biso   1.000  C
  C72      1.0000 0.76522  0.35700  0.57506  Biso   1.000  C
  H58      1.0000 0.79260  0.33020  0.60530  Biso   1.000  H
  C73      1.0000 0.65716  0.15110  0.25026  Biso   1.000  C
  C74      1.0000 0.64662  0.41520  0.36717  Biso   1.000  C
  C75      1.0000 0.79918  0.40460  0.32044  Biso   1.000  C
  C76      1.0000 0.93921  0.91520  0.31086  Biso   1.000  C
  H59      1.0000 0.91490  0.90640  0.27510  Biso   1.000  H
  C77      1.0000 0.97688  0.95880  0.39404  Biso   1.000  C
  H60      1.0000 0.98250  0.98650  0.42670  Biso   1.000  H
  C78      1.0000 0.65415  0.28520  0.30852  Biso   1.000  C
  H61      1.0000 0.62260  0.25990  0.30590  Biso   1.000  H
  C79      1.0000 0.83627  0.52100  0.65366  Biso   1.000  C
  H62      1.0000 0.81890  0.46570  0.65580  Biso   1.000  H
  C80      1.0000 0.94146  0.35390  0.58750  Biso   1.000  C
  H63      1.0000 0.97780  0.34330  0.60320  Biso   1.000  H
  C81      1.0000 0.81728  0.54630  0.46478  Biso   1.000  C
  H64      1.0000 0.83660  0.49490  0.46150  Biso   1.000  H
  C82      1.0000 0.79759  0.94960  0.35622  Biso   1.000  C
  H65      1.0000 0.78460  0.00800  0.36100  Biso   1.000  H
  C83      1.0000 0.72290  0.40360  0.34391  Biso   1.000  C
  H66      1.0000 0.73730  0.45760  0.36490  Biso   1.000  H
  C84      1.0000 0.86630  0.63430  0.62223  Biso   1.000  C
  H67      1.0000 0.87420  0.67310  0.59950  Biso   1.000  H
  C85      1.0000 0.84634  0.83980  0.34496  Biso   1.000  C
  H68      1.0000 0.87350  0.81000  0.34030  Biso   1.000  H
  C86      1.0000 0.90197  0.06140  0.44001  Biso   1.000  C
  H69      1.0000 0.89930  0.99950  0.45080  Biso   1.000  H
  C87      1.0000 0.79865  0.06550  0.25744  Biso   1.000  C
  H70      1.0000 0.77410  0.03680  0.26670  Biso   1.000  H
  C88      1.0000 0.87258  0.11330  0.26057  Biso   1.000  C
  H71      1.0000 0.90830  0.12550  0.27160  Biso   1.000  H
  C89      1.0000 0.88166  0.64860  0.67536  Biso   1.000  C
  H72      1.0000 0.90200  0.69970  0.69530  Biso   1.000  H
  C90      1.0000 0.71418  0.32880  0.55260  Biso   1.000  C
  H73      1.0000 0.70040  0.27970  0.56530  Biso   1.000  H
  C91      1.0000 0.89918  0.18180  0.38986  Biso   1.000  C
  H74      1.0000 0.89520  0.21990  0.36080  Biso   1.000  H
  C92      1.0000 0.72015  0.44440  0.50542  Biso   1.000  C
  H75      1.0000 0.71130  0.49080  0.47870  Biso   1.000  H
  C93      1.0000 0.77700  0.64080  0.49599  Biso   1.000  C
  H76      1.0000 0.76300  0.66880  0.51740  Biso   1.000  H
  C94      1.0000 0.85844  0.33330  0.54300  Biso   1.000  C
  H77      1.0000 0.82580  0.30540  0.52190  Biso   1.000  H
  C95      1.0000 0.91799  0.43520  0.59200  Biso   1.000  C
  H78      1.0000 0.93500  0.48950  0.61120  Biso   1.000  H
  C96      1.0000 0.77120  0.67250  0.44758  Biso   1.000  C
  H79      1.0000 0.75240  0.72680  0.43020  Biso   1.000  H
  C97      1.0000 0.83212  0.14380  0.21457  Biso   1.000  C
  H80      1.0000 0.83560  0.17940  0.18800  Biso   1.000  H
  C98      1.0000 0.91360  0.21160  0.44074  Biso   1.000  C
  H81      1.0000 0.92060  0.27460  0.45240  Biso   1.000  H
  C99      1.0000 0.74922  0.35960  0.31765  Biso   1.000  C
  B5       1.0000 0.81941  0.49210  0.55560  Biso   1.000  B
  B6       1.0000 0.87916  0.01260  0.34336  Biso   1.000  B
  Cd10     1.0000 0.30018  0.13155  0.34701  Biso   1.000  Cd
  Cd11     1.0000 0.09550  0.87502  0.45022  Biso   1.000  Cd
  Cd12     1.0000 0.37565  0.96383  0.27917  Biso   1.000  Cd
  O19      1.0000 0.32073  0.97081  0.35366  Biso   1.000  O
  O20      1.0000 0.15965  0.00180  0.38095  Biso   1.000  O
  O21      1.0000 0.31540  0.87369  0.28763  Biso   1.000  O
  O22      1.0000 0.18205  0.60763  0.22854  Biso   1.000  O
  O23      1.0000 0.11402  0.86840  0.37575  Biso   1.000  O
  O24      1.0000 0.11515  0.61850  0.24839  Biso   1.000  O
  N49      1.0000 0.39141  0.58480  0.38885  Biso   1.000  N
  N50      1.0000 0.28566  0.61500  0.21293  Biso   1.000  N
  N51      1.0000 0.18573  0.88420  0.50803  Biso   1.000  N
  N52      1.0000 0.26963  0.93290  0.54515  Biso   1.000  N
  N53      1.0000 0.30716  0.29320  0.34809  Biso   1.000  N
  N54      1.0000 0.43119  0.46700  0.34898  Biso   1.000  N
  N55      1.0000 0.36414  0.92260  0.56286  Biso   1.000  N
  N56      1.0000 0.29695  0.11310  0.42796  Biso   1.000  N
  N57      1.0000 0.30737  0.05960  0.50783  Biso   1.000  N
  N58      1.0000 0.35110  0.56090  0.28800  Biso   1.000  N
  N59      1.0000 0.41639  0.63460  0.47294  Biso   1.000  N
  N60      1.0000 0.33656  0.05160  0.60775  Biso   1.000  N
  N61      1.0000 0.34296  0.43480  0.34926  Biso   1.000  N
  N62      1.0000 0.51266  0.40810  0.38753  Biso   1.000  N
  N63      1.0000 0.36277  0.07640  0.69535  Biso   1.000  N
  N64      1.0000 0.40410  0.78950  0.55661  Biso   1.000  N
  C100     1.0000 0.27586  0.36260  0.35464  Biso   1.000  C
  H82      1.0000 0.24470  0.35160  0.35750  Biso   1.000  H
  C101     1.0000 0.48877  0.37950  0.33478  Biso   1.000  C
  H83      1.0000 0.50420  0.34160  0.31810  Biso   1.000  H
  C102     1.0000 0.22753  0.77840  0.28640  Biso   1.000  C
  H84      1.0000 0.24480  0.74930  0.26840  Biso   1.000  H
  C103     1.0000 0.17506  0.86690  0.33886  Biso   1.000  C
  C104     1.0000 0.18013  0.74090  0.28201  Biso   1.000  C
  C105     1.0000 0.26522  0.85700  0.57506  Biso   1.000  C
  H85      1.0000 0.29260  0.83020  0.60530  Biso   1.000  H
  C106     1.0000 0.15716  0.65110  0.25026  Biso   1.000  C
  C107     1.0000 0.14662  0.91520  0.36717  Biso   1.000  C
  C108     1.0000 0.29918  0.90460  0.32044  Biso   1.000  C
  C109     1.0000 0.43921  0.41520  0.31086  Biso   1.000  C
  H86      1.0000 0.41490  0.40640  0.27510  Biso   1.000  H
  C110     1.0000 0.47688  0.45880  0.39404  Biso   1.000  C
  H87      1.0000 0.48250  0.48650  0.42670  Biso   1.000  H
  C111     1.0000 0.15415  0.78520  0.30852  Biso   1.000  C
  H88      1.0000 0.12260  0.75990  0.30590  Biso   1.000  H
  C112     1.0000 0.33627  0.02100  0.65366  Biso   1.000  C
  H89      1.0000 0.31890  0.96570  0.65580  Biso   1.000  H
  C113     1.0000 0.44146  0.85390  0.58750  Biso   1.000  C
  H90      1.0000 0.47780  0.84330  0.60320  Biso   1.000  H
  C114     1.0000 0.31728  0.04630  0.46478  Biso   1.000  C
  H91      1.0000 0.33660  0.99490  0.46150  Biso   1.000  H
  C115     1.0000 0.29759  0.44960  0.35622  Biso   1.000  C
  H92      1.0000 0.28460  0.50800  0.36100  Biso   1.000  H
  C116     1.0000 0.22290  0.90360  0.34391  Biso   1.000  C
  H93      1.0000 0.23730  0.95760  0.36490  Biso   1.000  H
  C117     1.0000 0.36630  0.13430  0.62223  Biso   1.000  C
  H94      1.0000 0.37420  0.17310  0.59950  Biso   1.000  H
  C118     1.0000 0.34634  0.33980  0.34496  Biso   1.000  C
  H95      1.0000 0.37350  0.31000  0.34030  Biso   1.000  H
  C119     1.0000 0.40197  0.56140  0.44001  Biso   1.000  C
  H96      1.0000 0.39930  0.49950  0.45080  Biso   1.000  H
  C120     1.0000 0.29865  0.56550  0.25744  Biso   1.000  C
  H97      1.0000 0.27410  0.53680  0.26670  Biso   1.000  H
  C121     1.0000 0.37258  0.61330  0.26057  Biso   1.000  C
  H98      1.0000 0.40830  0.62550  0.27160  Biso   1.000  H
  C122     1.0000 0.38166  0.14860  0.67536  Biso   1.000  C
  H99      1.0000 0.40200  0.19970  0.69530  Biso   1.000  H
  C123     1.0000 0.21418  0.82880  0.55260  Biso   1.000  C
  H100     1.0000 0.20040  0.77970  0.56530  Biso   1.000  H
  C124     1.0000 0.39918  0.68180  0.38986  Biso   1.000  C
  H101     1.0000 0.39520  0.71990  0.36080  Biso   1.000  H
  C125     1.0000 0.22015  0.94440  0.50542  Biso   1.000  C
  H102     1.0000 0.21130  0.99080  0.47870  Biso   1.000  H
  C126     1.0000 0.27700  0.14080  0.49599  Biso   1.000  C
  H103     1.0000 0.26300  0.16880  0.51740  Biso   1.000  H
  C127     1.0000 0.35844  0.83330  0.54300  Biso   1.000  C
  H104     1.0000 0.32580  0.80540  0.52190  Biso   1.000  H
  C128     1.0000 0.41799  0.93520  0.59200  Biso   1.000  C
  H105     1.0000 0.43500  0.98950  0.61120  Biso   1.000  H
  C129     1.0000 0.27120  0.17250  0.44758  Biso   1.000  C
  H106     1.0000 0.25240  0.22680  0.43020  Biso   1.000  H
  C130     1.0000 0.33212  0.64380  0.21457  Biso   1.000  C
  H107     1.0000 0.33560  0.67940  0.18800  Biso   1.000  H
  C131     1.0000 0.41360  0.71160  0.44074  Biso   1.000  C
  H108     1.0000 0.42060  0.77460  0.45240  Biso   1.000  H
  C132     1.0000 0.24922  0.85960  0.31765  Biso   1.000  C
  B7       1.0000 0.31941  0.99210  0.55560  Biso   1.000  B
  B8       1.0000 0.37916  0.51260  0.34336  Biso   1.000  B
  Cd13     1.0000 0.80018  0.36845  0.84701  Biso   1.000  Cd
  Cd14     1.0000 0.59550  0.62498  0.95022  Biso   1.000  Cd
  Cd15     1.0000 0.87565  0.53617  0.77917  Biso   1.000  Cd
  O25      1.0000 0.82073  0.52919  0.85366  Biso   1.000  O
  O26      1.0000 0.65965  0.49820  0.88095  Biso   1.000  O
  O27      1.0000 0.81540  0.62631  0.78763  Biso   1.000  O
  O28      1.0000 0.68205  0.89237  0.72854  Biso   1.000  O
  O29      1.0000 0.61402  0.63160  0.87575  Biso   1.000  O
  O30      1.0000 0.61515  0.88150  0.74839  Biso   1.000  O
  N65      1.0000 0.89141  0.91520  0.88885  Biso   1.000  N
  N66      1.0000 0.78566  0.88500  0.71293  Biso   1.000  N
  N67      1.0000 0.68573  0.61580  0.00803  Biso   1.000  N
  N68      1.0000 0.76963  0.56710  0.04515  Biso   1.000  N
  N69      1.0000 0.80716  0.20680  0.84809  Biso   1.000  N
  N70      1.0000 0.93119  0.03300  0.84898  Biso   1.000  N
  N71      1.0000 0.86414  0.57740  0.06286  Biso   1.000  N
  N72      1.0000 0.79695  0.38690  0.92796  Biso   1.000  N
  N73      1.0000 0.80737  0.44040  0.00783  Biso   1.000  N
  N74      1.0000 0.85110  0.93910  0.78800  Biso   1.000  N
  N75      1.0000 0.91639  0.86540  0.97294  Biso   1.000  N
  N76      1.0000 0.83656  0.44840  0.10775  Biso   1.000  N
  N77      1.0000 0.84296  0.06520  0.84926  Biso   1.000  N
  N78      1.0000 0.01266  0.09190  0.88753  Biso   1.000  N
  N79      1.0000 0.86277  0.42360  0.19535  Biso   1.000  N
  N80      1.0000 0.90410  0.71050  0.05661  Biso   1.000  N
  C133     1.0000 0.77586  0.13740  0.85464  Biso   1.000  C
  H109     1.0000 0.74470  0.14840  0.85750  Biso   1.000  H
  C134     1.0000 0.98877  0.12050  0.83478  Biso   1.000  C
  H110     1.0000 0.00420  0.15840  0.81810  Biso   1.000  H
  C135     1.0000 0.72753  0.72160  0.78640  Biso   1.000  C
  H111     1.0000 0.74480  0.75070  0.76840  Biso   1.000  H
  C136     1.0000 0.67506  0.63310  0.83886  Biso   1.000  C
  C137     1.0000 0.68013  0.75910  0.78201  Biso   1.000  C
  C138     1.0000 0.76522  0.64300  0.07506  Biso   1.000  C
  H112     1.0000 0.79260  0.66980  0.10530  Biso   1.000  H
  C139     1.0000 0.65716  0.84890  0.75026  Biso   1.000  C
  C140     1.0000 0.64662  0.58480  0.86717  Biso   1.000  C
  C141     1.0000 0.79918  0.59540  0.82044  Biso   1.000  C
  C142     1.0000 0.93921  0.08480  0.81086  Biso   1.000  C
  H113     1.0000 0.91490  0.09360  0.77510  Biso   1.000  H
  C143     1.0000 0.97688  0.04120  0.89404  Biso   1.000  C
  H114     1.0000 0.98250  0.01350  0.92670  Biso   1.000  H
  C144     1.0000 0.65415  0.71480  0.80852  Biso   1.000  C
  H115     1.0000 0.62260  0.74010  0.80590  Biso   1.000  H
  C145     1.0000 0.83627  0.47900  0.15366  Biso   1.000  C
  H116     1.0000 0.81890  0.53430  0.15580  Biso   1.000  H
  C146     1.0000 0.94146  0.64610  0.08750  Biso   1.000  C
  H117     1.0000 0.97780  0.65670  0.10320  Biso   1.000  H
  C147     1.0000 0.81728  0.45370  0.96478  Biso   1.000  C
  H118     1.0000 0.83660  0.50510  0.96150  Biso   1.000  H
  C148     1.0000 0.79759  0.05040  0.85622  Biso   1.000  C
  H119     1.0000 0.78460  0.99200  0.86100  Biso   1.000  H
  C149     1.0000 0.72290  0.59640  0.84391  Biso   1.000  C
  H120     1.0000 0.73730  0.54240  0.86490  Biso   1.000  H
  C150     1.0000 0.86630  0.36570  0.12223  Biso   1.000  C
  H121     1.0000 0.87420  0.32690  0.09950  Biso   1.000  H
  C151     1.0000 0.84634  0.16020  0.84496  Biso   1.000  C
  H122     1.0000 0.87350  0.19000  0.84030  Biso   1.000  H
  C152     1.0000 0.90197  0.93860  0.94001  Biso   1.000  C
  H123     1.0000 0.89930  0.00050  0.95080  Biso   1.000  H
  C153     1.0000 0.79865  0.93450  0.75744  Biso   1.000  C
  H124     1.0000 0.77410  0.96320  0.76670  Biso   1.000  H
  C154     1.0000 0.87258  0.88670  0.76057  Biso   1.000  C
  H125     1.0000 0.90830  0.87450  0.77160  Biso   1.000  H
  C155     1.0000 0.88166  0.35140  0.17536  Biso   1.000  C
  H126     1.0000 0.90200  0.30030  0.19530  Biso   1.000  H
  C156     1.0000 0.71418  0.67120  0.05260  Biso   1.000  C
  H127     1.0000 0.70040  0.72030  0.06530  Biso   1.000  H
  C157     1.0000 0.89918  0.81820  0.88986  Biso   1.000  C
  H128     1.0000 0.89520  0.78010  0.86080  Biso   1.000  H
  C158     1.0000 0.72015  0.55560  0.00542  Biso   1.000  C
  H129     1.0000 0.71130  0.50920  0.97870  Biso   1.000  H
  C159     1.0000 0.77700  0.35920  0.99599  Biso   1.000  C
  H130     1.0000 0.76300  0.33120  0.01740  Biso   1.000  H
  C160     1.0000 0.85844  0.66670  0.04300  Biso   1.000  C
  H131     1.0000 0.82580  0.69460  0.02190  Biso   1.000  H
  C161     1.0000 0.91799  0.56480  0.09200  Biso   1.000  C
  H132     1.0000 0.93500  0.51050  0.11120  Biso   1.000  H
  C162     1.0000 0.77120  0.32750  0.94758  Biso   1.000  C
  H133     1.0000 0.75240  0.27320  0.93020  Biso   1.000  H
  C163     1.0000 0.83212  0.85620  0.71457  Biso   1.000  C
  H134     1.0000 0.83560  0.82060  0.68800  Biso   1.000  H
  C164     1.0000 0.91360  0.78840  0.94074  Biso   1.000  C
  H135     1.0000 0.92060  0.72540  0.95240  Biso   1.000  H
  C165     1.0000 0.74922  0.64040  0.81765  Biso   1.000  C
  B9       1.0000 0.81941  0.50790  0.05560  Biso   1.000  B
  B10      1.0000 0.87916  0.98740  0.84336  Biso   1.000  B
  Cd16     1.0000 0.30018  0.86845  0.84701  Biso   1.000  Cd
  Cd17     1.0000 0.09550  0.12498  0.95022  Biso   1.000  Cd
  Cd18     1.0000 0.37565  0.03617  0.77917  Biso   1.000  Cd
  O31      1.0000 0.32073  0.02919  0.85366  Biso   1.000  O
  O32      1.0000 0.15965  0.99820  0.88095  Biso   1.000  O
  O33      1.0000 0.31540  0.12631  0.78763  Biso   1.000  O
  O34      1.0000 0.18205  0.39237  0.72854  Biso   1.000  O
  O35      1.0000 0.11402  0.13160  0.87575  Biso   1.000  O
  O36      1.0000 0.11515  0.38150  0.74839  Biso   1.000  O
  N81      1.0000 0.39141  0.41520  0.88885  Biso   1.000  N
  N82      1.0000 0.28566  0.38500  0.71293  Biso   1.000  N
  N83      1.0000 0.18573  0.11580  0.00803  Biso   1.000  N
  N84      1.0000 0.26963  0.06710  0.04515  Biso   1.000  N
  N85      1.0000 0.30716  0.70680  0.84809  Biso   1.000  N
  N86      1.0000 0.43119  0.53300  0.84898  Biso   1.000  N
  N87      1.0000 0.36414  0.07740  0.06286  Biso   1.000  N
  N88      1.0000 0.29695  0.88690  0.92796  Biso   1.000  N
  N89      1.0000 0.30737  0.94040  0.00783  Biso   1.000  N
  N90      1.0000 0.35110  0.43910  0.78800  Biso   1.000  N
  N91      1.0000 0.41639  0.36540  0.97294  Biso   1.000  N
  N92      1.0000 0.33656  0.94840  0.10775  Biso   1.000  N
  N93      1.0000 0.34296  0.56520  0.84926  Biso   1.000  N
  N94      1.0000 0.51266  0.59190  0.88753  Biso   1.000  N
  N95      1.0000 0.36277  0.92360  0.19535  Biso   1.000  N
  N96      1.0000 0.40410  0.21050  0.05661  Biso   1.000  N
  C166     1.0000 0.27586  0.63740  0.85464  Biso   1.000  C
  H136     1.0000 0.24470  0.64840  0.85750  Biso   1.000  H
  C167     1.0000 0.48877  0.62050  0.83478  Biso   1.000  C
  H137     1.0000 0.50420  0.65840  0.81810  Biso   1.000  H
  C168     1.0000 0.22753  0.22160  0.78640  Biso   1.000  C
  H138     1.0000 0.24480  0.25070  0.76840  Biso   1.000  H
  C169     1.0000 0.17506  0.13310  0.83886  Biso   1.000  C
  C170     1.0000 0.18013  0.25910  0.78201  Biso   1.000  C
  C171     1.0000 0.26522  0.14300  0.07506  Biso   1.000  C
  H139     1.0000 0.29260  0.16980  0.10530  Biso   1.000  H
  C172     1.0000 0.15716  0.34890  0.75026  Biso   1.000  C
  C173     1.0000 0.14662  0.08480  0.86717  Biso   1.000  C
  C174     1.0000 0.29918  0.09540  0.82044  Biso   1.000  C
  C175     1.0000 0.43921  0.58480  0.81086  Biso   1.000  C
  H140     1.0000 0.41490  0.59360  0.77510  Biso   1.000  H
  C176     1.0000 0.47688  0.54120  0.89404  Biso   1.000  C
  H141     1.0000 0.48250  0.51350  0.92670  Biso   1.000  H
  C177     1.0000 0.15415  0.21480  0.80852  Biso   1.000  C
  H142     1.0000 0.12260  0.24010  0.80590  Biso   1.000  H
  C178     1.0000 0.33627  0.97900  0.15366  Biso   1.000  C
  H143     1.0000 0.31890  0.03430  0.15580  Biso   1.000  H
  C179     1.0000 0.44146  0.14610  0.08750  Biso   1.000  C
  H144     1.0000 0.47780  0.15670  0.10320  Biso   1.000  H
  C180     1.0000 0.31728  0.95370  0.96478  Biso   1.000  C
  H145     1.0000 0.33660  0.00510  0.96150  Biso   1.000  H
  C181     1.0000 0.29759  0.55040  0.85622  Biso   1.000  C
  H146     1.0000 0.28460  0.49200  0.86100  Biso   1.000  H
  C182     1.0000 0.22290  0.09640  0.84391  Biso   1.000  C
  H147     1.0000 0.23730  0.04240  0.86490  Biso   1.000  H
  C183     1.0000 0.36630  0.86570  0.12223  Biso   1.000  C
  H148     1.0000 0.37420  0.82690  0.09950  Biso   1.000  H
  C184     1.0000 0.34634  0.66020  0.84496  Biso   1.000  C
  H149     1.0000 0.37350  0.69000  0.84030  Biso   1.000  H
  C185     1.0000 0.40197  0.43860  0.94001  Biso   1.000  C
  H150     1.0000 0.39930  0.50050  0.95080  Biso   1.000  H
  C186     1.0000 0.29865  0.43450  0.75744  Biso   1.000  C
  H151     1.0000 0.27410  0.46320  0.76670  Biso   1.000  H
  C187     1.0000 0.37258  0.38670  0.76057  Biso   1.000  C
  H152     1.0000 0.40830  0.37450  0.77160  Biso   1.000  H
  C188     1.0000 0.38166  0.85140  0.17536  Biso   1.000  C
  H153     1.0000 0.40200  0.80030  0.19530  Biso   1.000  H
  C189     1.0000 0.21418  0.17120  0.05260  Biso   1.000  C
  H154     1.0000 0.20040  0.22030  0.06530  Biso   1.000  H
  C190     1.0000 0.39918  0.31820  0.88986  Biso   1.000  C
  H155     1.0000 0.39520  0.28010  0.86080  Biso   1.000  H
  C191     1.0000 0.22015  0.05560  0.00542  Biso   1.000  C
  H156     1.0000 0.21130  0.00920  0.97870  Biso   1.000  H
  C192     1.0000 0.27700  0.85920  0.99599  Biso   1.000  C
  H157     1.0000 0.26300  0.83120  0.01740  Biso   1.000  H
  C193     1.0000 0.35844  0.16670  0.04300  Biso   1.000  C
  H158     1.0000 0.32580  0.19460  0.02190  Biso   1.000  H
  C194     1.0000 0.41799  0.06480  0.09200  Biso   1.000  C
  H159     1.0000 0.43500  0.01050  0.11120  Biso   1.000  H
  C195     1.0000 0.27120  0.82750  0.94758  Biso   1.000  C
  H160     1.0000 0.25240  0.77320  0.93020  Biso   1.000  H
  C196     1.0000 0.33212  0.35620  0.71457  Biso   1.000  C
  H161     1.0000 0.33560  0.32060  0.68800  Biso   1.000  H
  C197     1.0000 0.41360  0.28840  0.94074  Biso   1.000  C
  H162     1.0000 0.42060  0.22540  0.95240  Biso   1.000  H
  C198     1.0000 0.24922  0.14040  0.81765  Biso   1.000  C
  B11      1.0000 0.31941  0.00790  0.05560  Biso   1.000  B
  B12      1.0000 0.37916  0.48740  0.84336  Biso   1.000  B
  Cd19     1.0000 0.19982  0.36845  0.65299  Biso   1.000  Cd
  Cd20     1.0000 0.40450  0.62498  0.54978  Biso   1.000  Cd
  Cd21     1.0000 0.12435  0.53617  0.72083  Biso   1.000  Cd
  O37      1.0000 0.17927  0.52919  0.64634  Biso   1.000  O
  O38      1.0000 0.34035  0.49820  0.61905  Biso   1.000  O
  O39      1.0000 0.18460  0.62631  0.71237  Biso   1.000  O
  O40      1.0000 0.31795  0.89237  0.77146  Biso   1.000  O
  O41      1.0000 0.38598  0.63160  0.62425  Biso   1.000  O
  O42      1.0000 0.38485  0.88150  0.75161  Biso   1.000  O
  N97      1.0000 0.10859  0.91520  0.61115  Biso   1.000  N
  N98      1.0000 0.21434  0.88500  0.78707  Biso   1.000  N
  N99      1.0000 0.31427  0.61580  0.49197  Biso   1.000  N
  N100     1.0000 0.23037  0.56710  0.45485  Biso   1.000  N
  N101     1.0000 0.19284  0.20680  0.65191  Biso   1.000  N
  N102     1.0000 0.06881  0.03300  0.65102  Biso   1.000  N
  N103     1.0000 0.13586  0.57740  0.43714  Biso   1.000  N
  N104     1.0000 0.20305  0.38690  0.57204  Biso   1.000  N
  N105     1.0000 0.19263  0.44040  0.49217  Biso   1.000  N
  N106     1.0000 0.14890  0.93910  0.71200  Biso   1.000  N
  N107     1.0000 0.08361  0.86540  0.52706  Biso   1.000  N
  N108     1.0000 0.16344  0.44840  0.39225  Biso   1.000  N
  N109     1.0000 0.15704  0.06520  0.65074  Biso   1.000  N
  N110     1.0000 0.98734  0.09190  0.61247  Biso   1.000  N
  N111     1.0000 0.13723  0.42360  0.30465  Biso   1.000  N
  N112     1.0000 0.09590  0.71050  0.44339  Biso   1.000  N
  C199     1.0000 0.22414  0.13740  0.64536  Biso   1.000  C
  H163     1.0000 0.25530  0.14840  0.64250  Biso   1.000  H
  C200     1.0000 0.01123  0.12050  0.66522  Biso   1.000  C
  H164     1.0000 0.99580  0.15840  0.68190  Biso   1.000  H
  C201     1.0000 0.27247  0.72160  0.71360  Biso   1.000  C
  H165     1.0000 0.25520  0.75070  0.73160  Biso   1.000  H
  C202     1.0000 0.32494  0.63310  0.66114  Biso   1.000  C
  C203     1.0000 0.31987  0.75910  0.71799  Biso   1.000  C
  C204     1.0000 0.23478  0.64300  0.42494  Biso   1.000  C
  H166     1.0000 0.20740  0.66980  0.39470  Biso   1.000  H
  C205     1.0000 0.34284  0.84890  0.74974  Biso   1.000  C
  C206     1.0000 0.35338  0.58480  0.63283  Biso   1.000  C
  C207     1.0000 0.20082  0.59540  0.67956  Biso   1.000  C
  C208     1.0000 0.06079  0.08480  0.68914  Biso   1.000  C
  H167     1.0000 0.08510  0.09360  0.72490  Biso   1.000  H
  C209     1.0000 0.02312  0.04120  0.60596  Biso   1.000  C
  H168     1.0000 0.01750  0.01350  0.57330  Biso   1.000  H
  C210     1.0000 0.34585  0.71480  0.69148  Biso   1.000  C
  H169     1.0000 0.37740  0.74010  0.69410  Biso   1.000  H
  C211     1.0000 0.16373  0.47900  0.34634  Biso   1.000  C
  H170     1.0000 0.18110  0.53430  0.34420  Biso   1.000  H
  C212     1.0000 0.05854  0.64610  0.41250  Biso   1.000  C
  H171     1.0000 0.02220  0.65670  0.39680  Biso   1.000  H
  C213     1.0000 0.18272  0.45370  0.53522  Biso   1.000  C
  H172     1.0000 0.16340  0.50510  0.53850  Biso   1.000  H
  C214     1.0000 0.20241  0.05040  0.64378  Biso   1.000  C
  H173     1.0000 0.21540  0.99200  0.63900  Biso   1.000  H
  C215     1.0000 0.27710  0.59640  0.65609  Biso   1.000  C
  H174     1.0000 0.26270  0.54240  0.63510  Biso   1.000  H
  C216     1.0000 0.13370  0.36570  0.37777  Biso   1.000  C
  H175     1.0000 0.12580  0.32690  0.40050  Biso   1.000  H
  C217     1.0000 0.15366  0.16020  0.65504  Biso   1.000  C
  H176     1.0000 0.12650  0.19000  0.65970  Biso   1.000  H
  C218     1.0000 0.09803  0.93860  0.55999  Biso   1.000  C
  H177     1.0000 0.10070  0.00050  0.54920  Biso   1.000  H
  C219     1.0000 0.20135  0.93450  0.74256  Biso   1.000  C
  H178     1.0000 0.22590  0.96320  0.73330  Biso   1.000  H
  C220     1.0000 0.12742  0.88670  0.73943  Biso   1.000  C
  H179     1.0000 0.09170  0.87450  0.72840  Biso   1.000  H
  C221     1.0000 0.11834  0.35140  0.32464  Biso   1.000  C
  H180     1.0000 0.09800  0.30030  0.30470  Biso   1.000  H
  C222     1.0000 0.28582  0.67120  0.44740  Biso   1.000  C
  H181     1.0000 0.29960  0.72030  0.43470  Biso   1.000  H
  C223     1.0000 0.10082  0.81820  0.61014  Biso   1.000  C
  H182     1.0000 0.10480  0.78010  0.63920  Biso   1.000  H
  C224     1.0000 0.27985  0.55560  0.49458  Biso   1.000  C
  H183     1.0000 0.28870  0.50920  0.52130  Biso   1.000  H
  C225     1.0000 0.22300  0.35920  0.50401  Biso   1.000  C
  H184     1.0000 0.23700  0.33120  0.48260  Biso   1.000  H
  C226     1.0000 0.14156  0.66670  0.45700  Biso   1.000  C
  H185     1.0000 0.17420  0.69460  0.47810  Biso   1.000  H
  C227     1.0000 0.08201  0.56480  0.40800  Biso   1.000  C
  H186     1.0000 0.06500  0.51050  0.38880  Biso   1.000  H
  C228     1.0000 0.22880  0.32750  0.55242  Biso   1.000  C
  H187     1.0000 0.24760  0.27320  0.56980  Biso   1.000  H
  C229     1.0000 0.16788  0.85620  0.78543  Biso   1.000  C
  H188     1.0000 0.16440  0.82060  0.81200  Biso   1.000  H
  C230     1.0000 0.08640  0.78840  0.55926  Biso   1.000  C
  H189     1.0000 0.07940  0.72540  0.54760  Biso   1.000  H
  C231     1.0000 0.25078  0.64040  0.68235  Biso   1.000  C
  B13      1.0000 0.18059  0.50790  0.44440  Biso   1.000  B
  B14      1.0000 0.12084  0.98740  0.65664  Biso   1.000  B
  Cd22     1.0000 0.69982  0.86845  0.65299  Biso   1.000  Cd
  Cd23     1.0000 0.90450  0.12498  0.54978  Biso   1.000  Cd
  Cd24     1.0000 0.62435  0.03617  0.72083  Biso   1.000  Cd
  O43      1.0000 0.67927  0.02919  0.64634  Biso   1.000  O
  O44      1.0000 0.84035  0.99820  0.61905  Biso   1.000  O
  O45      1.0000 0.68460  0.12631  0.71237  Biso   1.000  O
  O46      1.0000 0.81795  0.39237  0.77146  Biso   1.000  O
  O47      1.0000 0.88598  0.13160  0.62425  Biso   1.000  O
  O48      1.0000 0.88485  0.38150  0.75161  Biso   1.000  O
  N113     1.0000 0.60859  0.41520  0.61115  Biso   1.000  N
  N114     1.0000 0.71434  0.38500  0.78707  Biso   1.000  N
  N115     1.0000 0.81427  0.11580  0.49197  Biso   1.000  N
  N116     1.0000 0.73037  0.06710  0.45485  Biso   1.000  N
  N117     1.0000 0.69284  0.70680  0.65191  Biso   1.000  N
  N118     1.0000 0.56881  0.53300  0.65102  Biso   1.000  N
  N119     1.0000 0.63586  0.07740  0.43714  Biso   1.000  N
  N120     1.0000 0.70305  0.88690  0.57204  Biso   1.000  N
  N121     1.0000 0.69263  0.94040  0.49217  Biso   1.000  N
  N122     1.0000 0.64890  0.43910  0.71200  Biso   1.000  N
  N123     1.0000 0.58361  0.36540  0.52706  Biso   1.000  N
  N124     1.0000 0.66344  0.94840  0.39225  Biso   1.000  N
  N125     1.0000 0.65704  0.56520  0.65074  Biso   1.000  N
  N126     1.0000 0.48734  0.59190  0.61247  Biso   1.000  N
  N127     1.0000 0.63723  0.92360  0.30465  Biso   1.000  N
  N128     1.0000 0.59590  0.21050  0.44339  Biso   1.000  N
  C232     1.0000 0.72414  0.63740  0.64536  Biso   1.000  C
  H190     1.0000 0.75530  0.64840  0.64250  Biso   1.000  H
  C233     1.0000 0.51123  0.62050  0.66522  Biso   1.000  C
  H191     1.0000 0.49580  0.65840  0.68190  Biso   1.000  H
  C234     1.0000 0.77247  0.22160  0.71360  Biso   1.000  C
  H192     1.0000 0.75520  0.25070  0.73160  Biso   1.000  H
  C235     1.0000 0.82494  0.13310  0.66114  Biso   1.000  C
  C236     1.0000 0.81987  0.25910  0.71799  Biso   1.000  C
  C237     1.0000 0.73478  0.14300  0.42494  Biso   1.000  C
  H193     1.0000 0.70740  0.16980  0.39470  Biso   1.000  H
  C238     1.0000 0.84284  0.34890  0.74974  Biso   1.000  C
  C239     1.0000 0.85338  0.08480  0.63283  Biso   1.000  C
  C240     1.0000 0.70082  0.09540  0.67956  Biso   1.000  C
  C241     1.0000 0.56079  0.58480  0.68914  Biso   1.000  C
  H194     1.0000 0.58510  0.59360  0.72490  Biso   1.000  H
  C242     1.0000 0.52312  0.54120  0.60596  Biso   1.000  C
  H195     1.0000 0.51750  0.51350  0.57330  Biso   1.000  H
  C243     1.0000 0.84585  0.21480  0.69148  Biso   1.000  C
  H196     1.0000 0.87740  0.24010  0.69410  Biso   1.000  H
  C244     1.0000 0.66373  0.97900  0.34634  Biso   1.000  C
  H197     1.0000 0.68110  0.03430  0.34420  Biso   1.000  H
  C245     1.0000 0.55854  0.14610  0.41250  Biso   1.000  C
  H198     1.0000 0.52220  0.15670  0.39680  Biso   1.000  H
  C246     1.0000 0.68272  0.95370  0.53522  Biso   1.000  C
  H199     1.0000 0.66340  0.00510  0.53850  Biso   1.000  H
  C247     1.0000 0.70241  0.55040  0.64378  Biso   1.000  C
  H200     1.0000 0.71540  0.49200  0.63900  Biso   1.000  H
  C248     1.0000 0.77710  0.09640  0.65609  Biso   1.000  C
  H201     1.0000 0.76270  0.04240  0.63510  Biso   1.000  H
  C249     1.0000 0.63370  0.86570  0.37777  Biso   1.000  C
  H202     1.0000 0.62580  0.82690  0.40050  Biso   1.000  H
  C250     1.0000 0.65366  0.66020  0.65504  Biso   1.000  C
  H203     1.0000 0.62650  0.69000  0.65970  Biso   1.000  H
  C251     1.0000 0.59803  0.43860  0.55999  Biso   1.000  C
  H204     1.0000 0.60070  0.50050  0.54920  Biso   1.000  H
  C252     1.0000 0.70135  0.43450  0.74256  Biso   1.000  C
  H205     1.0000 0.72590  0.46320  0.73330  Biso   1.000  H
  C253     1.0000 0.62742  0.38670  0.73943  Biso   1.000  C
  H206     1.0000 0.59170  0.37450  0.72840  Biso   1.000  H
  C254     1.0000 0.61834  0.85140  0.32464  Biso   1.000  C
  H207     1.0000 0.59800  0.80030  0.30470  Biso   1.000  H
  C255     1.0000 0.78582  0.17120  0.44740  Biso   1.000  C
  H208     1.0000 0.79960  0.22030  0.43470  Biso   1.000  H
  C256     1.0000 0.60082  0.31820  0.61014  Biso   1.000  C
  H209     1.0000 0.60480  0.28010  0.63920  Biso   1.000  H
  C257     1.0000 0.77985  0.05560  0.49458  Biso   1.000  C
  H210     1.0000 0.78870  0.00920  0.52130  Biso   1.000  H
  C258     1.0000 0.72300  0.85920  0.50401  Biso   1.000  C
  H211     1.0000 0.73700  0.83120  0.48260  Biso   1.000  H
  C259     1.0000 0.64156  0.16670  0.45700  Biso   1.000  C
  H212     1.0000 0.67420  0.19460  0.47810  Biso   1.000  H
  C260     1.0000 0.58201  0.06480  0.40800  Biso   1.000  C
  H213     1.0000 0.56500  0.01050  0.38880  Biso   1.000  H
  C261     1.0000 0.72880  0.82750  0.55242  Biso   1.000  C
  H214     1.0000 0.74760  0.77320  0.56980  Biso   1.000  H
  C262     1.0000 0.66788  0.35620  0.78543  Biso   1.000  C
  H215     1.0000 0.66440  0.32060  0.81200  Biso   1.000  H
  C263     1.0000 0.58640  0.28840  0.55926  Biso   1.000  C
  H216     1.0000 0.57940  0.22540  0.54760  Biso   1.000  H
  C264     1.0000 0.75078  0.14040  0.68235  Biso   1.000  C
  B15      1.0000 0.68059  0.00790  0.44440  Biso   1.000  B
  B16      1.0000 0.62084  0.48740  0.65664  Biso   1.000  B
