data_image0
_cell_length_a       37.0728
_cell_length_b       37.0728
_cell_length_c       37.0728
_cell_angle_alpha    90
_cell_angle_beta     90
_cell_angle_gamma    90

_symmetry_space_group_name_H-M    "P 1"
_symmetry_int_tables_number       1

loop_
  _symmetry_equiv_pos_as_xyz
  'x, y, z'

loop_
  _atom_site_label
  _atom_site_occupancy
  _atom_site_fract_x
  _atom_site_fract_y
  _atom_site_fract_z
  _atom_site_thermal_displace_type
  _atom_site_B_iso_or_equiv
  _atom_site_type_symbol
  N1       1.0000 0.68459  0.71542  0.46313  Biso   1.000  N
  N2       1.0000 0.68866  0.79089  0.46315  Biso   1.000  N
  C1       1.0000 0.66340  0.70942  0.43473  Biso   1.000  C
  N3       1.0000 0.66673  0.79631  0.43549  Biso   1.000  N
  C2       1.0000 0.67517  0.67990  0.41721  Biso   1.000  C
  H1       1.0000 0.64320  0.72370  0.42790  Biso   1.000  H
  C3       1.0000 0.66050  0.66281  0.38449  Biso   1.000  C
  C4       1.0000 0.67679  0.63223  0.37005  Biso   1.000  C
  H2       1.0000 0.69780  0.62260  0.38120  Biso   1.000  H
  N4       1.0000 0.68459  0.21542  0.96313  Biso   1.000  N
  N5       1.0000 0.68866  0.29089  0.96315  Biso   1.000  N
  C5       1.0000 0.66340  0.20942  0.93473  Biso   1.000  C
  N6       1.0000 0.66673  0.29631  0.93549  Biso   1.000  N
  C6       1.0000 0.67517  0.17990  0.91721  Biso   1.000  C
  H3       1.0000 0.64320  0.22370  0.92790  Biso   1.000  H
  C7       1.0000 0.66050  0.16281  0.88449  Biso   1.000  C
  C8       1.0000 0.67679  0.13223  0.87005  Biso   1.000  C
  H4       1.0000 0.69780  0.12260  0.88120  Biso   1.000  H
  N7       1.0000 0.18459  0.71542  0.96313  Biso   1.000  N
  N8       1.0000 0.18866  0.79089  0.96315  Biso   1.000  N
  C9       1.0000 0.16340  0.70942  0.93473  Biso   1.000  C
  N9       1.0000 0.16673  0.79631  0.93549  Biso   1.000  N
  C10      1.0000 0.17517  0.67990  0.91721  Biso   1.000  C
  H5       1.0000 0.14320  0.72370  0.92790  Biso   1.000  H
  C11      1.0000 0.16050  0.66281  0.88449  Biso   1.000  C
  C12      1.0000 0.17679  0.63223  0.87005  Biso   1.000  C
  H6       1.0000 0.19780  0.62260  0.88120  Biso   1.000  H
  N10      1.0000 0.18459  0.21542  0.46313  Biso   1.000  N
  N11      1.0000 0.18866  0.29089  0.46315  Biso   1.000  N
  C13      1.0000 0.16340  0.20942  0.43473  Biso   1.000  C
  N12      1.0000 0.16673  0.29631  0.43549  Biso   1.000  N
  C14      1.0000 0.17517  0.17990  0.41721  Biso   1.000  C
  H7       1.0000 0.14320  0.22370  0.42790  Biso   1.000  H
  C15      1.0000 0.16050  0.16281  0.38449  Biso   1.000  C
  C16      1.0000 0.17679  0.13223  0.37005  Biso   1.000  C
  H8       1.0000 0.19780  0.12260  0.38120  Biso   1.000  H
  N13      1.0000 0.31541  0.28458  0.46313  Biso   1.000  N
  N14      1.0000 0.31134  0.20911  0.46315  Biso   1.000  N
  C17      1.0000 0.33660  0.29058  0.43473  Biso   1.000  C
  N15      1.0000 0.33327  0.20369  0.43549  Biso   1.000  N
  C18      1.0000 0.32483  0.32010  0.41721  Biso   1.000  C
  H9       1.0000 0.35680  0.27630  0.42790  Biso   1.000  H
  C19      1.0000 0.33950  0.33719  0.38449  Biso   1.000  C
  C20      1.0000 0.32321  0.36777  0.37005  Biso   1.000  C
  H10      1.0000 0.30220  0.37740  0.38120  Biso   1.000  H
  N16      1.0000 0.31541  0.78458  0.96313  Biso   1.000  N
  N17      1.0000 0.31134  0.70911  0.96315  Biso   1.000  N
  C21      1.0000 0.33660  0.79058  0.93473  Biso   1.000  C
  N18      1.0000 0.33327  0.70369  0.93549  Biso   1.000  N
  C22      1.0000 0.32483  0.82010  0.91721  Biso   1.000  C
  H11      1.0000 0.35680  0.77630  0.92790  Biso   1.000  H
  C23      1.0000 0.33950  0.83719  0.88449  Biso   1.000  C
  C24      1.0000 0.32321  0.86777  0.87005  Biso   1.000  C
  H12      1.0000 0.30220  0.87740  0.88120  Biso   1.000  H
  N19      1.0000 0.81541  0.28458  0.96313  Biso   1.000  N
  N20      1.0000 0.81134  0.20911  0.96315  Biso   1.000  N
  C25      1.0000 0.83660  0.29058  0.93473  Biso   1.000  C
  N21      1.0000 0.83327  0.20369  0.93549  Biso   1.000  N
  C26      1.0000 0.82483  0.32010  0.91721  Biso   1.000  C
  H13      1.0000 0.85680  0.27630  0.92790  Biso   1.000  H
  C27      1.0000 0.83950  0.33719  0.88449  Biso   1.000  C
  C28      1.0000 0.82321  0.36777  0.87005  Biso   1.000  C
  H14      1.0000 0.80220  0.37740  0.88120  Biso   1.000  H
  N22      1.0000 0.81541  0.78458  0.46313  Biso   1.000  N
  N23      1.0000 0.81134  0.70911  0.46315  Biso   1.000  N
  C29      1.0000 0.83660  0.79058  0.43473  Biso   1.000  C
  N24      1.0000 0.83327  0.70369  0.43549  Biso   1.000  N
  C30      1.0000 0.82483  0.82010  0.41721  Biso   1.000  C
  H15      1.0000 0.85680  0.77630  0.42790  Biso   1.000  H
  C31      1.0000 0.83950  0.83719  0.38449  Biso   1.000  C
  C32      1.0000 0.82321  0.86777  0.37005  Biso   1.000  C
  H16      1.0000 0.80220  0.87740  0.38120  Biso   1.000  H
  N25      1.0000 0.31541  0.71542  0.53687  Biso   1.000  N
  N26      1.0000 0.31134  0.79089  0.53685  Biso   1.000  N
  C33      1.0000 0.33660  0.70942  0.56527  Biso   1.000  C
  N27      1.0000 0.33327  0.79631  0.56451  Biso   1.000  N
  C34      1.0000 0.32483  0.67990  0.58279  Biso   1.000  C
  H17      1.0000 0.35680  0.72370  0.57210  Biso   1.000  H
  C35      1.0000 0.33950  0.66281  0.61551  Biso   1.000  C
  C36      1.0000 0.32321  0.63223  0.62995  Biso   1.000  C
  H18      1.0000 0.30220  0.62260  0.61880  Biso   1.000  H
  N28      1.0000 0.31541  0.21542  0.03687  Biso   1.000  N
  N29      1.0000 0.31134  0.29089  0.03685  Biso   1.000  N
  C37      1.0000 0.33660  0.20942  0.06527  Biso   1.000  C
  N30      1.0000 0.33327  0.29631  0.06451  Biso   1.000  N
  C38      1.0000 0.32483  0.17990  0.08279  Biso   1.000  C
  H19      1.0000 0.35680  0.22370  0.07210  Biso   1.000  H
  C39      1.0000 0.33950  0.16281  0.11551  Biso   1.000  C
  C40      1.0000 0.32321  0.13223  0.12995  Biso   1.000  C
  H20      1.0000 0.30220  0.12260  0.11880  Biso   1.000  H
  N31      1.0000 0.81541  0.71542  0.03687  Biso   1.000  N
  N32      1.0000 0.81134  0.79089  0.03685  Biso   1.000  N
  C41      1.0000 0.83660  0.70942  0.06527  Biso   1.000  C
  N33      1.0000 0.83327  0.79631  0.06451  Biso   1.000  N
  C42      1.0000 0.82483  0.67990  0.08279  Biso   1.000  C
  H21      1.0000 0.85680  0.72370  0.07210  Biso   1.000  H
  C43      1.0000 0.83950  0.66281  0.11551  Biso   1.000  C
  C44      1.0000 0.82321  0.63223  0.12995  Biso   1.000  C
  H22      1.0000 0.80220  0.62260  0.11880  Biso   1.000  H
  N34      1.0000 0.81541  0.21542  0.53687  Biso   1.000  N
  N35      1.0000 0.81134  0.29089  0.53685  Biso   1.000  N
  C45      1.0000 0.83660  0.20942  0.56527  Biso   1.000  C
  N36      1.0000 0.83327  0.29631  0.56451  Biso   1.000  N
  C46      1.0000 0.82483  0.17990  0.58279  Biso   1.000  C
  H23      1.0000 0.85680  0.22370  0.57210  Biso   1.000  H
  C47      1.0000 0.83950  0.16281  0.61551  Biso   1.000  C
  C48      1.0000 0.82321  0.13223  0.62995  Biso   1.000  C
  H24      1.0000 0.80220  0.12260  0.61880  Biso   1.000  H
  N37      1.0000 0.68459  0.28458  0.53687  Biso   1.000  N
  N38      1.0000 0.68866  0.20911  0.53685  Biso   1.000  N
  C49      1.0000 0.66340  0.29058  0.56527  Biso   1.000  C
  N39      1.0000 0.66673  0.20369  0.56451  Biso   1.000  N
  C50      1.0000 0.67517  0.32010  0.58279  Biso   1.000  C
  H25      1.0000 0.64320  0.27630  0.57210  Biso   1.000  H
  C51      1.0000 0.66050  0.33719  0.61551  Biso   1.000  C
  C52      1.0000 0.67679  0.36777  0.62995  Biso   1.000  C
  H26      1.0000 0.69780  0.37740  0.61880  Biso   1.000  H
  N40      1.0000 0.68459  0.78458  0.03687  Biso   1.000  N
  N41      1.0000 0.68866  0.70911  0.03685  Biso   1.000  N
  C53      1.0000 0.66340  0.79058  0.06527  Biso   1.000  C
  N42      1.0000 0.66673  0.70369  0.06451  Biso   1.000  N
  C54      1.0000 0.67517  0.82010  0.08279  Biso   1.000  C
  H27      1.0000 0.64320  0.77630  0.07210  Biso   1.000  H
  C55      1.0000 0.66050  0.83719  0.11551  Biso   1.000  C
  C56      1.0000 0.67679  0.86777  0.12995  Biso   1.000  C
  H28      1.0000 0.69780  0.87740  0.11880  Biso   1.000  H
  N43      1.0000 0.18459  0.28458  0.03687  Biso   1.000  N
  N44      1.0000 0.18866  0.20911  0.03685  Biso   1.000  N
  C57      1.0000 0.16340  0.29058  0.06527  Biso   1.000  C
  N45      1.0000 0.16673  0.20369  0.06451  Biso   1.000  N
  C58      1.0000 0.17517  0.32010  0.08279  Biso   1.000  C
  H29      1.0000 0.14320  0.27630  0.07210  Biso   1.000  H
  C59      1.0000 0.16050  0.33719  0.11551  Biso   1.000  C
  C60      1.0000 0.17679  0.36777  0.12995  Biso   1.000  C
  H30      1.0000 0.19780  0.37740  0.11880  Biso   1.000  H
  N46      1.0000 0.18459  0.78458  0.53687  Biso   1.000  N
  N47      1.0000 0.18866  0.70911  0.53685  Biso   1.000  N
  C61      1.0000 0.16340  0.79058  0.56527  Biso   1.000  C
  N48      1.0000 0.16673  0.70369  0.56451  Biso   1.000  N
  C62      1.0000 0.17517  0.82010  0.58279  Biso   1.000  C
  H31      1.0000 0.14320  0.77630  0.57210  Biso   1.000  H
  C63      1.0000 0.16050  0.83719  0.61551  Biso   1.000  C
  C64      1.0000 0.17679  0.86777  0.62995  Biso   1.000  C
  H32      1.0000 0.19780  0.87740  0.61880  Biso   1.000  H
  N49      1.0000 0.46313  0.68459  0.71542  Biso   1.000  N
  N50      1.0000 0.46315  0.68866  0.79089  Biso   1.000  N
  C65      1.0000 0.43473  0.66340  0.70942  Biso   1.000  C
  N51      1.0000 0.43549  0.66673  0.79631  Biso   1.000  N
  C66      1.0000 0.41721  0.67517  0.67990  Biso   1.000  C
  H33      1.0000 0.42790  0.64320  0.72370  Biso   1.000  H
  C67      1.0000 0.38449  0.66050  0.66281  Biso   1.000  C
  C68      1.0000 0.37005  0.67679  0.63223  Biso   1.000  C
  H34      1.0000 0.38120  0.69780  0.62260  Biso   1.000  H
  N52      1.0000 0.46313  0.18459  0.21542  Biso   1.000  N
  N53      1.0000 0.46315  0.18866  0.29089  Biso   1.000  N
  C69      1.0000 0.43473  0.16340  0.20942  Biso   1.000  C
  N54      1.0000 0.43549  0.16673  0.29631  Biso   1.000  N
  C70      1.0000 0.41721  0.17517  0.17990  Biso   1.000  C
  H35      1.0000 0.42790  0.14320  0.22370  Biso   1.000  H
  C71      1.0000 0.38449  0.16050  0.16281  Biso   1.000  C
  C72      1.0000 0.37005  0.17679  0.13223  Biso   1.000  C
  H36      1.0000 0.38120  0.19780  0.12260  Biso   1.000  H
  N55      1.0000 0.96313  0.68459  0.21542  Biso   1.000  N
  N56      1.0000 0.96315  0.68866  0.29089  Biso   1.000  N
  C73      1.0000 0.93473  0.66340  0.20942  Biso   1.000  C
  N57      1.0000 0.93549  0.66673  0.29631  Biso   1.000  N
  C74      1.0000 0.91721  0.67517  0.17990  Biso   1.000  C
  H37      1.0000 0.92790  0.64320  0.22370  Biso   1.000  H
  C75      1.0000 0.88449  0.66050  0.16281  Biso   1.000  C
  C76      1.0000 0.87005  0.67679  0.13223  Biso   1.000  C
  H38      1.0000 0.88120  0.69780  0.12260  Biso   1.000  H
  N58      1.0000 0.96313  0.18459  0.71542  Biso   1.000  N
  N59      1.0000 0.96315  0.18866  0.79089  Biso   1.000  N
  C77      1.0000 0.93473  0.16340  0.70942  Biso   1.000  C
  N60      1.0000 0.93549  0.16673  0.79631  Biso   1.000  N
  C78      1.0000 0.91721  0.17517  0.67990  Biso   1.000  C
  H39      1.0000 0.92790  0.14320  0.72370  Biso   1.000  H
  C79      1.0000 0.88449  0.16050  0.66281  Biso   1.000  C
  C80      1.0000 0.87005  0.17679  0.63223  Biso   1.000  C
  H40      1.0000 0.88120  0.19780  0.62260  Biso   1.000  H
  N61      1.0000 0.46313  0.31541  0.28458  Biso   1.000  N
  N62      1.0000 0.46315  0.31134  0.20911  Biso   1.000  N
  C81      1.0000 0.43473  0.33660  0.29058  Biso   1.000  C
  N63      1.0000 0.43549  0.33327  0.20369  Biso   1.000  N
  C82      1.0000 0.41721  0.32483  0.32010  Biso   1.000  C
  H41      1.0000 0.42790  0.35680  0.27630  Biso   1.000  H
  C83      1.0000 0.38449  0.33950  0.33719  Biso   1.000  C
  C84      1.0000 0.37005  0.32321  0.36777  Biso   1.000  C
  H42      1.0000 0.38120  0.30220  0.37740  Biso   1.000  H
  N64      1.0000 0.46313  0.81541  0.78458  Biso   1.000  N
  N65      1.0000 0.46315  0.81134  0.70911  Biso   1.000  N
  C85      1.0000 0.43473  0.83660  0.79058  Biso   1.000  C
  N66      1.0000 0.43549  0.83327  0.70369  Biso   1.000  N
  C86      1.0000 0.41721  0.82483  0.82010  Biso   1.000  C
  H43      1.0000 0.42790  0.85680  0.77630  Biso   1.000  H
  C87      1.0000 0.38449  0.83950  0.83719  Biso   1.000  C
  C88      1.0000 0.37005  0.82321  0.86777  Biso   1.000  C
  H44      1.0000 0.38120  0.80220  0.87740  Biso   1.000  H
  N67      1.0000 0.96313  0.31541  0.78458  Biso   1.000  N
  N68      1.0000 0.96315  0.31134  0.70911  Biso   1.000  N
  C89      1.0000 0.93473  0.33660  0.79058  Biso   1.000  C
  N69      1.0000 0.93549  0.33327  0.70369  Biso   1.000  N
  C90      1.0000 0.91721  0.32483  0.82010  Biso   1.000  C
  H45      1.0000 0.92790  0.35680  0.77630  Biso   1.000  H
  C91      1.0000 0.88449  0.33950  0.83719  Biso   1.000  C
  C92      1.0000 0.87005  0.32321  0.86777  Biso   1.000  C
  H46      1.0000 0.88120  0.30220  0.87740  Biso   1.000  H
  N70      1.0000 0.96313  0.81541  0.28458  Biso   1.000  N
  N71      1.0000 0.96315  0.81134  0.20911  Biso   1.000  N
  C93      1.0000 0.93473  0.83660  0.29058  Biso   1.000  C
  N72      1.0000 0.93549  0.83327  0.20369  Biso   1.000  N
  C94      1.0000 0.91721  0.82483  0.32010  Biso   1.000  C
  H47      1.0000 0.92790  0.85680  0.27630  Biso   1.000  H
  C95      1.0000 0.88449  0.83950  0.33719  Biso   1.000  C
  C96      1.0000 0.87005  0.82321  0.36777  Biso   1.000  C
  H48      1.0000 0.88120  0.80220  0.37740  Biso   1.000  H
  N73      1.0000 0.53687  0.31541  0.71542  Biso   1.000  N
  N74      1.0000 0.53685  0.31134  0.79089  Biso   1.000  N
  C97      1.0000 0.56527  0.33660  0.70942  Biso   1.000  C
  N75      1.0000 0.56451  0.33327  0.79631  Biso   1.000  N
  C98      1.0000 0.58279  0.32483  0.67990  Biso   1.000  C
  H49      1.0000 0.57210  0.35680  0.72370  Biso   1.000  H
  C99      1.0000 0.61551  0.33950  0.66281  Biso   1.000  C
  C100     1.0000 0.62995  0.32321  0.63223  Biso   1.000  C
  H50      1.0000 0.61880  0.30220  0.62260  Biso   1.000  H
  N76      1.0000 0.53687  0.81541  0.21542  Biso   1.000  N
  N77      1.0000 0.53685  0.81134  0.29089  Biso   1.000  N
  C101     1.0000 0.56527  0.83660  0.20942  Biso   1.000  C
  N78      1.0000 0.56451  0.83327  0.29631  Biso   1.000  N
  C102     1.0000 0.58279  0.82483  0.17990  Biso   1.000  C
  H51      1.0000 0.57210  0.85680  0.22370  Biso   1.000  H
  C103     1.0000 0.61551  0.83950  0.16281  Biso   1.000  C
  C104     1.0000 0.62995  0.82321  0.13223  Biso   1.000  C
  H52      1.0000 0.61880  0.80220  0.12260  Biso   1.000  H
  N79      1.0000 0.03687  0.31541  0.21542  Biso   1.000  N
  N80      1.0000 0.03685  0.31134  0.29089  Biso   1.000  N
  C105     1.0000 0.06527  0.33660  0.20942  Biso   1.000  C
  N81      1.0000 0.06451  0.33327  0.29631  Biso   1.000  N
  C106     1.0000 0.08279  0.32483  0.17990  Biso   1.000  C
  H53      1.0000 0.07210  0.35680  0.22370  Biso   1.000  H
  C107     1.0000 0.11551  0.33950  0.16281  Biso   1.000  C
  C108     1.0000 0.12995  0.32321  0.13223  Biso   1.000  C
  H54      1.0000 0.11880  0.30220  0.12260  Biso   1.000  H
  N82      1.0000 0.03687  0.81541  0.71542  Biso   1.000  N
  N83      1.0000 0.03685  0.81134  0.79089  Biso   1.000  N
  C109     1.0000 0.06527  0.83660  0.70942  Biso   1.000  C
  N84      1.0000 0.06451  0.83327  0.79631  Biso   1.000  N
  C110     1.0000 0.08279  0.82483  0.67990  Biso   1.000  C
  H55      1.0000 0.07210  0.85680  0.72370  Biso   1.000  H
  C111     1.0000 0.11551  0.83950  0.66281  Biso   1.000  C
  C112     1.0000 0.12995  0.82321  0.63223  Biso   1.000  C
  H56      1.0000 0.11880  0.80220  0.62260  Biso   1.000  H
  N85      1.0000 0.53687  0.68459  0.28458  Biso   1.000  N
  N86      1.0000 0.53685  0.68866  0.20911  Biso   1.000  N
  C113     1.0000 0.56527  0.66340  0.29058  Biso   1.000  C
  N87      1.0000 0.56451  0.66673  0.20369  Biso   1.000  N
  C114     1.0000 0.58279  0.67517  0.32010  Biso   1.000  C
  H57      1.0000 0.57210  0.64320  0.27630  Biso   1.000  H
  C115     1.0000 0.61551  0.66050  0.33719  Biso   1.000  C
  C116     1.0000 0.62995  0.67679  0.36777  Biso   1.000  C
  H58      1.0000 0.61880  0.69780  0.37740  Biso   1.000  H
  N88      1.0000 0.53687  0.18459  0.78458  Biso   1.000  N
  N89      1.0000 0.53685  0.18866  0.70911  Biso   1.000  N
  C117     1.0000 0.56527  0.16340  0.79058  Biso   1.000  C
  N90      1.0000 0.56451  0.16673  0.70369  Biso   1.000  N
  C118     1.0000 0.58279  0.17517  0.82010  Biso   1.000  C
  H59      1.0000 0.57210  0.14320  0.77630  Biso   1.000  H
  C119     1.0000 0.61551  0.16050  0.83719  Biso   1.000  C
  C120     1.0000 0.62995  0.17679  0.86777  Biso   1.000  C
  H60      1.0000 0.61880  0.19780  0.87740  Biso   1.000  H
  N91      1.0000 0.03687  0.68459  0.78458  Biso   1.000  N
  N92      1.0000 0.03685  0.68866  0.70911  Biso   1.000  N
  C121     1.0000 0.06527  0.66340  0.79058  Biso   1.000  C
  N93      1.0000 0.06451  0.66673  0.70369  Biso   1.000  N
  C122     1.0000 0.08279  0.67517  0.82010  Biso   1.000  C
  H61      1.0000 0.07210  0.64320  0.77630  Biso   1.000  H
  C123     1.0000 0.11551  0.66050  0.83719  Biso   1.000  C
  C124     1.0000 0.12995  0.67679  0.86777  Biso   1.000  C
  H62      1.0000 0.11880  0.69780  0.87740  Biso   1.000  H
  N94      1.0000 0.03687  0.18459  0.28458  Biso   1.000  N
  N95      1.0000 0.03685  0.18866  0.20911  Biso   1.000  N
  C125     1.0000 0.06527  0.16340  0.29058  Biso   1.000  C
  N96      1.0000 0.06451  0.16673  0.20369  Biso   1.000  N
  C126     1.0000 0.08279  0.17517  0.32010  Biso   1.000  C
  H63      1.0000 0.07210  0.14320  0.27630  Biso   1.000  H
  C127     1.0000 0.11551  0.16050  0.33719  Biso   1.000  C
  C128     1.0000 0.12995  0.17679  0.36777  Biso   1.000  C
  H64      1.0000 0.11880  0.19780  0.37740  Biso   1.000  H
  N97      1.0000 0.71542  0.46313  0.68459  Biso   1.000  N
  N98      1.0000 0.79089  0.46315  0.68866  Biso   1.000  N
  C129     1.0000 0.70942  0.43473  0.66340  Biso   1.000  C
  N99      1.0000 0.79631  0.43549  0.66673  Biso   1.000  N
  C130     1.0000 0.67990  0.41721  0.67517  Biso   1.000  C
  H65      1.0000 0.72370  0.42790  0.64320  Biso   1.000  H
  C131     1.0000 0.66281  0.38449  0.66050  Biso   1.000  C
  C132     1.0000 0.63223  0.37005  0.67679  Biso   1.000  C
  H66      1.0000 0.62260  0.38120  0.69780  Biso   1.000  H
  N100     1.0000 0.71542  0.96313  0.18459  Biso   1.000  N
  N101     1.0000 0.79089  0.96315  0.18866  Biso   1.000  N
  C133     1.0000 0.70942  0.93473  0.16340  Biso   1.000  C
  N102     1.0000 0.79631  0.93549  0.16673  Biso   1.000  N
  C134     1.0000 0.67990  0.91721  0.17517  Biso   1.000  C
  H67      1.0000 0.72370  0.92790  0.14320  Biso   1.000  H
  C135     1.0000 0.66281  0.88449  0.16050  Biso   1.000  C
  C136     1.0000 0.63223  0.87005  0.17679  Biso   1.000  C
  H68      1.0000 0.62260  0.88120  0.19780  Biso   1.000  H
  N103     1.0000 0.21542  0.46313  0.18459  Biso   1.000  N
  N104     1.0000 0.29089  0.46315  0.18866  Biso   1.000  N
  C137     1.0000 0.20942  0.43473  0.16340  Biso   1.000  C
  N105     1.0000 0.29631  0.43549  0.16673  Biso   1.000  N
  C138     1.0000 0.17990  0.41721  0.17517  Biso   1.000  C
  H69      1.0000 0.22370  0.42790  0.14320  Biso   1.000  H
  C139     1.0000 0.16281  0.38449  0.16050  Biso   1.000  C
  C140     1.0000 0.13223  0.37005  0.17679  Biso   1.000  C
  H70      1.0000 0.12260  0.38120  0.19780  Biso   1.000  H
  N106     1.0000 0.21542  0.96313  0.68459  Biso   1.000  N
  N107     1.0000 0.29089  0.96315  0.68866  Biso   1.000  N
  C141     1.0000 0.20942  0.93473  0.66340  Biso   1.000  C
  N108     1.0000 0.29631  0.93549  0.66673  Biso   1.000  N
  C142     1.0000 0.17990  0.91721  0.67517  Biso   1.000  C
  H71      1.0000 0.22370  0.92790  0.64320  Biso   1.000  H
  C143     1.0000 0.16281  0.88449  0.66050  Biso   1.000  C
  C144     1.0000 0.13223  0.87005  0.67679  Biso   1.000  C
  H72      1.0000 0.12260  0.88120  0.69780  Biso   1.000  H
  N109     1.0000 0.28458  0.46313  0.31541  Biso   1.000  N
  N110     1.0000 0.20911  0.46315  0.31134  Biso   1.000  N
  C145     1.0000 0.29058  0.43473  0.33660  Biso   1.000  C
  N111     1.0000 0.20369  0.43549  0.33327  Biso   1.000  N
  C146     1.0000 0.32010  0.41721  0.32483  Biso   1.000  C
  H73      1.0000 0.27630  0.42790  0.35680  Biso   1.000  H
  C147     1.0000 0.33719  0.38449  0.33950  Biso   1.000  C
  C148     1.0000 0.36777  0.37005  0.32321  Biso   1.000  C
  H74      1.0000 0.37740  0.38120  0.30220  Biso   1.000  H
  N112     1.0000 0.28458  0.96313  0.81541  Biso   1.000  N
  N113     1.0000 0.20911  0.96315  0.81134  Biso   1.000  N
  C149     1.0000 0.29058  0.93473  0.83660  Biso   1.000  C
  N114     1.0000 0.20369  0.93549  0.83327  Biso   1.000  N
  C150     1.0000 0.32010  0.91721  0.82483  Biso   1.000  C
  H75      1.0000 0.27630  0.92790  0.85680  Biso   1.000  H
  C151     1.0000 0.33719  0.88449  0.83950  Biso   1.000  C
  C152     1.0000 0.36777  0.87005  0.82321  Biso   1.000  C
  H76      1.0000 0.37740  0.88120  0.80220  Biso   1.000  H
  N115     1.0000 0.78458  0.46313  0.81541  Biso   1.000  N
  N116     1.0000 0.70911  0.46315  0.81134  Biso   1.000  N
  C153     1.0000 0.79058  0.43473  0.83660  Biso   1.000  C
  N117     1.0000 0.70369  0.43549  0.83327  Biso   1.000  N
  C154     1.0000 0.82010  0.41721  0.82483  Biso   1.000  C
  H77      1.0000 0.77630  0.42790  0.85680  Biso   1.000  H
  C155     1.0000 0.83719  0.38449  0.83950  Biso   1.000  C
  C156     1.0000 0.86777  0.37005  0.82321  Biso   1.000  C
  H78      1.0000 0.87740  0.38120  0.80220  Biso   1.000  H
  N118     1.0000 0.78458  0.96313  0.31541  Biso   1.000  N
  N119     1.0000 0.70911  0.96315  0.31134  Biso   1.000  N
  C157     1.0000 0.79058  0.93473  0.33660  Biso   1.000  C
  N120     1.0000 0.70369  0.93549  0.33327  Biso   1.000  N
  C158     1.0000 0.82010  0.91721  0.32483  Biso   1.000  C
  H79      1.0000 0.77630  0.92790  0.35680  Biso   1.000  H
  C159     1.0000 0.83719  0.88449  0.33950  Biso   1.000  C
  C160     1.0000 0.86777  0.87005  0.32321  Biso   1.000  C
  H80      1.0000 0.87740  0.88120  0.30220  Biso   1.000  H
  N121     1.0000 0.71542  0.53687  0.31541  Biso   1.000  N
  N122     1.0000 0.79089  0.53685  0.31134  Biso   1.000  N
  C161     1.0000 0.70942  0.56527  0.33660  Biso   1.000  C
  N123     1.0000 0.79631  0.56451  0.33327  Biso   1.000  N
  C162     1.0000 0.67990  0.58279  0.32483  Biso   1.000  C
  H81      1.0000 0.72370  0.57210  0.35680  Biso   1.000  H
  C163     1.0000 0.66281  0.61551  0.33950  Biso   1.000  C
  C164     1.0000 0.63223  0.62995  0.32321  Biso   1.000  C
  H82      1.0000 0.62260  0.61880  0.30220  Biso   1.000  H
  N124     1.0000 0.71542  0.03687  0.81541  Biso   1.000  N
  N125     1.0000 0.79089  0.03685  0.81134  Biso   1.000  N
  C165     1.0000 0.70942  0.06527  0.83660  Biso   1.000  C
  N126     1.0000 0.79631  0.06451  0.83327  Biso   1.000  N
  C166     1.0000 0.67990  0.08279  0.82483  Biso   1.000  C
  H83      1.0000 0.72370  0.07210  0.85680  Biso   1.000  H
  C167     1.0000 0.66281  0.11551  0.83950  Biso   1.000  C
  C168     1.0000 0.63223  0.12995  0.82321  Biso   1.000  C
  H84      1.0000 0.62260  0.11880  0.80220  Biso   1.000  H
  N127     1.0000 0.21542  0.53687  0.81541  Biso   1.000  N
  N128     1.0000 0.29089  0.53685  0.81134  Biso   1.000  N
  C169     1.0000 0.20942  0.56527  0.83660  Biso   1.000  C
  N129     1.0000 0.29631  0.56451  0.83327  Biso   1.000  N
  C170     1.0000 0.17990  0.58279  0.82483  Biso   1.000  C
  H85      1.0000 0.22370  0.57210  0.85680  Biso   1.000  H
  C171     1.0000 0.16281  0.61551  0.83950  Biso   1.000  C
  C172     1.0000 0.13223  0.62995  0.82321  Biso   1.000  C
  H86      1.0000 0.12260  0.61880  0.80220  Biso   1.000  H
  N130     1.0000 0.21542  0.03687  0.31541  Biso   1.000  N
  N131     1.0000 0.29089  0.03685  0.31134  Biso   1.000  N
  C173     1.0000 0.20942  0.06527  0.33660  Biso   1.000  C
  N132     1.0000 0.29631  0.06451  0.33327  Biso   1.000  N
  C174     1.0000 0.17990  0.08279  0.32483  Biso   1.000  C
  H87      1.0000 0.22370  0.07210  0.35680  Biso   1.000  H
  C175     1.0000 0.16281  0.11551  0.33950  Biso   1.000  C
  C176     1.0000 0.13223  0.12995  0.32321  Biso   1.000  C
  H88      1.0000 0.12260  0.11880  0.30220  Biso   1.000  H
  N133     1.0000 0.28458  0.53687  0.68459  Biso   1.000  N
  N134     1.0000 0.20911  0.53685  0.68866  Biso   1.000  N
  C177     1.0000 0.29058  0.56527  0.66340  Biso   1.000  C
  N135     1.0000 0.20369  0.56451  0.66673  Biso   1.000  N
  C178     1.0000 0.32010  0.58279  0.67517  Biso   1.000  C
  H89      1.0000 0.27630  0.57210  0.64320  Biso   1.000  H
  C179     1.0000 0.33719  0.61551  0.66050  Biso   1.000  C
  C180     1.0000 0.36777  0.62995  0.67679  Biso   1.000  C
  H90      1.0000 0.37740  0.61880  0.69780  Biso   1.000  H
  N136     1.0000 0.28458  0.03687  0.18459  Biso   1.000  N
  N137     1.0000 0.20911  0.03685  0.18866  Biso   1.000  N
  C181     1.0000 0.29058  0.06527  0.16340  Biso   1.000  C
  N138     1.0000 0.20369  0.06451  0.16673  Biso   1.000  N
  C182     1.0000 0.32010  0.08279  0.17517  Biso   1.000  C
  H91      1.0000 0.27630  0.07210  0.14320  Biso   1.000  H
  C183     1.0000 0.33719  0.11551  0.16050  Biso   1.000  C
  C184     1.0000 0.36777  0.12995  0.17679  Biso   1.000  C
  H92      1.0000 0.37740  0.11880  0.19780  Biso   1.000  H
  N139     1.0000 0.78458  0.53687  0.18459  Biso   1.000  N
  N140     1.0000 0.70911  0.53685  0.18866  Biso   1.000  N
  C185     1.0000 0.79058  0.56527  0.16340  Biso   1.000  C
  N141     1.0000 0.70369  0.56451  0.16673  Biso   1.000  N
  C186     1.0000 0.82010  0.58279  0.17517  Biso   1.000  C
  H93      1.0000 0.77630  0.57210  0.14320  Biso   1.000  H
  C187     1.0000 0.83719  0.61551  0.16050  Biso   1.000  C
  C188     1.0000 0.86777  0.62995  0.17679  Biso   1.000  C
  H94      1.0000 0.87740  0.61880  0.19780  Biso   1.000  H
  N142     1.0000 0.78458  0.03687  0.68459  Biso   1.000  N
  N143     1.0000 0.70911  0.03685  0.68866  Biso   1.000  N
  C189     1.0000 0.79058  0.06527  0.66340  Biso   1.000  C
  N144     1.0000 0.70369  0.06451  0.66673  Biso   1.000  N
  C190     1.0000 0.82010  0.08279  0.67517  Biso   1.000  C
  H95      1.0000 0.77630  0.07210  0.64320  Biso   1.000  H
  C191     1.0000 0.83719  0.11551  0.66050  Biso   1.000  C
  C192     1.0000 0.86777  0.12995  0.67679  Biso   1.000  C
  H96      1.0000 0.87740  0.11880  0.69780  Biso   1.000  H
  N145     1.0000 0.21542  0.18459  0.03687  Biso   1.000  N
  N146     1.0000 0.29089  0.18866  0.03685  Biso   1.000  N
  C193     1.0000 0.20942  0.16340  0.06527  Biso   1.000  C
  N147     1.0000 0.29631  0.16673  0.06451  Biso   1.000  N
  C194     1.0000 0.17990  0.17517  0.08279  Biso   1.000  C
  H97      1.0000 0.22370  0.14320  0.07210  Biso   1.000  H
  C195     1.0000 0.16281  0.16050  0.11551  Biso   1.000  C
  C196     1.0000 0.13223  0.17679  0.12995  Biso   1.000  C
  H98      1.0000 0.12260  0.19780  0.11880  Biso   1.000  H
  N148     1.0000 0.21542  0.68459  0.53687  Biso   1.000  N
  N149     1.0000 0.29089  0.68866  0.53685  Biso   1.000  N
  C197     1.0000 0.20942  0.66340  0.56527  Biso   1.000  C
  N150     1.0000 0.29631  0.66673  0.56451  Biso   1.000  N
  C198     1.0000 0.17990  0.67517  0.58279  Biso   1.000  C
  H99      1.0000 0.22370  0.64320  0.57210  Biso   1.000  H
  C199     1.0000 0.16281  0.66050  0.61551  Biso   1.000  C
  C200     1.0000 0.13223  0.67679  0.62995  Biso   1.000  C
  H100     1.0000 0.12260  0.69780  0.61880  Biso   1.000  H
  N151     1.0000 0.71542  0.18459  0.53687  Biso   1.000  N
  N152     1.0000 0.79089  0.18866  0.53685  Biso   1.000  N
  C201     1.0000 0.70942  0.16340  0.56527  Biso   1.000  C
  N153     1.0000 0.79631  0.16673  0.56451  Biso   1.000  N
  C202     1.0000 0.67990  0.17517  0.58279  Biso   1.000  C
  H101     1.0000 0.72370  0.14320  0.57210  Biso   1.000  H
  C203     1.0000 0.66281  0.16050  0.61551  Biso   1.000  C
  C204     1.0000 0.63223  0.17679  0.62995  Biso   1.000  C
  H102     1.0000 0.62260  0.19780  0.61880  Biso   1.000  H
  N154     1.0000 0.71542  0.68459  0.03687  Biso   1.000  N
  N155     1.0000 0.79089  0.68866  0.03685  Biso   1.000  N
  C205     1.0000 0.70942  0.66340  0.06527  Biso   1.000  C
  N156     1.0000 0.79631  0.66673  0.06451  Biso   1.000  N
  C206     1.0000 0.67990  0.67517  0.08279  Biso   1.000  C
  H103     1.0000 0.72370  0.64320  0.07210  Biso   1.000  H
  C207     1.0000 0.66281  0.66050  0.11551  Biso   1.000  C
  C208     1.0000 0.63223  0.67679  0.12995  Biso   1.000  C
  H104     1.0000 0.62260  0.69780  0.11880  Biso   1.000  H
  N157     1.0000 0.78458  0.81541  0.03687  Biso   1.000  N
  N158     1.0000 0.70911  0.81134  0.03685  Biso   1.000  N
  C209     1.0000 0.79058  0.83660  0.06527  Biso   1.000  C
  N159     1.0000 0.70369  0.83327  0.06451  Biso   1.000  N
  C210     1.0000 0.82010  0.82483  0.08279  Biso   1.000  C
  H105     1.0000 0.77630  0.85680  0.07210  Biso   1.000  H
  C211     1.0000 0.83719  0.83950  0.11551  Biso   1.000  C
  C212     1.0000 0.86777  0.82321  0.12995  Biso   1.000  C
  H106     1.0000 0.87740  0.80220  0.11880  Biso   1.000  H
  N160     1.0000 0.78458  0.31541  0.53687  Biso   1.000  N
  N161     1.0000 0.70911  0.31134  0.53685  Biso   1.000  N
  C213     1.0000 0.79058  0.33660  0.56527  Biso   1.000  C
  N162     1.0000 0.70369  0.33327  0.56451  Biso   1.000  N
  C214     1.0000 0.82010  0.32483  0.58279  Biso   1.000  C
  H107     1.0000 0.77630  0.35680  0.57210  Biso   1.000  H
  C215     1.0000 0.83719  0.33950  0.61551  Biso   1.000  C
  C216     1.0000 0.86777  0.32321  0.62995  Biso   1.000  C
  H108     1.0000 0.87740  0.30220  0.61880  Biso   1.000  H
  N163     1.0000 0.28458  0.81541  0.53687  Biso   1.000  N
  N164     1.0000 0.20911  0.81134  0.53685  Biso   1.000  N
  C217     1.0000 0.29058  0.83660  0.56527  Biso   1.000  C
  N165     1.0000 0.20369  0.83327  0.56451  Biso   1.000  N
  C218     1.0000 0.32010  0.82483  0.58279  Biso   1.000  C
  H109     1.0000 0.27630  0.85680  0.57210  Biso   1.000  H
  C219     1.0000 0.33719  0.83950  0.61551  Biso   1.000  C
  C220     1.0000 0.36777  0.82321  0.62995  Biso   1.000  C
  H110     1.0000 0.37740  0.80220  0.61880  Biso   1.000  H
  N166     1.0000 0.28458  0.31541  0.03687  Biso   1.000  N
  N167     1.0000 0.20911  0.31134  0.03685  Biso   1.000  N
  C221     1.0000 0.29058  0.33660  0.06527  Biso   1.000  C
  N168     1.0000 0.20369  0.33327  0.06451  Biso   1.000  N
  C222     1.0000 0.32010  0.32483  0.08279  Biso   1.000  C
  H111     1.0000 0.27630  0.35680  0.07210  Biso   1.000  H
  C223     1.0000 0.33719  0.33950  0.11551  Biso   1.000  C
  C224     1.0000 0.36777  0.32321  0.12995  Biso   1.000  C
  H112     1.0000 0.37740  0.30220  0.11880  Biso   1.000  H
  N169     1.0000 0.21542  0.81541  0.96313  Biso   1.000  N
  N170     1.0000 0.29089  0.81134  0.96315  Biso   1.000  N
  C225     1.0000 0.20942  0.83660  0.93473  Biso   1.000  C
  N171     1.0000 0.29631  0.83327  0.93549  Biso   1.000  N
  C226     1.0000 0.17990  0.82483  0.91721  Biso   1.000  C
  H113     1.0000 0.22370  0.85680  0.92790  Biso   1.000  H
  C227     1.0000 0.16281  0.83950  0.88449  Biso   1.000  C
  C228     1.0000 0.13223  0.82321  0.87005  Biso   1.000  C
  H114     1.0000 0.12260  0.80220  0.88120  Biso   1.000  H
  N172     1.0000 0.21542  0.31541  0.46313  Biso   1.000  N
  N173     1.0000 0.29089  0.31134  0.46315  Biso   1.000  N
  C229     1.0000 0.20942  0.33660  0.43473  Biso   1.000  C
  N174     1.0000 0.29631  0.33327  0.43549  Biso   1.000  N
  C230     1.0000 0.17990  0.32483  0.41721  Biso   1.000  C
  H115     1.0000 0.22370  0.35680  0.42790  Biso   1.000  H
  C231     1.0000 0.16281  0.33950  0.38449  Biso   1.000  C
  C232     1.0000 0.13223  0.32321  0.37005  Biso   1.000  C
  H116     1.0000 0.12260  0.30220  0.38120  Biso   1.000  H
  N175     1.0000 0.71542  0.81541  0.46313  Biso   1.000  N
  N176     1.0000 0.79089  0.81134  0.46315  Biso   1.000  N
  C233     1.0000 0.70942  0.83660  0.43473  Biso   1.000  C
  N177     1.0000 0.79631  0.83327  0.43549  Biso   1.000  N
  C234     1.0000 0.67990  0.82483  0.41721  Biso   1.000  C
  H117     1.0000 0.72370  0.85680  0.42790  Biso   1.000  H
  C235     1.0000 0.66281  0.83950  0.38449  Biso   1.000  C
  C236     1.0000 0.63223  0.82321  0.37005  Biso   1.000  C
  H118     1.0000 0.62260  0.80220  0.38120  Biso   1.000  H
  N178     1.0000 0.71542  0.31541  0.96313  Biso   1.000  N
  N179     1.0000 0.79089  0.31134  0.96315  Biso   1.000  N
  C237     1.0000 0.70942  0.33660  0.93473  Biso   1.000  C
  N180     1.0000 0.79631  0.33327  0.93549  Biso   1.000  N
  C238     1.0000 0.67990  0.32483  0.91721  Biso   1.000  C
  H119     1.0000 0.72370  0.35680  0.92790  Biso   1.000  H
  C239     1.0000 0.66281  0.33950  0.88449  Biso   1.000  C
  C240     1.0000 0.63223  0.32321  0.87005  Biso   1.000  C
  H120     1.0000 0.62260  0.30220  0.88120  Biso   1.000  H
  N181     1.0000 0.78458  0.18459  0.96313  Biso   1.000  N
  N182     1.0000 0.70911  0.18866  0.96315  Biso   1.000  N
  C241     1.0000 0.79058  0.16340  0.93473  Biso   1.000  C
  N183     1.0000 0.70369  0.16673  0.93549  Biso   1.000  N
  C242     1.0000 0.82010  0.17517  0.91721  Biso   1.000  C
  H121     1.0000 0.77630  0.14320  0.92790  Biso   1.000  H
  C243     1.0000 0.83719  0.16050  0.88449  Biso   1.000  C
  C244     1.0000 0.86777  0.17679  0.87005  Biso   1.000  C
  H122     1.0000 0.87740  0.19780  0.88120  Biso   1.000  H
  N184     1.0000 0.78458  0.68459  0.46313  Biso   1.000  N
  N185     1.0000 0.70911  0.68866  0.46315  Biso   1.000  N
  C245     1.0000 0.79058  0.66340  0.43473  Biso   1.000  C
  N186     1.0000 0.70369  0.66673  0.43549  Biso   1.000  N
  C246     1.0000 0.82010  0.67517  0.41721  Biso   1.000  C
  H123     1.0000 0.77630  0.64320  0.42790  Biso   1.000  H
  C247     1.0000 0.83719  0.66050  0.38449  Biso   1.000  C
  C248     1.0000 0.86777  0.67679  0.37005  Biso   1.000  C
  H124     1.0000 0.87740  0.69780  0.38120  Biso   1.000  H
  N187     1.0000 0.28458  0.18459  0.46313  Biso   1.000  N
  N188     1.0000 0.20911  0.18866  0.46315  Biso   1.000  N
  C249     1.0000 0.29058  0.16340  0.43473  Biso   1.000  C
  N189     1.0000 0.20369  0.16673  0.43549  Biso   1.000  N
  C250     1.0000 0.32010  0.17517  0.41721  Biso   1.000  C
  H125     1.0000 0.27630  0.14320  0.42790  Biso   1.000  H
  C251     1.0000 0.33719  0.16050  0.38449  Biso   1.000  C
  C252     1.0000 0.36777  0.17679  0.37005  Biso   1.000  C
  H126     1.0000 0.37740  0.19780  0.38120  Biso   1.000  H
  N190     1.0000 0.28458  0.68459  0.96313  Biso   1.000  N
  N191     1.0000 0.20911  0.68866  0.96315  Biso   1.000  N
  C253     1.0000 0.29058  0.66340  0.93473  Biso   1.000  C
  N192     1.0000 0.20369  0.66673  0.93549  Biso   1.000  N
  C254     1.0000 0.32010  0.67517  0.91721  Biso   1.000  C
  H127     1.0000 0.27630  0.64320  0.92790  Biso   1.000  H
  C255     1.0000 0.33719  0.66050  0.88449  Biso   1.000  C
  C256     1.0000 0.36777  0.67679  0.87005  Biso   1.000  C
  H128     1.0000 0.37740  0.69780  0.88120  Biso   1.000  H
  N193     1.0000 0.18459  0.96313  0.78458  Biso   1.000  N
  N194     1.0000 0.18866  0.96315  0.70911  Biso   1.000  N
  C257     1.0000 0.16340  0.93473  0.79058  Biso   1.000  C
  N195     1.0000 0.16673  0.93549  0.70369  Biso   1.000  N
  C258     1.0000 0.17517  0.91721  0.82010  Biso   1.000  C
  H129     1.0000 0.14320  0.92790  0.77630  Biso   1.000  H
  C259     1.0000 0.16050  0.88449  0.83719  Biso   1.000  C
  C260     1.0000 0.17679  0.87005  0.86777  Biso   1.000  C
  H130     1.0000 0.19780  0.88120  0.87740  Biso   1.000  H
  N196     1.0000 0.18459  0.46313  0.28458  Biso   1.000  N
  N197     1.0000 0.18866  0.46315  0.20911  Biso   1.000  N
  C261     1.0000 0.16340  0.43473  0.29058  Biso   1.000  C
  N198     1.0000 0.16673  0.43549  0.20369  Biso   1.000  N
  C262     1.0000 0.17517  0.41721  0.32010  Biso   1.000  C
  H131     1.0000 0.14320  0.42790  0.27630  Biso   1.000  H
  C263     1.0000 0.16050  0.38449  0.33719  Biso   1.000  C
  C264     1.0000 0.17679  0.37005  0.36777  Biso   1.000  C
  H132     1.0000 0.19780  0.38120  0.37740  Biso   1.000  H
  N199     1.0000 0.68459  0.96313  0.28458  Biso   1.000  N
  N200     1.0000 0.68866  0.96315  0.20911  Biso   1.000  N
  C265     1.0000 0.66340  0.93473  0.29058  Biso   1.000  C
  N201     1.0000 0.66673  0.93549  0.20369  Biso   1.000  N
  C266     1.0000 0.67517  0.91721  0.32010  Biso   1.000  C
  H133     1.0000 0.64320  0.92790  0.27630  Biso   1.000  H
  C267     1.0000 0.66050  0.88449  0.33719  Biso   1.000  C
  C268     1.0000 0.67679  0.87005  0.36777  Biso   1.000  C
  H134     1.0000 0.69780  0.88120  0.37740  Biso   1.000  H
  N202     1.0000 0.68459  0.46313  0.78458  Biso   1.000  N
  N203     1.0000 0.68866  0.46315  0.70911  Biso   1.000  N
  C269     1.0000 0.66340  0.43473  0.79058  Biso   1.000  C
  N204     1.0000 0.66673  0.43549  0.70369  Biso   1.000  N
  C270     1.0000 0.67517  0.41721  0.82010  Biso   1.000  C
  H135     1.0000 0.64320  0.42790  0.77630  Biso   1.000  H
  C271     1.0000 0.66050  0.38449  0.83719  Biso   1.000  C
  C272     1.0000 0.67679  0.37005  0.86777  Biso   1.000  C
  H136     1.0000 0.69780  0.38120  0.87740  Biso   1.000  H
  N205     1.0000 0.81541  0.96313  0.21542  Biso   1.000  N
  N206     1.0000 0.81134  0.96315  0.29089  Biso   1.000  N
  C273     1.0000 0.83660  0.93473  0.20942  Biso   1.000  C
  N207     1.0000 0.83327  0.93549  0.29631  Biso   1.000  N
  C274     1.0000 0.82483  0.91721  0.17990  Biso   1.000  C
  H137     1.0000 0.85680  0.92790  0.22370  Biso   1.000  H
  C275     1.0000 0.83950  0.88449  0.16281  Biso   1.000  C
  C276     1.0000 0.82321  0.87005  0.13223  Biso   1.000  C
  H138     1.0000 0.80220  0.88120  0.12260  Biso   1.000  H
  N208     1.0000 0.81541  0.46313  0.71542  Biso   1.000  N
  N209     1.0000 0.81134  0.46315  0.79089  Biso   1.000  N
  C277     1.0000 0.83660  0.43473  0.70942  Biso   1.000  C
  N210     1.0000 0.83327  0.43549  0.79631  Biso   1.000  N
  C278     1.0000 0.82483  0.41721  0.67990  Biso   1.000  C
  H139     1.0000 0.85680  0.42790  0.72370  Biso   1.000  H
  C279     1.0000 0.83950  0.38449  0.66281  Biso   1.000  C
  C280     1.0000 0.82321  0.37005  0.63223  Biso   1.000  C
  H140     1.0000 0.80220  0.38120  0.62260  Biso   1.000  H
  N211     1.0000 0.31541  0.96313  0.71542  Biso   1.000  N
  N212     1.0000 0.31134  0.96315  0.79089  Biso   1.000  N
  C281     1.0000 0.33660  0.93473  0.70942  Biso   1.000  C
  N213     1.0000 0.33327  0.93549  0.79631  Biso   1.000  N
  C282     1.0000 0.32483  0.91721  0.67990  Biso   1.000  C
  H141     1.0000 0.35680  0.92790  0.72370  Biso   1.000  H
  C283     1.0000 0.33950  0.88449  0.66281  Biso   1.000  C
  C284     1.0000 0.32321  0.87005  0.63223  Biso   1.000  C
  H142     1.0000 0.30220  0.88120  0.62260  Biso   1.000  H
  N214     1.0000 0.31541  0.46313  0.21542  Biso   1.000  N
  N215     1.0000 0.31134  0.46315  0.29089  Biso   1.000  N
  C285     1.0000 0.33660  0.43473  0.20942  Biso   1.000  C
  N216     1.0000 0.33327  0.43549  0.29631  Biso   1.000  N
  C286     1.0000 0.32483  0.41721  0.17990  Biso   1.000  C
  H143     1.0000 0.35680  0.42790  0.22370  Biso   1.000  H
  C287     1.0000 0.33950  0.38449  0.16281  Biso   1.000  C
  C288     1.0000 0.32321  0.37005  0.13223  Biso   1.000  C
  H144     1.0000 0.30220  0.38120  0.12260  Biso   1.000  H
  N217     1.0000 0.81541  0.03687  0.78458  Biso   1.000  N
  N218     1.0000 0.81134  0.03685  0.70911  Biso   1.000  N
  C289     1.0000 0.83660  0.06527  0.79058  Biso   1.000  C
  N219     1.0000 0.83327  0.06451  0.70369  Biso   1.000  N
  C290     1.0000 0.82483  0.08279  0.82010  Biso   1.000  C
  H145     1.0000 0.85680  0.07210  0.77630  Biso   1.000  H
  C291     1.0000 0.83950  0.11551  0.83719  Biso   1.000  C
  C292     1.0000 0.82321  0.12995  0.86777  Biso   1.000  C
  H146     1.0000 0.80220  0.11880  0.87740  Biso   1.000  H
  N220     1.0000 0.81541  0.53687  0.28458  Biso   1.000  N
  N221     1.0000 0.81134  0.53685  0.20911  Biso   1.000  N
  C293     1.0000 0.83660  0.56527  0.29058  Biso   1.000  C
  N222     1.0000 0.83327  0.56451  0.20369  Biso   1.000  N
  C294     1.0000 0.82483  0.58279  0.32010  Biso   1.000  C
  H147     1.0000 0.85680  0.57210  0.27630  Biso   1.000  H
  C295     1.0000 0.83950  0.61551  0.33719  Biso   1.000  C
  C296     1.0000 0.82321  0.62995  0.36777  Biso   1.000  C
  H148     1.0000 0.80220  0.61880  0.37740  Biso   1.000  H
  N223     1.0000 0.31541  0.03687  0.28458  Biso   1.000  N
  N224     1.0000 0.31134  0.03685  0.20911  Biso   1.000  N
  C297     1.0000 0.33660  0.06527  0.29058  Biso   1.000  C
  N225     1.0000 0.33327  0.06451  0.20369  Biso   1.000  N
  C298     1.0000 0.32483  0.08279  0.32010  Biso   1.000  C
  H149     1.0000 0.35680  0.07210  0.27630  Biso   1.000  H
  C299     1.0000 0.33950  0.11551  0.33719  Biso   1.000  C
  C300     1.0000 0.32321  0.12995  0.36777  Biso   1.000  C
  H150     1.0000 0.30220  0.11880  0.37740  Biso   1.000  H
  N226     1.0000 0.31541  0.53687  0.78458  Biso   1.000  N
  N227     1.0000 0.31134  0.53685  0.70911  Biso   1.000  N
  C301     1.0000 0.33660  0.56527  0.79058  Biso   1.000  C
  N228     1.0000 0.33327  0.56451  0.70369  Biso   1.000  N
  C302     1.0000 0.32483  0.58279  0.82010  Biso   1.000  C
  H151     1.0000 0.35680  0.57210  0.77630  Biso   1.000  H
  C303     1.0000 0.33950  0.61551  0.83719  Biso   1.000  C
  C304     1.0000 0.32321  0.62995  0.86777  Biso   1.000  C
  H152     1.0000 0.30220  0.61880  0.87740  Biso   1.000  H
  N229     1.0000 0.18459  0.03687  0.21542  Biso   1.000  N
  N230     1.0000 0.18866  0.03685  0.29089  Biso   1.000  N
  C305     1.0000 0.16340  0.06527  0.20942  Biso   1.000  C
  N231     1.0000 0.16673  0.06451  0.29631  Biso   1.000  N
  C306     1.0000 0.17517  0.08279  0.17990  Biso   1.000  C
  H153     1.0000 0.14320  0.07210  0.22370  Biso   1.000  H
  C307     1.0000 0.16050  0.11551  0.16281  Biso   1.000  C
  C308     1.0000 0.17679  0.12995  0.13223  Biso   1.000  C
  H154     1.0000 0.19780  0.11880  0.12260  Biso   1.000  H
  N232     1.0000 0.18459  0.53687  0.71542  Biso   1.000  N
  N233     1.0000 0.18866  0.53685  0.79089  Biso   1.000  N
  C309     1.0000 0.16340  0.56527  0.70942  Biso   1.000  C
  N234     1.0000 0.16673  0.56451  0.79631  Biso   1.000  N
  C310     1.0000 0.17517  0.58279  0.67990  Biso   1.000  C
  H155     1.0000 0.14320  0.57210  0.72370  Biso   1.000  H
  C311     1.0000 0.16050  0.61551  0.66281  Biso   1.000  C
  C312     1.0000 0.17679  0.62995  0.63223  Biso   1.000  C
  H156     1.0000 0.19780  0.61880  0.62260  Biso   1.000  H
  N235     1.0000 0.68459  0.03687  0.71542  Biso   1.000  N
  N236     1.0000 0.68866  0.03685  0.79089  Biso   1.000  N
  C313     1.0000 0.66340  0.06527  0.70942  Biso   1.000  C
  N237     1.0000 0.66673  0.06451  0.79631  Biso   1.000  N
  C314     1.0000 0.67517  0.08279  0.67990  Biso   1.000  C
  H157     1.0000 0.64320  0.07210  0.72370  Biso   1.000  H
  C315     1.0000 0.66050  0.11551  0.66281  Biso   1.000  C
  C316     1.0000 0.67679  0.12995  0.63223  Biso   1.000  C
  H158     1.0000 0.69780  0.11880  0.62260  Biso   1.000  H
  N238     1.0000 0.68459  0.53687  0.21542  Biso   1.000  N
  N239     1.0000 0.68866  0.53685  0.29089  Biso   1.000  N
  C317     1.0000 0.66340  0.56527  0.20942  Biso   1.000  C
  N240     1.0000 0.66673  0.56451  0.29631  Biso   1.000  N
  C318     1.0000 0.67517  0.58279  0.17990  Biso   1.000  C
  H159     1.0000 0.64320  0.57210  0.22370  Biso   1.000  H
  C319     1.0000 0.66050  0.61551  0.16281  Biso   1.000  C
  C320     1.0000 0.67679  0.62995  0.13223  Biso   1.000  C
  H160     1.0000 0.69780  0.61880  0.12260  Biso   1.000  H
  N241     1.0000 0.96313  0.21542  0.81541  Biso   1.000  N
  N242     1.0000 0.96315  0.29089  0.81134  Biso   1.000  N
  C321     1.0000 0.93473  0.20942  0.83660  Biso   1.000  C
  N243     1.0000 0.93549  0.29631  0.83327  Biso   1.000  N
  C322     1.0000 0.91721  0.17990  0.82483  Biso   1.000  C
  H161     1.0000 0.92790  0.22370  0.85680  Biso   1.000  H
  C323     1.0000 0.88449  0.16281  0.83950  Biso   1.000  C
  C324     1.0000 0.87005  0.13223  0.82321  Biso   1.000  C
  H162     1.0000 0.88120  0.12260  0.80220  Biso   1.000  H
  N244     1.0000 0.96313  0.71542  0.31541  Biso   1.000  N
  N245     1.0000 0.96315  0.79089  0.31134  Biso   1.000  N
  C325     1.0000 0.93473  0.70942  0.33660  Biso   1.000  C
  N246     1.0000 0.93549  0.79631  0.33327  Biso   1.000  N
  C326     1.0000 0.91721  0.67990  0.32483  Biso   1.000  C
  H163     1.0000 0.92790  0.72370  0.35680  Biso   1.000  H
  C327     1.0000 0.88449  0.66281  0.33950  Biso   1.000  C
  C328     1.0000 0.87005  0.63223  0.32321  Biso   1.000  C
  H164     1.0000 0.88120  0.62260  0.30220  Biso   1.000  H
  N247     1.0000 0.46313  0.21542  0.31541  Biso   1.000  N
  N248     1.0000 0.46315  0.29089  0.31134  Biso   1.000  N
  C329     1.0000 0.43473  0.20942  0.33660  Biso   1.000  C
  N249     1.0000 0.43549  0.29631  0.33327  Biso   1.000  N
  C330     1.0000 0.41721  0.17990  0.32483  Biso   1.000  C
  H165     1.0000 0.42790  0.22370  0.35680  Biso   1.000  H
  C331     1.0000 0.38449  0.16281  0.33950  Biso   1.000  C
  C332     1.0000 0.37005  0.13223  0.32321  Biso   1.000  C
  H166     1.0000 0.38120  0.12260  0.30220  Biso   1.000  H
  N250     1.0000 0.46313  0.71542  0.81541  Biso   1.000  N
  N251     1.0000 0.46315  0.79089  0.81134  Biso   1.000  N
  C333     1.0000 0.43473  0.70942  0.83660  Biso   1.000  C
  N252     1.0000 0.43549  0.79631  0.83327  Biso   1.000  N
  C334     1.0000 0.41721  0.67990  0.82483  Biso   1.000  C
  H167     1.0000 0.42790  0.72370  0.85680  Biso   1.000  H
  C335     1.0000 0.38449  0.66281  0.83950  Biso   1.000  C
  C336     1.0000 0.37005  0.63223  0.82321  Biso   1.000  C
  H168     1.0000 0.38120  0.62260  0.80220  Biso   1.000  H
  N253     1.0000 0.96313  0.78458  0.18459  Biso   1.000  N
  N254     1.0000 0.96315  0.70911  0.18866  Biso   1.000  N
  C337     1.0000 0.93473  0.79058  0.16340  Biso   1.000  C
  N255     1.0000 0.93549  0.70369  0.16673  Biso   1.000  N
  C338     1.0000 0.91721  0.82010  0.17517  Biso   1.000  C
  H169     1.0000 0.92790  0.77630  0.14320  Biso   1.000  H
  C339     1.0000 0.88449  0.83719  0.16050  Biso   1.000  C
  C340     1.0000 0.87005  0.86777  0.17679  Biso   1.000  C
  H170     1.0000 0.88120  0.87740  0.19780  Biso   1.000  H
  N256     1.0000 0.96313  0.28458  0.68459  Biso   1.000  N
  N257     1.0000 0.96315  0.20911  0.68866  Biso   1.000  N
  C341     1.0000 0.93473  0.29058  0.66340  Biso   1.000  C
  N258     1.0000 0.93549  0.20369  0.66673  Biso   1.000  N
  C342     1.0000 0.91721  0.32010  0.67517  Biso   1.000  C
  H171     1.0000 0.92790  0.27630  0.64320  Biso   1.000  H
  C343     1.0000 0.88449  0.33719  0.66050  Biso   1.000  C
  C344     1.0000 0.87005  0.36777  0.67679  Biso   1.000  C
  H172     1.0000 0.88120  0.37740  0.69780  Biso   1.000  H
  N259     1.0000 0.46313  0.78458  0.68459  Biso   1.000  N
  N260     1.0000 0.46315  0.70911  0.68866  Biso   1.000  N
  C345     1.0000 0.43473  0.79058  0.66340  Biso   1.000  C
  N261     1.0000 0.43549  0.70369  0.66673  Biso   1.000  N
  C346     1.0000 0.41721  0.82010  0.67517  Biso   1.000  C
  H173     1.0000 0.42790  0.77630  0.64320  Biso   1.000  H
  C347     1.0000 0.38449  0.83719  0.66050  Biso   1.000  C
  C348     1.0000 0.37005  0.86777  0.67679  Biso   1.000  C
  H174     1.0000 0.38120  0.87740  0.69780  Biso   1.000  H
  N262     1.0000 0.46313  0.28458  0.18459  Biso   1.000  N
  N263     1.0000 0.46315  0.20911  0.18866  Biso   1.000  N
  C349     1.0000 0.43473  0.29058  0.16340  Biso   1.000  C
  N264     1.0000 0.43549  0.20369  0.16673  Biso   1.000  N
  C350     1.0000 0.41721  0.32010  0.17517  Biso   1.000  C
  H175     1.0000 0.42790  0.27630  0.14320  Biso   1.000  H
  C351     1.0000 0.38449  0.33719  0.16050  Biso   1.000  C
  C352     1.0000 0.37005  0.36777  0.17679  Biso   1.000  C
  H176     1.0000 0.38120  0.37740  0.19780  Biso   1.000  H
  N265     1.0000 0.03687  0.21542  0.18459  Biso   1.000  N
  N266     1.0000 0.03685  0.29089  0.18866  Biso   1.000  N
  C353     1.0000 0.06527  0.20942  0.16340  Biso   1.000  C
  N267     1.0000 0.06451  0.29631  0.16673  Biso   1.000  N
  C354     1.0000 0.08279  0.17990  0.17517  Biso   1.000  C
  H177     1.0000 0.07210  0.22370  0.14320  Biso   1.000  H
  C355     1.0000 0.11551  0.16281  0.16050  Biso   1.000  C
  C356     1.0000 0.12995  0.13223  0.17679  Biso   1.000  C
  H178     1.0000 0.11880  0.12260  0.19780  Biso   1.000  H
  N268     1.0000 0.03687  0.71542  0.68459  Biso   1.000  N
  N269     1.0000 0.03685  0.79089  0.68866  Biso   1.000  N
  C357     1.0000 0.06527  0.70942  0.66340  Biso   1.000  C
  N270     1.0000 0.06451  0.79631  0.66673  Biso   1.000  N
  C358     1.0000 0.08279  0.67990  0.67517  Biso   1.000  C
  H179     1.0000 0.07210  0.72370  0.64320  Biso   1.000  H
  C359     1.0000 0.11551  0.66281  0.66050  Biso   1.000  C
  C360     1.0000 0.12995  0.63223  0.67679  Biso   1.000  C
  H180     1.0000 0.11880  0.62260  0.69780  Biso   1.000  H
  N271     1.0000 0.53687  0.21542  0.68459  Biso   1.000  N
  N272     1.0000 0.53685  0.29089  0.68866  Biso   1.000  N
  C361     1.0000 0.56527  0.20942  0.66340  Biso   1.000  C
  N273     1.0000 0.56451  0.29631  0.66673  Biso   1.000  N
  C362     1.0000 0.58279  0.17990  0.67517  Biso   1.000  C
  H181     1.0000 0.57210  0.22370  0.64320  Biso   1.000  H
  C363     1.0000 0.61551  0.16281  0.66050  Biso   1.000  C
  C364     1.0000 0.62995  0.13223  0.67679  Biso   1.000  C
  H182     1.0000 0.61880  0.12260  0.69780  Biso   1.000  H
  N274     1.0000 0.53687  0.71542  0.18459  Biso   1.000  N
  N275     1.0000 0.53685  0.79089  0.18866  Biso   1.000  N
  C365     1.0000 0.56527  0.70942  0.16340  Biso   1.000  C
  N276     1.0000 0.56451  0.79631  0.16673  Biso   1.000  N
  C366     1.0000 0.58279  0.67990  0.17517  Biso   1.000  C
  H183     1.0000 0.57210  0.72370  0.14320  Biso   1.000  H
  C367     1.0000 0.61551  0.66281  0.16050  Biso   1.000  C
  C368     1.0000 0.62995  0.63223  0.17679  Biso   1.000  C
  H184     1.0000 0.61880  0.62260  0.19780  Biso   1.000  H
  N277     1.0000 0.03687  0.78458  0.81541  Biso   1.000  N
  N278     1.0000 0.03685  0.70911  0.81134  Biso   1.000  N
  C369     1.0000 0.06527  0.79058  0.83660  Biso   1.000  C
  N279     1.0000 0.06451  0.70369  0.83327  Biso   1.000  N
  C370     1.0000 0.08279  0.82010  0.82483  Biso   1.000  C
  H185     1.0000 0.07210  0.77630  0.85680  Biso   1.000  H
  C371     1.0000 0.11551  0.83719  0.83950  Biso   1.000  C
  C372     1.0000 0.12995  0.86777  0.82321  Biso   1.000  C
  H186     1.0000 0.11880  0.87740  0.80220  Biso   1.000  H
  N280     1.0000 0.03687  0.28458  0.31541  Biso   1.000  N
  N281     1.0000 0.03685  0.20911  0.31134  Biso   1.000  N
  C373     1.0000 0.06527  0.29058  0.33660  Biso   1.000  C
  N282     1.0000 0.06451  0.20369  0.33327  Biso   1.000  N
  C374     1.0000 0.08279  0.32010  0.32483  Biso   1.000  C
  H187     1.0000 0.07210  0.27630  0.35680  Biso   1.000  H
  C375     1.0000 0.11551  0.33719  0.33950  Biso   1.000  C
  C376     1.0000 0.12995  0.36777  0.32321  Biso   1.000  C
  H188     1.0000 0.11880  0.37740  0.30220  Biso   1.000  H
  N283     1.0000 0.53687  0.78458  0.31541  Biso   1.000  N
  N284     1.0000 0.53685  0.70911  0.31134  Biso   1.000  N
  C377     1.0000 0.56527  0.79058  0.33660  Biso   1.000  C
  N285     1.0000 0.56451  0.70369  0.33327  Biso   1.000  N
  C378     1.0000 0.58279  0.82010  0.32483  Biso   1.000  C
  H189     1.0000 0.57210  0.77630  0.35680  Biso   1.000  H
  C379     1.0000 0.61551  0.83719  0.33950  Biso   1.000  C
  C380     1.0000 0.62995  0.86777  0.32321  Biso   1.000  C
  H190     1.0000 0.61880  0.87740  0.30220  Biso   1.000  H
  N286     1.0000 0.53687  0.28458  0.81541  Biso   1.000  N
  N287     1.0000 0.53685  0.20911  0.81134  Biso   1.000  N
  C381     1.0000 0.56527  0.29058  0.83660  Biso   1.000  C
  N288     1.0000 0.56451  0.20369  0.83327  Biso   1.000  N
  C382     1.0000 0.58279  0.32010  0.82483  Biso   1.000  C
  H191     1.0000 0.57210  0.27630  0.85680  Biso   1.000  H
  C383     1.0000 0.61551  0.33719  0.83950  Biso   1.000  C
  C384     1.0000 0.62995  0.36777  0.82321  Biso   1.000  C
  H192     1.0000 0.61880  0.37740  0.80220  Biso   1.000  H
  N289     1.0000 0.31541  0.28458  0.53687  Biso   1.000  N
  N290     1.0000 0.31134  0.20911  0.53685  Biso   1.000  N
  C385     1.0000 0.33660  0.29058  0.56527  Biso   1.000  C
  N291     1.0000 0.33327  0.20369  0.56451  Biso   1.000  N
  C386     1.0000 0.32483  0.32010  0.58279  Biso   1.000  C
  H193     1.0000 0.35680  0.27630  0.57210  Biso   1.000  H
  C387     1.0000 0.33950  0.33719  0.61551  Biso   1.000  C
  C388     1.0000 0.32321  0.36777  0.62995  Biso   1.000  C
  H194     1.0000 0.30220  0.37740  0.61880  Biso   1.000  H
  N292     1.0000 0.31541  0.78458  0.03687  Biso   1.000  N
  N293     1.0000 0.31134  0.70911  0.03685  Biso   1.000  N
  C389     1.0000 0.33660  0.79058  0.06527  Biso   1.000  C
  N294     1.0000 0.33327  0.70369  0.06451  Biso   1.000  N
  C390     1.0000 0.32483  0.82010  0.08279  Biso   1.000  C
  H195     1.0000 0.35680  0.77630  0.07210  Biso   1.000  H
  C391     1.0000 0.33950  0.83719  0.11551  Biso   1.000  C
  C392     1.0000 0.32321  0.86777  0.12995  Biso   1.000  C
  H196     1.0000 0.30220  0.87740  0.11880  Biso   1.000  H
  N295     1.0000 0.81541  0.28458  0.03687  Biso   1.000  N
  N296     1.0000 0.81134  0.20911  0.03685  Biso   1.000  N
  C393     1.0000 0.83660  0.29058  0.06527  Biso   1.000  C
  N297     1.0000 0.83327  0.20369  0.06451  Biso   1.000  N
  C394     1.0000 0.82483  0.32010  0.08279  Biso   1.000  C
  H197     1.0000 0.85680  0.27630  0.07210  Biso   1.000  H
  C395     1.0000 0.83950  0.33719  0.11551  Biso   1.000  C
  C396     1.0000 0.82321  0.36777  0.12995  Biso   1.000  C
  H198     1.0000 0.80220  0.37740  0.11880  Biso   1.000  H
  N298     1.0000 0.81541  0.78458  0.53687  Biso   1.000  N
  N299     1.0000 0.81134  0.70911  0.53685  Biso   1.000  N
  C397     1.0000 0.83660  0.79058  0.56527  Biso   1.000  C
  N300     1.0000 0.83327  0.70369  0.56451  Biso   1.000  N
  C398     1.0000 0.82483  0.82010  0.58279  Biso   1.000  C
  H199     1.0000 0.85680  0.77630  0.57210  Biso   1.000  H
  C399     1.0000 0.83950  0.83719  0.61551  Biso   1.000  C
  C400     1.0000 0.82321  0.86777  0.62995  Biso   1.000  C
  H200     1.0000 0.80220  0.87740  0.61880  Biso   1.000  H
  N301     1.0000 0.68459  0.71542  0.53687  Biso   1.000  N
  N302     1.0000 0.68866  0.79089  0.53685  Biso   1.000  N
  C401     1.0000 0.66340  0.70942  0.56527  Biso   1.000  C
  N303     1.0000 0.66673  0.79631  0.56451  Biso   1.000  N
  C402     1.0000 0.67517  0.67990  0.58279  Biso   1.000  C
  H201     1.0000 0.64320  0.72370  0.57210  Biso   1.000  H
  C403     1.0000 0.66050  0.66281  0.61551  Biso   1.000  C
  C404     1.0000 0.67679  0.63223  0.62995  Biso   1.000  C
  H202     1.0000 0.69780  0.62260  0.61880  Biso   1.000  H
  N304     1.0000 0.68459  0.21542  0.03687  Biso   1.000  N
  N305     1.0000 0.68866  0.29089  0.03685  Biso   1.000  N
  C405     1.0000 0.66340  0.20942  0.06527  Biso   1.000  C
  N306     1.0000 0.66673  0.29631  0.06451  Biso   1.000  N
  C406     1.0000 0.67517  0.17990  0.08279  Biso   1.000  C
  H203     1.0000 0.64320  0.22370  0.07210  Biso   1.000  H
  C407     1.0000 0.66050  0.16281  0.11551  Biso   1.000  C
  C408     1.0000 0.67679  0.13223  0.12995  Biso   1.000  C
  H204     1.0000 0.69780  0.12260  0.11880  Biso   1.000  H
  N307     1.0000 0.18459  0.71542  0.03687  Biso   1.000  N
  N308     1.0000 0.18866  0.79089  0.03685  Biso   1.000  N
  C409     1.0000 0.16340  0.70942  0.06527  Biso   1.000  C
  N309     1.0000 0.16673  0.79631  0.06451  Biso   1.000  N
  C410     1.0000 0.17517  0.67990  0.08279  Biso   1.000  C
  H205     1.0000 0.14320  0.72370  0.07210  Biso   1.000  H
  C411     1.0000 0.16050  0.66281  0.11551  Biso   1.000  C
  C412     1.0000 0.17679  0.63223  0.12995  Biso   1.000  C
  H206     1.0000 0.19780  0.62260  0.11880  Biso   1.000  H
  N310     1.0000 0.18459  0.21542  0.53687  Biso   1.000  N
  N311     1.0000 0.18866  0.29089  0.53685  Biso   1.000  N
  C413     1.0000 0.16340  0.20942  0.56527  Biso   1.000  C
  N312     1.0000 0.16673  0.29631  0.56451  Biso   1.000  N
  C414     1.0000 0.17517  0.17990  0.58279  Biso   1.000  C
  H207     1.0000 0.14320  0.22370  0.57210  Biso   1.000  H
  C415     1.0000 0.16050  0.16281  0.61551  Biso   1.000  C
  C416     1.0000 0.17679  0.13223  0.62995  Biso   1.000  C
  H208     1.0000 0.19780  0.12260  0.61880  Biso   1.000  H
  N313     1.0000 0.68459  0.28458  0.46313  Biso   1.000  N
  N314     1.0000 0.68866  0.20911  0.46315  Biso   1.000  N
  C417     1.0000 0.66340  0.29058  0.43473  Biso   1.000  C
  N315     1.0000 0.66673  0.20369  0.43549  Biso   1.000  N
  C418     1.0000 0.67517  0.32010  0.41721  Biso   1.000  C
  H209     1.0000 0.64320  0.27630  0.42790  Biso   1.000  H
  C419     1.0000 0.66050  0.33719  0.38449  Biso   1.000  C
  C420     1.0000 0.67679  0.36777  0.37005  Biso   1.000  C
  H210     1.0000 0.69780  0.37740  0.38120  Biso   1.000  H
  N316     1.0000 0.68459  0.78458  0.96313  Biso   1.000  N
  N317     1.0000 0.68866  0.70911  0.96315  Biso   1.000  N
  C421     1.0000 0.66340  0.79058  0.93473  Biso   1.000  C
  N318     1.0000 0.66673  0.70369  0.93549  Biso   1.000  N
  C422     1.0000 0.67517  0.82010  0.91721  Biso   1.000  C
  H211     1.0000 0.64320  0.77630  0.92790  Biso   1.000  H
  C423     1.0000 0.66050  0.83719  0.88449  Biso   1.000  C
  C424     1.0000 0.67679  0.86777  0.87005  Biso   1.000  C
  H212     1.0000 0.69780  0.87740  0.88120  Biso   1.000  H
  N319     1.0000 0.18459  0.28458  0.96313  Biso   1.000  N
  N320     1.0000 0.18866  0.20911  0.96315  Biso   1.000  N
  C425     1.0000 0.16340  0.29058  0.93473  Biso   1.000  C
  N321     1.0000 0.16673  0.20369  0.93549  Biso   1.000  N
  C426     1.0000 0.17517  0.32010  0.91721  Biso   1.000  C
  H213     1.0000 0.14320  0.27630  0.92790  Biso   1.000  H
  C427     1.0000 0.16050  0.33719  0.88449  Biso   1.000  C
  C428     1.0000 0.17679  0.36777  0.87005  Biso   1.000  C
  H214     1.0000 0.19780  0.37740  0.88120  Biso   1.000  H
  N322     1.0000 0.18459  0.78458  0.46313  Biso   1.000  N
  N323     1.0000 0.18866  0.70911  0.46315  Biso   1.000  N
  C429     1.0000 0.16340  0.79058  0.43473  Biso   1.000  C
  N324     1.0000 0.16673  0.70369  0.43549  Biso   1.000  N
  C430     1.0000 0.17517  0.82010  0.41721  Biso   1.000  C
  H215     1.0000 0.14320  0.77630  0.42790  Biso   1.000  H
  C431     1.0000 0.16050  0.83719  0.38449  Biso   1.000  C
  C432     1.0000 0.17679  0.86777  0.37005  Biso   1.000  C
  H216     1.0000 0.19780  0.87740  0.38120  Biso   1.000  H
  N325     1.0000 0.31541  0.71542  0.46313  Biso   1.000  N
  N326     1.0000 0.31134  0.79089  0.46315  Biso   1.000  N
  C433     1.0000 0.33660  0.70942  0.43473  Biso   1.000  C
  N327     1.0000 0.33327  0.79631  0.43549  Biso   1.000  N
  C434     1.0000 0.32483  0.67990  0.41721  Biso   1.000  C
  H217     1.0000 0.35680  0.72370  0.42790  Biso   1.000  H
  C435     1.0000 0.33950  0.66281  0.38449  Biso   1.000  C
  C436     1.0000 0.32321  0.63223  0.37005  Biso   1.000  C
  H218     1.0000 0.30220  0.62260  0.38120  Biso   1.000  H
  N328     1.0000 0.31541  0.21542  0.96313  Biso   1.000  N
  N329     1.0000 0.31134  0.29089  0.96315  Biso   1.000  N
  C437     1.0000 0.33660  0.20942  0.93473  Biso   1.000  C
  N330     1.0000 0.33327  0.29631  0.93549  Biso   1.000  N
  C438     1.0000 0.32483  0.17990  0.91721  Biso   1.000  C
  H219     1.0000 0.35680  0.22370  0.92790  Biso   1.000  H
  C439     1.0000 0.33950  0.16281  0.88449  Biso   1.000  C
  C440     1.0000 0.32321  0.13223  0.87005  Biso   1.000  C
  H220     1.0000 0.30220  0.12260  0.88120  Biso   1.000  H
  N331     1.0000 0.81541  0.71542  0.96313  Biso   1.000  N
  N332     1.0000 0.81134  0.79089  0.96315  Biso   1.000  N
  C441     1.0000 0.83660  0.70942  0.93473  Biso   1.000  C
  N333     1.0000 0.83327  0.79631  0.93549  Biso   1.000  N
  C442     1.0000 0.82483  0.67990  0.91721  Biso   1.000  C
  H221     1.0000 0.85680  0.72370  0.92790  Biso   1.000  H
  C443     1.0000 0.83950  0.66281  0.88449  Biso   1.000  C
  C444     1.0000 0.82321  0.63223  0.87005  Biso   1.000  C
  H222     1.0000 0.80220  0.62260  0.88120  Biso   1.000  H
  N334     1.0000 0.81541  0.21542  0.46313  Biso   1.000  N
  N335     1.0000 0.81134  0.29089  0.46315  Biso   1.000  N
  C445     1.0000 0.83660  0.20942  0.43473  Biso   1.000  C
  N336     1.0000 0.83327  0.29631  0.43549  Biso   1.000  N
  C446     1.0000 0.82483  0.17990  0.41721  Biso   1.000  C
  H223     1.0000 0.85680  0.22370  0.42790  Biso   1.000  H
  C447     1.0000 0.83950  0.16281  0.38449  Biso   1.000  C
  C448     1.0000 0.82321  0.13223  0.37005  Biso   1.000  C
  H224     1.0000 0.80220  0.12260  0.38120  Biso   1.000  H
  N337     1.0000 0.53687  0.31541  0.28458  Biso   1.000  N
  N338     1.0000 0.53685  0.31134  0.20911  Biso   1.000  N
  C449     1.0000 0.56527  0.33660  0.29058  Biso   1.000  C
  N339     1.0000 0.56451  0.33327  0.20369  Biso   1.000  N
  C450     1.0000 0.58279  0.32483  0.32010  Biso   1.000  C
  H225     1.0000 0.57210  0.35680  0.27630  Biso   1.000  H
  C451     1.0000 0.61551  0.33950  0.33719  Biso   1.000  C
  C452     1.0000 0.62995  0.32321  0.36777  Biso   1.000  C
  H226     1.0000 0.61880  0.30220  0.37740  Biso   1.000  H
  N340     1.0000 0.53687  0.81541  0.78458  Biso   1.000  N
  N341     1.0000 0.53685  0.81134  0.70911  Biso   1.000  N
  C453     1.0000 0.56527  0.83660  0.79058  Biso   1.000  C
  N342     1.0000 0.56451  0.83327  0.70369  Biso   1.000  N
  C454     1.0000 0.58279  0.82483  0.82010  Biso   1.000  C
  H227     1.0000 0.57210  0.85680  0.77630  Biso   1.000  H
  C455     1.0000 0.61551  0.83950  0.83719  Biso   1.000  C
  C456     1.0000 0.62995  0.82321  0.86777  Biso   1.000  C
  H228     1.0000 0.61880  0.80220  0.87740  Biso   1.000  H
  N343     1.0000 0.03687  0.31541  0.78458  Biso   1.000  N
  N344     1.0000 0.03685  0.31134  0.70911  Biso   1.000  N
  C457     1.0000 0.06527  0.33660  0.79058  Biso   1.000  C
  N345     1.0000 0.06451  0.33327  0.70369  Biso   1.000  N
  C458     1.0000 0.08279  0.32483  0.82010  Biso   1.000  C
  H229     1.0000 0.07210  0.35680  0.77630  Biso   1.000  H
  C459     1.0000 0.11551  0.33950  0.83719  Biso   1.000  C
  C460     1.0000 0.12995  0.32321  0.86777  Biso   1.000  C
  H230     1.0000 0.11880  0.30220  0.87740  Biso   1.000  H
  N346     1.0000 0.03687  0.81541  0.28458  Biso   1.000  N
  N347     1.0000 0.03685  0.81134  0.20911  Biso   1.000  N
  C461     1.0000 0.06527  0.83660  0.29058  Biso   1.000  C
  N348     1.0000 0.06451  0.83327  0.20369  Biso   1.000  N
  C462     1.0000 0.08279  0.82483  0.32010  Biso   1.000  C
  H231     1.0000 0.07210  0.85680  0.27630  Biso   1.000  H
  C463     1.0000 0.11551  0.83950  0.33719  Biso   1.000  C
  C464     1.0000 0.12995  0.82321  0.36777  Biso   1.000  C
  H232     1.0000 0.11880  0.80220  0.37740  Biso   1.000  H
  N349     1.0000 0.53687  0.68459  0.71542  Biso   1.000  N
  N350     1.0000 0.53685  0.68866  0.79089  Biso   1.000  N
  C465     1.0000 0.56527  0.66340  0.70942  Biso   1.000  C
  N351     1.0000 0.56451  0.66673  0.79631  Biso   1.000  N
  C466     1.0000 0.58279  0.67517  0.67990  Biso   1.000  C
  H233     1.0000 0.57210  0.64320  0.72370  Biso   1.000  H
  C467     1.0000 0.61551  0.66050  0.66281  Biso   1.000  C
  C468     1.0000 0.62995  0.67679  0.63223  Biso   1.000  C
  H234     1.0000 0.61880  0.69780  0.62260  Biso   1.000  H
  N352     1.0000 0.53687  0.18459  0.21542  Biso   1.000  N
  N353     1.0000 0.53685  0.18866  0.29089  Biso   1.000  N
  C469     1.0000 0.56527  0.16340  0.20942  Biso   1.000  C
  N354     1.0000 0.56451  0.16673  0.29631  Biso   1.000  N
  C470     1.0000 0.58279  0.17517  0.17990  Biso   1.000  C
  H235     1.0000 0.57210  0.14320  0.22370  Biso   1.000  H
  C471     1.0000 0.61551  0.16050  0.16281  Biso   1.000  C
  C472     1.0000 0.62995  0.17679  0.13223  Biso   1.000  C
  H236     1.0000 0.61880  0.19780  0.12260  Biso   1.000  H
  N355     1.0000 0.03687  0.68459  0.21542  Biso   1.000  N
  N356     1.0000 0.03685  0.68866  0.29089  Biso   1.000  N
  C473     1.0000 0.06527  0.66340  0.20942  Biso   1.000  C
  N357     1.0000 0.06451  0.66673  0.29631  Biso   1.000  N
  C474     1.0000 0.08279  0.67517  0.17990  Biso   1.000  C
  H237     1.0000 0.07210  0.64320  0.22370  Biso   1.000  H
  C475     1.0000 0.11551  0.66050  0.16281  Biso   1.000  C
  C476     1.0000 0.12995  0.67679  0.13223  Biso   1.000  C
  H238     1.0000 0.11880  0.69780  0.12260  Biso   1.000  H
  N358     1.0000 0.03687  0.18459  0.71542  Biso   1.000  N
  N359     1.0000 0.03685  0.18866  0.79089  Biso   1.000  N
  C477     1.0000 0.06527  0.16340  0.70942  Biso   1.000  C
  N360     1.0000 0.06451  0.16673  0.79631  Biso   1.000  N
  C478     1.0000 0.08279  0.17517  0.67990  Biso   1.000  C
  H239     1.0000 0.07210  0.14320  0.72370  Biso   1.000  H
  C479     1.0000 0.11551  0.16050  0.66281  Biso   1.000  C
  C480     1.0000 0.12995  0.17679  0.63223  Biso   1.000  C
  H240     1.0000 0.11880  0.19780  0.62260  Biso   1.000  H
  N361     1.0000 0.46313  0.68459  0.28458  Biso   1.000  N
  N362     1.0000 0.46315  0.68866  0.20911  Biso   1.000  N
  C481     1.0000 0.43473  0.66340  0.29058  Biso   1.000  C
  N363     1.0000 0.43549  0.66673  0.20369  Biso   1.000  N
  C482     1.0000 0.41721  0.67517  0.32010  Biso   1.000  C
  H241     1.0000 0.42790  0.64320  0.27630  Biso   1.000  H
  C483     1.0000 0.38449  0.66050  0.33719  Biso   1.000  C
  C484     1.0000 0.37005  0.67679  0.36777  Biso   1.000  C
  H242     1.0000 0.38120  0.69780  0.37740  Biso   1.000  H
  N364     1.0000 0.46313  0.18459  0.78458  Biso   1.000  N
  N365     1.0000 0.46315  0.18866  0.70911  Biso   1.000  N
  C485     1.0000 0.43473  0.16340  0.79058  Biso   1.000  C
  N366     1.0000 0.43549  0.16673  0.70369  Biso   1.000  N
  C486     1.0000 0.41721  0.17517  0.82010  Biso   1.000  C
  H243     1.0000 0.42790  0.14320  0.77630  Biso   1.000  H
  C487     1.0000 0.38449  0.16050  0.83719  Biso   1.000  C
  C488     1.0000 0.37005  0.17679  0.86777  Biso   1.000  C
  H244     1.0000 0.38120  0.19780  0.87740  Biso   1.000  H
  N367     1.0000 0.96313  0.68459  0.78458  Biso   1.000  N
  N368     1.0000 0.96315  0.68866  0.70911  Biso   1.000  N
  C489     1.0000 0.93473  0.66340  0.79058  Biso   1.000  C
  N369     1.0000 0.93549  0.66673  0.70369  Biso   1.000  N
  C490     1.0000 0.91721  0.67517  0.82010  Biso   1.000  C
  H245     1.0000 0.92790  0.64320  0.77630  Biso   1.000  H
  C491     1.0000 0.88449  0.66050  0.83719  Biso   1.000  C
  C492     1.0000 0.87005  0.67679  0.86777  Biso   1.000  C
  H246     1.0000 0.88120  0.69780  0.87740  Biso   1.000  H
  N370     1.0000 0.96313  0.18459  0.28458  Biso   1.000  N
  N371     1.0000 0.96315  0.18866  0.20911  Biso   1.000  N
  C493     1.0000 0.93473  0.16340  0.29058  Biso   1.000  C
  N372     1.0000 0.93549  0.16673  0.20369  Biso   1.000  N
  C494     1.0000 0.91721  0.17517  0.32010  Biso   1.000  C
  H247     1.0000 0.92790  0.14320  0.27630  Biso   1.000  H
  C495     1.0000 0.88449  0.16050  0.33719  Biso   1.000  C
  C496     1.0000 0.87005  0.17679  0.36777  Biso   1.000  C
  H248     1.0000 0.88120  0.19780  0.37740  Biso   1.000  H
  N373     1.0000 0.46313  0.31541  0.71542  Biso   1.000  N
  N374     1.0000 0.46315  0.31134  0.79089  Biso   1.000  N
  C497     1.0000 0.43473  0.33660  0.70942  Biso   1.000  C
  N375     1.0000 0.43549  0.33327  0.79631  Biso   1.000  N
  C498     1.0000 0.41721  0.32483  0.67990  Biso   1.000  C
  H249     1.0000 0.42790  0.35680  0.72370  Biso   1.000  H
  C499     1.0000 0.38449  0.33950  0.66281  Biso   1.000  C
  C500     1.0000 0.37005  0.32321  0.63223  Biso   1.000  C
  H250     1.0000 0.38120  0.30220  0.62260  Biso   1.000  H
  N376     1.0000 0.46313  0.81541  0.21542  Biso   1.000  N
  N377     1.0000 0.46315  0.81134  0.29089  Biso   1.000  N
  C501     1.0000 0.43473  0.83660  0.20942  Biso   1.000  C
  N378     1.0000 0.43549  0.83327  0.29631  Biso   1.000  N
  C502     1.0000 0.41721  0.82483  0.17990  Biso   1.000  C
  H251     1.0000 0.42790  0.85680  0.22370  Biso   1.000  H
  C503     1.0000 0.38449  0.83950  0.16281  Biso   1.000  C
  C504     1.0000 0.37005  0.82321  0.13223  Biso   1.000  C
  H252     1.0000 0.38120  0.80220  0.12260  Biso   1.000  H
  N379     1.0000 0.96313  0.31541  0.21542  Biso   1.000  N
  N380     1.0000 0.96315  0.31134  0.29089  Biso   1.000  N
  C505     1.0000 0.93473  0.33660  0.20942  Biso   1.000  C
  N381     1.0000 0.93549  0.33327  0.29631  Biso   1.000  N
  C506     1.0000 0.91721  0.32483  0.17990  Biso   1.000  C
  H253     1.0000 0.92790  0.35680  0.22370  Biso   1.000  H
  C507     1.0000 0.88449  0.33950  0.16281  Biso   1.000  C
  C508     1.0000 0.87005  0.32321  0.13223  Biso   1.000  C
  H254     1.0000 0.88120  0.30220  0.12260  Biso   1.000  H
  N382     1.0000 0.96313  0.81541  0.71542  Biso   1.000  N
  N383     1.0000 0.96315  0.81134  0.79089  Biso   1.000  N
  C509     1.0000 0.93473  0.83660  0.70942  Biso   1.000  C
  N384     1.0000 0.93549  0.83327  0.79631  Biso   1.000  N
  C510     1.0000 0.91721  0.82483  0.67990  Biso   1.000  C
  H255     1.0000 0.92790  0.85680  0.72370  Biso   1.000  H
  C511     1.0000 0.88449  0.83950  0.66281  Biso   1.000  C
  C512     1.0000 0.87005  0.82321  0.63223  Biso   1.000  C
  H256     1.0000 0.88120  0.80220  0.62260  Biso   1.000  H
  N385     1.0000 0.28458  0.53687  0.31541  Biso   1.000  N
  N386     1.0000 0.20911  0.53685  0.31134  Biso   1.000  N
  C513     1.0000 0.29058  0.56527  0.33660  Biso   1.000  C
  N387     1.0000 0.20369  0.56451  0.33327  Biso   1.000  N
  C514     1.0000 0.32010  0.58279  0.32483  Biso   1.000  C
  H257     1.0000 0.27630  0.57210  0.35680  Biso   1.000  H
  C515     1.0000 0.33719  0.61551  0.33950  Biso   1.000  C
  C516     1.0000 0.36777  0.62995  0.32321  Biso   1.000  C
  H258     1.0000 0.37740  0.61880  0.30220  Biso   1.000  H
  N388     1.0000 0.28458  0.03687  0.81541  Biso   1.000  N
  N389     1.0000 0.20911  0.03685  0.81134  Biso   1.000  N
  C517     1.0000 0.29058  0.06527  0.83660  Biso   1.000  C
  N390     1.0000 0.20369  0.06451  0.83327  Biso   1.000  N
  C518     1.0000 0.32010  0.08279  0.82483  Biso   1.000  C
  H259     1.0000 0.27630  0.07210  0.85680  Biso   1.000  H
  C519     1.0000 0.33719  0.11551  0.83950  Biso   1.000  C
  C520     1.0000 0.36777  0.12995  0.82321  Biso   1.000  C
  H260     1.0000 0.37740  0.11880  0.80220  Biso   1.000  H
  N391     1.0000 0.78458  0.53687  0.81541  Biso   1.000  N
  N392     1.0000 0.70911  0.53685  0.81134  Biso   1.000  N
  C521     1.0000 0.79058  0.56527  0.83660  Biso   1.000  C
  N393     1.0000 0.70369  0.56451  0.83327  Biso   1.000  N
  C522     1.0000 0.82010  0.58279  0.82483  Biso   1.000  C
  H261     1.0000 0.77630  0.57210  0.85680  Biso   1.000  H
  C523     1.0000 0.83719  0.61551  0.83950  Biso   1.000  C
  C524     1.0000 0.86777  0.62995  0.82321  Biso   1.000  C
  H262     1.0000 0.87740  0.61880  0.80220  Biso   1.000  H
  N394     1.0000 0.78458  0.03687  0.31541  Biso   1.000  N
  N395     1.0000 0.70911  0.03685  0.31134  Biso   1.000  N
  C525     1.0000 0.79058  0.06527  0.33660  Biso   1.000  C
  N396     1.0000 0.70369  0.06451  0.33327  Biso   1.000  N
  C526     1.0000 0.82010  0.08279  0.32483  Biso   1.000  C
  H263     1.0000 0.77630  0.07210  0.35680  Biso   1.000  H
  C527     1.0000 0.83719  0.11551  0.33950  Biso   1.000  C
  C528     1.0000 0.86777  0.12995  0.32321  Biso   1.000  C
  H264     1.0000 0.87740  0.11880  0.30220  Biso   1.000  H
  N397     1.0000 0.71542  0.53687  0.68459  Biso   1.000  N
  N398     1.0000 0.79089  0.53685  0.68866  Biso   1.000  N
  C529     1.0000 0.70942  0.56527  0.66340  Biso   1.000  C
  N399     1.0000 0.79631  0.56451  0.66673  Biso   1.000  N
  C530     1.0000 0.67990  0.58279  0.67517  Biso   1.000  C
  H265     1.0000 0.72370  0.57210  0.64320  Biso   1.000  H
  C531     1.0000 0.66281  0.61551  0.66050  Biso   1.000  C
  C532     1.0000 0.63223  0.62995  0.67679  Biso   1.000  C
  H266     1.0000 0.62260  0.61880  0.69780  Biso   1.000  H
  N400     1.0000 0.71542  0.03687  0.18459  Biso   1.000  N
  N401     1.0000 0.79089  0.03685  0.18866  Biso   1.000  N
  C533     1.0000 0.70942  0.06527  0.16340  Biso   1.000  C
  N402     1.0000 0.79631  0.06451  0.16673  Biso   1.000  N
  C534     1.0000 0.67990  0.08279  0.17517  Biso   1.000  C
  H267     1.0000 0.72370  0.07210  0.14320  Biso   1.000  H
  C535     1.0000 0.66281  0.11551  0.16050  Biso   1.000  C
  C536     1.0000 0.63223  0.12995  0.17679  Biso   1.000  C
  H268     1.0000 0.62260  0.11880  0.19780  Biso   1.000  H
  N403     1.0000 0.21542  0.53687  0.18459  Biso   1.000  N
  N404     1.0000 0.29089  0.53685  0.18866  Biso   1.000  N
  C537     1.0000 0.20942  0.56527  0.16340  Biso   1.000  C
  N405     1.0000 0.29631  0.56451  0.16673  Biso   1.000  N
  C538     1.0000 0.17990  0.58279  0.17517  Biso   1.000  C
  H269     1.0000 0.22370  0.57210  0.14320  Biso   1.000  H
  C539     1.0000 0.16281  0.61551  0.16050  Biso   1.000  C
  C540     1.0000 0.13223  0.62995  0.17679  Biso   1.000  C
  H270     1.0000 0.12260  0.61880  0.19780  Biso   1.000  H
  N406     1.0000 0.21542  0.03687  0.68459  Biso   1.000  N
  N407     1.0000 0.29089  0.03685  0.68866  Biso   1.000  N
  C541     1.0000 0.20942  0.06527  0.66340  Biso   1.000  C
  N408     1.0000 0.29631  0.06451  0.66673  Biso   1.000  N
  C542     1.0000 0.17990  0.08279  0.67517  Biso   1.000  C
  H271     1.0000 0.22370  0.07210  0.64320  Biso   1.000  H
  C543     1.0000 0.16281  0.11551  0.66050  Biso   1.000  C
  C544     1.0000 0.13223  0.12995  0.67679  Biso   1.000  C
  H272     1.0000 0.12260  0.11880  0.69780  Biso   1.000  H
  N409     1.0000 0.28458  0.46313  0.68459  Biso   1.000  N
  N410     1.0000 0.20911  0.46315  0.68866  Biso   1.000  N
  C545     1.0000 0.29058  0.43473  0.66340  Biso   1.000  C
  N411     1.0000 0.20369  0.43549  0.66673  Biso   1.000  N
  C546     1.0000 0.32010  0.41721  0.67517  Biso   1.000  C
  H273     1.0000 0.27630  0.42790  0.64320  Biso   1.000  H
  C547     1.0000 0.33719  0.38449  0.66050  Biso   1.000  C
  C548     1.0000 0.36777  0.37005  0.67679  Biso   1.000  C
  H274     1.0000 0.37740  0.38120  0.69780  Biso   1.000  H
  N412     1.0000 0.28458  0.96313  0.18459  Biso   1.000  N
  N413     1.0000 0.20911  0.96315  0.18866  Biso   1.000  N
  C549     1.0000 0.29058  0.93473  0.16340  Biso   1.000  C
  N414     1.0000 0.20369  0.93549  0.16673  Biso   1.000  N
  C550     1.0000 0.32010  0.91721  0.17517  Biso   1.000  C
  H275     1.0000 0.27630  0.92790  0.14320  Biso   1.000  H
  C551     1.0000 0.33719  0.88449  0.16050  Biso   1.000  C
  C552     1.0000 0.36777  0.87005  0.17679  Biso   1.000  C
  H276     1.0000 0.37740  0.88120  0.19780  Biso   1.000  H
  N415     1.0000 0.78458  0.46313  0.18459  Biso   1.000  N
  N416     1.0000 0.70911  0.46315  0.18866  Biso   1.000  N
  C553     1.0000 0.79058  0.43473  0.16340  Biso   1.000  C
  N417     1.0000 0.70369  0.43549  0.16673  Biso   1.000  N
  C554     1.0000 0.82010  0.41721  0.17517  Biso   1.000  C
  H277     1.0000 0.77630  0.42790  0.14320  Biso   1.000  H
  C555     1.0000 0.83719  0.38449  0.16050  Biso   1.000  C
  C556     1.0000 0.86777  0.37005  0.17679  Biso   1.000  C
  H278     1.0000 0.87740  0.38120  0.19780  Biso   1.000  H
  N418     1.0000 0.78458  0.96313  0.68459  Biso   1.000  N
  N419     1.0000 0.70911  0.96315  0.68866  Biso   1.000  N
  C557     1.0000 0.79058  0.93473  0.66340  Biso   1.000  C
  N420     1.0000 0.70369  0.93549  0.66673  Biso   1.000  N
  C558     1.0000 0.82010  0.91721  0.67517  Biso   1.000  C
  H279     1.0000 0.77630  0.92790  0.64320  Biso   1.000  H
  C559     1.0000 0.83719  0.88449  0.66050  Biso   1.000  C
  C560     1.0000 0.86777  0.87005  0.67679  Biso   1.000  C
  H280     1.0000 0.87740  0.88120  0.69780  Biso   1.000  H
  N421     1.0000 0.71542  0.46313  0.31541  Biso   1.000  N
  N422     1.0000 0.79089  0.46315  0.31134  Biso   1.000  N
  C561     1.0000 0.70942  0.43473  0.33660  Biso   1.000  C
  N423     1.0000 0.79631  0.43549  0.33327  Biso   1.000  N
  C562     1.0000 0.67990  0.41721  0.32483  Biso   1.000  C
  H281     1.0000 0.72370  0.42790  0.35680  Biso   1.000  H
  C563     1.0000 0.66281  0.38449  0.33950  Biso   1.000  C
  C564     1.0000 0.63223  0.37005  0.32321  Biso   1.000  C
  H282     1.0000 0.62260  0.38120  0.30220  Biso   1.000  H
  N424     1.0000 0.71542  0.96313  0.81541  Biso   1.000  N
  N425     1.0000 0.79089  0.96315  0.81134  Biso   1.000  N
  C565     1.0000 0.70942  0.93473  0.83660  Biso   1.000  C
  N426     1.0000 0.79631  0.93549  0.83327  Biso   1.000  N
  C566     1.0000 0.67990  0.91721  0.82483  Biso   1.000  C
  H283     1.0000 0.72370  0.92790  0.85680  Biso   1.000  H
  C567     1.0000 0.66281  0.88449  0.83950  Biso   1.000  C
  C568     1.0000 0.63223  0.87005  0.82321  Biso   1.000  C
  H284     1.0000 0.62260  0.88120  0.80220  Biso   1.000  H
  N427     1.0000 0.21542  0.46313  0.81541  Biso   1.000  N
  N428     1.0000 0.29089  0.46315  0.81134  Biso   1.000  N
  C569     1.0000 0.20942  0.43473  0.83660  Biso   1.000  C
  N429     1.0000 0.29631  0.43549  0.83327  Biso   1.000  N
  C570     1.0000 0.17990  0.41721  0.82483  Biso   1.000  C
  H285     1.0000 0.22370  0.42790  0.85680  Biso   1.000  H
  C571     1.0000 0.16281  0.38449  0.83950  Biso   1.000  C
  C572     1.0000 0.13223  0.37005  0.82321  Biso   1.000  C
  H286     1.0000 0.12260  0.38120  0.80220  Biso   1.000  H
  N430     1.0000 0.21542  0.96313  0.31541  Biso   1.000  N
  N431     1.0000 0.29089  0.96315  0.31134  Biso   1.000  N
  C573     1.0000 0.20942  0.93473  0.33660  Biso   1.000  C
  N432     1.0000 0.29631  0.93549  0.33327  Biso   1.000  N
  C574     1.0000 0.17990  0.91721  0.32483  Biso   1.000  C
  H287     1.0000 0.22370  0.92790  0.35680  Biso   1.000  H
  C575     1.0000 0.16281  0.88449  0.33950  Biso   1.000  C
  C576     1.0000 0.13223  0.87005  0.32321  Biso   1.000  C
  H288     1.0000 0.12260  0.88120  0.30220  Biso   1.000  H
  N433     1.0000 0.78458  0.81541  0.96313  Biso   1.000  N
  N434     1.0000 0.70911  0.81134  0.96315  Biso   1.000  N
  C577     1.0000 0.79058  0.83660  0.93473  Biso   1.000  C
  N435     1.0000 0.70369  0.83327  0.93549  Biso   1.000  N
  C578     1.0000 0.82010  0.82483  0.91721  Biso   1.000  C
  H289     1.0000 0.77630  0.85680  0.92790  Biso   1.000  H
  C579     1.0000 0.83719  0.83950  0.88449  Biso   1.000  C
  C580     1.0000 0.86777  0.82321  0.87005  Biso   1.000  C
  H290     1.0000 0.87740  0.80220  0.88120  Biso   1.000  H
  N436     1.0000 0.78458  0.31541  0.46313  Biso   1.000  N
  N437     1.0000 0.70911  0.31134  0.46315  Biso   1.000  N
  C581     1.0000 0.79058  0.33660  0.43473  Biso   1.000  C
  N438     1.0000 0.70369  0.33327  0.43549  Biso   1.000  N
  C582     1.0000 0.82010  0.32483  0.41721  Biso   1.000  C
  H291     1.0000 0.77630  0.35680  0.42790  Biso   1.000  H
  C583     1.0000 0.83719  0.33950  0.38449  Biso   1.000  C
  C584     1.0000 0.86777  0.32321  0.37005  Biso   1.000  C
  H292     1.0000 0.87740  0.30220  0.38120  Biso   1.000  H
  N439     1.0000 0.28458  0.81541  0.46313  Biso   1.000  N
  N440     1.0000 0.20911  0.81134  0.46315  Biso   1.000  N
  C585     1.0000 0.29058  0.83660  0.43473  Biso   1.000  C
  N441     1.0000 0.20369  0.83327  0.43549  Biso   1.000  N
  C586     1.0000 0.32010  0.82483  0.41721  Biso   1.000  C
  H293     1.0000 0.27630  0.85680  0.42790  Biso   1.000  H
  C587     1.0000 0.33719  0.83950  0.38449  Biso   1.000  C
  C588     1.0000 0.36777  0.82321  0.37005  Biso   1.000  C
  H294     1.0000 0.37740  0.80220  0.38120  Biso   1.000  H
  N442     1.0000 0.28458  0.31541  0.96313  Biso   1.000  N
  N443     1.0000 0.20911  0.31134  0.96315  Biso   1.000  N
  C589     1.0000 0.29058  0.33660  0.93473  Biso   1.000  C
  N444     1.0000 0.20369  0.33327  0.93549  Biso   1.000  N
  C590     1.0000 0.32010  0.32483  0.91721  Biso   1.000  C
  H295     1.0000 0.27630  0.35680  0.92790  Biso   1.000  H
  C591     1.0000 0.33719  0.33950  0.88449  Biso   1.000  C
  C592     1.0000 0.36777  0.32321  0.87005  Biso   1.000  C
  H296     1.0000 0.37740  0.30220  0.88120  Biso   1.000  H
  N445     1.0000 0.21542  0.18459  0.96313  Biso   1.000  N
  N446     1.0000 0.29089  0.18866  0.96315  Biso   1.000  N
  C593     1.0000 0.20942  0.16340  0.93473  Biso   1.000  C
  N447     1.0000 0.29631  0.16673  0.93549  Biso   1.000  N
  C594     1.0000 0.17990  0.17517  0.91721  Biso   1.000  C
  H297     1.0000 0.22370  0.14320  0.92790  Biso   1.000  H
  C595     1.0000 0.16281  0.16050  0.88449  Biso   1.000  C
  C596     1.0000 0.13223  0.17679  0.87005  Biso   1.000  C
  H298     1.0000 0.12260  0.19780  0.88120  Biso   1.000  H
  N448     1.0000 0.21542  0.68459  0.46313  Biso   1.000  N
  N449     1.0000 0.29089  0.68866  0.46315  Biso   1.000  N
  C597     1.0000 0.20942  0.66340  0.43473  Biso   1.000  C
  N450     1.0000 0.29631  0.66673  0.43549  Biso   1.000  N
  C598     1.0000 0.17990  0.67517  0.41721  Biso   1.000  C
  H299     1.0000 0.22370  0.64320  0.42790  Biso   1.000  H
  C599     1.0000 0.16281  0.66050  0.38449  Biso   1.000  C
  C600     1.0000 0.13223  0.67679  0.37005  Biso   1.000  C
  H300     1.0000 0.12260  0.69780  0.38120  Biso   1.000  H
  N451     1.0000 0.71542  0.18459  0.46313  Biso   1.000  N
  N452     1.0000 0.79089  0.18866  0.46315  Biso   1.000  N
  C601     1.0000 0.70942  0.16340  0.43473  Biso   1.000  C
  N453     1.0000 0.79631  0.16673  0.43549  Biso   1.000  N
  C602     1.0000 0.67990  0.17517  0.41721  Biso   1.000  C
  H301     1.0000 0.72370  0.14320  0.42790  Biso   1.000  H
  C603     1.0000 0.66281  0.16050  0.38449  Biso   1.000  C
  C604     1.0000 0.63223  0.17679  0.37005  Biso   1.000  C
  H302     1.0000 0.62260  0.19780  0.38120  Biso   1.000  H
  N454     1.0000 0.71542  0.68459  0.96313  Biso   1.000  N
  N455     1.0000 0.79089  0.68866  0.96315  Biso   1.000  N
  C605     1.0000 0.70942  0.66340  0.93473  Biso   1.000  C
  N456     1.0000 0.79631  0.66673  0.93549  Biso   1.000  N
  C606     1.0000 0.67990  0.67517  0.91721  Biso   1.000  C
  H303     1.0000 0.72370  0.64320  0.92790  Biso   1.000  H
  C607     1.0000 0.66281  0.66050  0.88449  Biso   1.000  C
  C608     1.0000 0.63223  0.67679  0.87005  Biso   1.000  C
  H304     1.0000 0.62260  0.69780  0.88120  Biso   1.000  H
  N457     1.0000 0.78458  0.18459  0.03687  Biso   1.000  N
  N458     1.0000 0.70911  0.18866  0.03685  Biso   1.000  N
  C609     1.0000 0.79058  0.16340  0.06527  Biso   1.000  C
  N459     1.0000 0.70369  0.16673  0.06451  Biso   1.000  N
  C610     1.0000 0.82010  0.17517  0.08279  Biso   1.000  C
  H305     1.0000 0.77630  0.14320  0.07210  Biso   1.000  H
  C611     1.0000 0.83719  0.16050  0.11551  Biso   1.000  C
  C612     1.0000 0.86777  0.17679  0.12995  Biso   1.000  C
  H306     1.0000 0.87740  0.19780  0.11880  Biso   1.000  H
  N460     1.0000 0.78458  0.68459  0.53687  Biso   1.000  N
  N461     1.0000 0.70911  0.68866  0.53685  Biso   1.000  N
  C613     1.0000 0.79058  0.66340  0.56527  Biso   1.000  C
  N462     1.0000 0.70369  0.66673  0.56451  Biso   1.000  N
  C614     1.0000 0.82010  0.67517  0.58279  Biso   1.000  C
  H307     1.0000 0.77630  0.64320  0.57210  Biso   1.000  H
  C615     1.0000 0.83719  0.66050  0.61551  Biso   1.000  C
  C616     1.0000 0.86777  0.67679  0.62995  Biso   1.000  C
  H308     1.0000 0.87740  0.69780  0.61880  Biso   1.000  H
  N463     1.0000 0.28458  0.18459  0.53687  Biso   1.000  N
  N464     1.0000 0.20911  0.18866  0.53685  Biso   1.000  N
  C617     1.0000 0.29058  0.16340  0.56527  Biso   1.000  C
  N465     1.0000 0.20369  0.16673  0.56451  Biso   1.000  N
  C618     1.0000 0.32010  0.17517  0.58279  Biso   1.000  C
  H309     1.0000 0.27630  0.14320  0.57210  Biso   1.000  H
  C619     1.0000 0.33719  0.16050  0.61551  Biso   1.000  C
  C620     1.0000 0.36777  0.17679  0.62995  Biso   1.000  C
  H310     1.0000 0.37740  0.19780  0.61880  Biso   1.000  H
  N466     1.0000 0.28458  0.68459  0.03687  Biso   1.000  N
  N467     1.0000 0.20911  0.68866  0.03685  Biso   1.000  N
  C621     1.0000 0.29058  0.66340  0.06527  Biso   1.000  C
  N468     1.0000 0.20369  0.66673  0.06451  Biso   1.000  N
  C622     1.0000 0.32010  0.67517  0.08279  Biso   1.000  C
  H311     1.0000 0.27630  0.64320  0.07210  Biso   1.000  H
  C623     1.0000 0.33719  0.66050  0.11551  Biso   1.000  C
  C624     1.0000 0.36777  0.67679  0.12995  Biso   1.000  C
  H312     1.0000 0.37740  0.69780  0.11880  Biso   1.000  H
  N469     1.0000 0.21542  0.81541  0.03687  Biso   1.000  N
  N470     1.0000 0.29089  0.81134  0.03685  Biso   1.000  N
  C625     1.0000 0.20942  0.83660  0.06527  Biso   1.000  C
  N471     1.0000 0.29631  0.83327  0.06451  Biso   1.000  N
  C626     1.0000 0.17990  0.82483  0.08279  Biso   1.000  C
  H313     1.0000 0.22370  0.85680  0.07210  Biso   1.000  H
  C627     1.0000 0.16281  0.83950  0.11551  Biso   1.000  C
  C628     1.0000 0.13223  0.82321  0.12995  Biso   1.000  C
  H314     1.0000 0.12260  0.80220  0.11880  Biso   1.000  H
  N472     1.0000 0.21542  0.31541  0.53687  Biso   1.000  N
  N473     1.0000 0.29089  0.31134  0.53685  Biso   1.000  N
  C629     1.0000 0.20942  0.33660  0.56527  Biso   1.000  C
  N474     1.0000 0.29631  0.33327  0.56451  Biso   1.000  N
  C630     1.0000 0.17990  0.32483  0.58279  Biso   1.000  C
  H315     1.0000 0.22370  0.35680  0.57210  Biso   1.000  H
  C631     1.0000 0.16281  0.33950  0.61551  Biso   1.000  C
  C632     1.0000 0.13223  0.32321  0.62995  Biso   1.000  C
  H316     1.0000 0.12260  0.30220  0.61880  Biso   1.000  H
  N475     1.0000 0.71542  0.81541  0.53687  Biso   1.000  N
  N476     1.0000 0.79089  0.81134  0.53685  Biso   1.000  N
  C633     1.0000 0.70942  0.83660  0.56527  Biso   1.000  C
  N477     1.0000 0.79631  0.83327  0.56451  Biso   1.000  N
  C634     1.0000 0.67990  0.82483  0.58279  Biso   1.000  C
  H317     1.0000 0.72370  0.85680  0.57210  Biso   1.000  H
  C635     1.0000 0.66281  0.83950  0.61551  Biso   1.000  C
  C636     1.0000 0.63223  0.82321  0.62995  Biso   1.000  C
  H318     1.0000 0.62260  0.80220  0.61880  Biso   1.000  H
  N478     1.0000 0.71542  0.31541  0.03687  Biso   1.000  N
  N479     1.0000 0.79089  0.31134  0.03685  Biso   1.000  N
  C637     1.0000 0.70942  0.33660  0.06527  Biso   1.000  C
  N480     1.0000 0.79631  0.33327  0.06451  Biso   1.000  N
  C638     1.0000 0.67990  0.32483  0.08279  Biso   1.000  C
  H319     1.0000 0.72370  0.35680  0.07210  Biso   1.000  H
  C639     1.0000 0.66281  0.33950  0.11551  Biso   1.000  C
  C640     1.0000 0.63223  0.32321  0.12995  Biso   1.000  C
  H320     1.0000 0.62260  0.30220  0.11880  Biso   1.000  H
  N481     1.0000 0.81541  0.03687  0.21542  Biso   1.000  N
  N482     1.0000 0.81134  0.03685  0.29089  Biso   1.000  N
  C641     1.0000 0.83660  0.06527  0.20942  Biso   1.000  C
  N483     1.0000 0.83327  0.06451  0.29631  Biso   1.000  N
  C642     1.0000 0.82483  0.08279  0.17990  Biso   1.000  C
  H321     1.0000 0.85680  0.07210  0.22370  Biso   1.000  H
  C643     1.0000 0.83950  0.11551  0.16281  Biso   1.000  C
  C644     1.0000 0.82321  0.12995  0.13223  Biso   1.000  C
  H322     1.0000 0.80220  0.11880  0.12260  Biso   1.000  H
  N484     1.0000 0.81541  0.53687  0.71542  Biso   1.000  N
  N485     1.0000 0.81134  0.53685  0.79089  Biso   1.000  N
  C645     1.0000 0.83660  0.56527  0.70942  Biso   1.000  C
  N486     1.0000 0.83327  0.56451  0.79631  Biso   1.000  N
  C646     1.0000 0.82483  0.58279  0.67990  Biso   1.000  C
  H323     1.0000 0.85680  0.57210  0.72370  Biso   1.000  H
  C647     1.0000 0.83950  0.61551  0.66281  Biso   1.000  C
  C648     1.0000 0.82321  0.62995  0.63223  Biso   1.000  C
  H324     1.0000 0.80220  0.61880  0.62260  Biso   1.000  H
  N487     1.0000 0.31541  0.03687  0.71542  Biso   1.000  N
  N488     1.0000 0.31134  0.03685  0.79089  Biso   1.000  N
  C649     1.0000 0.33660  0.06527  0.70942  Biso   1.000  C
  N489     1.0000 0.33327  0.06451  0.79631  Biso   1.000  N
  C650     1.0000 0.32483  0.08279  0.67990  Biso   1.000  C
  H325     1.0000 0.35680  0.07210  0.72370  Biso   1.000  H
  C651     1.0000 0.33950  0.11551  0.66281  Biso   1.000  C
  C652     1.0000 0.32321  0.12995  0.63223  Biso   1.000  C
  H326     1.0000 0.30220  0.11880  0.62260  Biso   1.000  H
  N490     1.0000 0.31541  0.53687  0.21542  Biso   1.000  N
  N491     1.0000 0.31134  0.53685  0.29089  Biso   1.000  N
  C653     1.0000 0.33660  0.56527  0.20942  Biso   1.000  C
  N492     1.0000 0.33327  0.56451  0.29631  Biso   1.000  N
  C654     1.0000 0.32483  0.58279  0.17990  Biso   1.000  C
  H327     1.0000 0.35680  0.57210  0.22370  Biso   1.000  H
  C655     1.0000 0.33950  0.61551  0.16281  Biso   1.000  C
  C656     1.0000 0.32321  0.62995  0.13223  Biso   1.000  C
  H328     1.0000 0.30220  0.61880  0.12260  Biso   1.000  H
  N493     1.0000 0.18459  0.03687  0.78458  Biso   1.000  N
  N494     1.0000 0.18866  0.03685  0.70911  Biso   1.000  N
  C657     1.0000 0.16340  0.06527  0.79058  Biso   1.000  C
  N495     1.0000 0.16673  0.06451  0.70369  Biso   1.000  N
  C658     1.0000 0.17517  0.08279  0.82010  Biso   1.000  C
  H329     1.0000 0.14320  0.07210  0.77630  Biso   1.000  H
  C659     1.0000 0.16050  0.11551  0.83719  Biso   1.000  C
  C660     1.0000 0.17679  0.12995  0.86777  Biso   1.000  C
  H330     1.0000 0.19780  0.11880  0.87740  Biso   1.000  H
  N496     1.0000 0.18459  0.53687  0.28458  Biso   1.000  N
  N497     1.0000 0.18866  0.53685  0.20911  Biso   1.000  N
  C661     1.0000 0.16340  0.56527  0.29058  Biso   1.000  C
  N498     1.0000 0.16673  0.56451  0.20369  Biso   1.000  N
  C662     1.0000 0.17517  0.58279  0.32010  Biso   1.000  C
  H331     1.0000 0.14320  0.57210  0.27630  Biso   1.000  H
  C663     1.0000 0.16050  0.61551  0.33719  Biso   1.000  C
  C664     1.0000 0.17679  0.62995  0.36777  Biso   1.000  C
  H332     1.0000 0.19780  0.61880  0.37740  Biso   1.000  H
  N499     1.0000 0.68459  0.03687  0.28458  Biso   1.000  N
  N500     1.0000 0.68866  0.03685  0.20911  Biso   1.000  N
  C665     1.0000 0.66340  0.06527  0.29058  Biso   1.000  C
  N501     1.0000 0.66673  0.06451  0.20369  Biso   1.000  N
  C666     1.0000 0.67517  0.08279  0.32010  Biso   1.000  C
  H333     1.0000 0.64320  0.07210  0.27630  Biso   1.000  H
  C667     1.0000 0.66050  0.11551  0.33719  Biso   1.000  C
  C668     1.0000 0.67679  0.12995  0.36777  Biso   1.000  C
  H334     1.0000 0.69780  0.11880  0.37740  Biso   1.000  H
  N502     1.0000 0.68459  0.53687  0.78458  Biso   1.000  N
  N503     1.0000 0.68866  0.53685  0.70911  Biso   1.000  N
  C669     1.0000 0.66340  0.56527  0.79058  Biso   1.000  C
  N504     1.0000 0.66673  0.56451  0.70369  Biso   1.000  N
  C670     1.0000 0.67517  0.58279  0.82010  Biso   1.000  C
  H335     1.0000 0.64320  0.57210  0.77630  Biso   1.000  H
  C671     1.0000 0.66050  0.61551  0.83719  Biso   1.000  C
  C672     1.0000 0.67679  0.62995  0.86777  Biso   1.000  C
  H336     1.0000 0.69780  0.61880  0.87740  Biso   1.000  H
  N505     1.0000 0.18459  0.96313  0.21542  Biso   1.000  N
  N506     1.0000 0.18866  0.96315  0.29089  Biso   1.000  N
  C673     1.0000 0.16340  0.93473  0.20942  Biso   1.000  C
  N507     1.0000 0.16673  0.93549  0.29631  Biso   1.000  N
  C674     1.0000 0.17517  0.91721  0.17990  Biso   1.000  C
  H337     1.0000 0.14320  0.92790  0.22370  Biso   1.000  H
  C675     1.0000 0.16050  0.88449  0.16281  Biso   1.000  C
  C676     1.0000 0.17679  0.87005  0.13223  Biso   1.000  C
  H338     1.0000 0.19780  0.88120  0.12260  Biso   1.000  H
  N508     1.0000 0.18459  0.46313  0.71542  Biso   1.000  N
  N509     1.0000 0.18866  0.46315  0.79089  Biso   1.000  N
  C677     1.0000 0.16340  0.43473  0.70942  Biso   1.000  C
  N510     1.0000 0.16673  0.43549  0.79631  Biso   1.000  N
  C678     1.0000 0.17517  0.41721  0.67990  Biso   1.000  C
  H339     1.0000 0.14320  0.42790  0.72370  Biso   1.000  H
  C679     1.0000 0.16050  0.38449  0.66281  Biso   1.000  C
  C680     1.0000 0.17679  0.37005  0.63223  Biso   1.000  C
  H340     1.0000 0.19780  0.38120  0.62260  Biso   1.000  H
  N511     1.0000 0.68459  0.96313  0.71542  Biso   1.000  N
  N512     1.0000 0.68866  0.96315  0.79089  Biso   1.000  N
  C681     1.0000 0.66340  0.93473  0.70942  Biso   1.000  C
  N513     1.0000 0.66673  0.93549  0.79631  Biso   1.000  N
  C682     1.0000 0.67517  0.91721  0.67990  Biso   1.000  C
  H341     1.0000 0.64320  0.92790  0.72370  Biso   1.000  H
  C683     1.0000 0.66050  0.88449  0.66281  Biso   1.000  C
  C684     1.0000 0.67679  0.87005  0.63223  Biso   1.000  C
  H342     1.0000 0.69780  0.88120  0.62260  Biso   1.000  H
  N514     1.0000 0.68459  0.46313  0.21542  Biso   1.000  N
  N515     1.0000 0.68866  0.46315  0.29089  Biso   1.000  N
  C685     1.0000 0.66340  0.43473  0.20942  Biso   1.000  C
  N516     1.0000 0.66673  0.43549  0.29631  Biso   1.000  N
  C686     1.0000 0.67517  0.41721  0.17990  Biso   1.000  C
  H343     1.0000 0.64320  0.42790  0.22370  Biso   1.000  H
  C687     1.0000 0.66050  0.38449  0.16281  Biso   1.000  C
  C688     1.0000 0.67679  0.37005  0.13223  Biso   1.000  C
  H344     1.0000 0.69780  0.38120  0.12260  Biso   1.000  H
  N517     1.0000 0.81541  0.96313  0.78458  Biso   1.000  N
  N518     1.0000 0.81134  0.96315  0.70911  Biso   1.000  N
  C689     1.0000 0.83660  0.93473  0.79058  Biso   1.000  C
  N519     1.0000 0.83327  0.93549  0.70369  Biso   1.000  N
  C690     1.0000 0.82483  0.91721  0.82010  Biso   1.000  C
  H345     1.0000 0.85680  0.92790  0.77630  Biso   1.000  H
  C691     1.0000 0.83950  0.88449  0.83719  Biso   1.000  C
  C692     1.0000 0.82321  0.87005  0.86777  Biso   1.000  C
  H346     1.0000 0.80220  0.88120  0.87740  Biso   1.000  H
  N520     1.0000 0.81541  0.46313  0.28458  Biso   1.000  N
  N521     1.0000 0.81134  0.46315  0.20911  Biso   1.000  N
  C693     1.0000 0.83660  0.43473  0.29058  Biso   1.000  C
  N522     1.0000 0.83327  0.43549  0.20369  Biso   1.000  N
  C694     1.0000 0.82483  0.41721  0.32010  Biso   1.000  C
  H347     1.0000 0.85680  0.42790  0.27630  Biso   1.000  H
  C695     1.0000 0.83950  0.38449  0.33719  Biso   1.000  C
  C696     1.0000 0.82321  0.37005  0.36777  Biso   1.000  C
  H348     1.0000 0.80220  0.38120  0.37740  Biso   1.000  H
  N523     1.0000 0.31541  0.96313  0.28458  Biso   1.000  N
  N524     1.0000 0.31134  0.96315  0.20911  Biso   1.000  N
  C697     1.0000 0.33660  0.93473  0.29058  Biso   1.000  C
  N525     1.0000 0.33327  0.93549  0.20369  Biso   1.000  N
  C698     1.0000 0.32483  0.91721  0.32010  Biso   1.000  C
  H349     1.0000 0.35680  0.92790  0.27630  Biso   1.000  H
  C699     1.0000 0.33950  0.88449  0.33719  Biso   1.000  C
  C700     1.0000 0.32321  0.87005  0.36777  Biso   1.000  C
  H350     1.0000 0.30220  0.88120  0.37740  Biso   1.000  H
  N526     1.0000 0.31541  0.46313  0.78458  Biso   1.000  N
  N527     1.0000 0.31134  0.46315  0.70911  Biso   1.000  N
  C701     1.0000 0.33660  0.43473  0.79058  Biso   1.000  C
  N528     1.0000 0.33327  0.43549  0.70369  Biso   1.000  N
  C702     1.0000 0.32483  0.41721  0.82010  Biso   1.000  C
  H351     1.0000 0.35680  0.42790  0.77630  Biso   1.000  H
  C703     1.0000 0.33950  0.38449  0.83719  Biso   1.000  C
  C704     1.0000 0.32321  0.37005  0.86777  Biso   1.000  C
  H352     1.0000 0.30220  0.38120  0.87740  Biso   1.000  H
  N529     1.0000 0.03687  0.78458  0.18459  Biso   1.000  N
  N530     1.0000 0.03685  0.70911  0.18866  Biso   1.000  N
  C705     1.0000 0.06527  0.79058  0.16340  Biso   1.000  C
  N531     1.0000 0.06451  0.70369  0.16673  Biso   1.000  N
  C706     1.0000 0.08279  0.82010  0.17517  Biso   1.000  C
  H353     1.0000 0.07210  0.77630  0.14320  Biso   1.000  H
  C707     1.0000 0.11551  0.83719  0.16050  Biso   1.000  C
  C708     1.0000 0.12995  0.86777  0.17679  Biso   1.000  C
  H354     1.0000 0.11880  0.87740  0.19780  Biso   1.000  H
  N532     1.0000 0.03687  0.28458  0.68459  Biso   1.000  N
  N533     1.0000 0.03685  0.20911  0.68866  Biso   1.000  N
  C709     1.0000 0.06527  0.29058  0.66340  Biso   1.000  C
  N534     1.0000 0.06451  0.20369  0.66673  Biso   1.000  N
  C710     1.0000 0.08279  0.32010  0.67517  Biso   1.000  C
  H355     1.0000 0.07210  0.27630  0.64320  Biso   1.000  H
  C711     1.0000 0.11551  0.33719  0.66050  Biso   1.000  C
  C712     1.0000 0.12995  0.36777  0.67679  Biso   1.000  C
  H356     1.0000 0.11880  0.37740  0.69780  Biso   1.000  H
  N535     1.0000 0.53687  0.78458  0.68459  Biso   1.000  N
  N536     1.0000 0.53685  0.70911  0.68866  Biso   1.000  N
  C713     1.0000 0.56527  0.79058  0.66340  Biso   1.000  C
  N537     1.0000 0.56451  0.70369  0.66673  Biso   1.000  N
  C714     1.0000 0.58279  0.82010  0.67517  Biso   1.000  C
  H357     1.0000 0.57210  0.77630  0.64320  Biso   1.000  H
  C715     1.0000 0.61551  0.83719  0.66050  Biso   1.000  C
  C716     1.0000 0.62995  0.86777  0.67679  Biso   1.000  C
  H358     1.0000 0.61880  0.87740  0.69780  Biso   1.000  H
  N538     1.0000 0.53687  0.28458  0.18459  Biso   1.000  N
  N539     1.0000 0.53685  0.20911  0.18866  Biso   1.000  N
  C717     1.0000 0.56527  0.29058  0.16340  Biso   1.000  C
  N540     1.0000 0.56451  0.20369  0.16673  Biso   1.000  N
  C718     1.0000 0.58279  0.32010  0.17517  Biso   1.000  C
  H359     1.0000 0.57210  0.27630  0.14320  Biso   1.000  H
  C719     1.0000 0.61551  0.33719  0.16050  Biso   1.000  C
  C720     1.0000 0.62995  0.36777  0.17679  Biso   1.000  C
  H360     1.0000 0.61880  0.37740  0.19780  Biso   1.000  H
  N541     1.0000 0.03687  0.21542  0.81541  Biso   1.000  N
  N542     1.0000 0.03685  0.29089  0.81134  Biso   1.000  N
  C721     1.0000 0.06527  0.20942  0.83660  Biso   1.000  C
  N543     1.0000 0.06451  0.29631  0.83327  Biso   1.000  N
  C722     1.0000 0.08279  0.17990  0.82483  Biso   1.000  C
  H361     1.0000 0.07210  0.22370  0.85680  Biso   1.000  H
  C723     1.0000 0.11551  0.16281  0.83950  Biso   1.000  C
  C724     1.0000 0.12995  0.13223  0.82321  Biso   1.000  C
  H362     1.0000 0.11880  0.12260  0.80220  Biso   1.000  H
  N544     1.0000 0.03687  0.71542  0.31541  Biso   1.000  N
  N545     1.0000 0.03685  0.79089  0.31134  Biso   1.000  N
  C725     1.0000 0.06527  0.70942  0.33660  Biso   1.000  C
  N546     1.0000 0.06451  0.79631  0.33327  Biso   1.000  N
  C726     1.0000 0.08279  0.67990  0.32483  Biso   1.000  C
  H363     1.0000 0.07210  0.72370  0.35680  Biso   1.000  H
  C727     1.0000 0.11551  0.66281  0.33950  Biso   1.000  C
  C728     1.0000 0.12995  0.63223  0.32321  Biso   1.000  C
  H364     1.0000 0.11880  0.62260  0.30220  Biso   1.000  H
  N547     1.0000 0.53687  0.21542  0.31541  Biso   1.000  N
  N548     1.0000 0.53685  0.29089  0.31134  Biso   1.000  N
  C729     1.0000 0.56527  0.20942  0.33660  Biso   1.000  C
  N549     1.0000 0.56451  0.29631  0.33327  Biso   1.000  N
  C730     1.0000 0.58279  0.17990  0.32483  Biso   1.000  C
  H365     1.0000 0.57210  0.22370  0.35680  Biso   1.000  H
  C731     1.0000 0.61551  0.16281  0.33950  Biso   1.000  C
  C732     1.0000 0.62995  0.13223  0.32321  Biso   1.000  C
  H366     1.0000 0.61880  0.12260  0.30220  Biso   1.000  H
  N550     1.0000 0.53687  0.71542  0.81541  Biso   1.000  N
  N551     1.0000 0.53685  0.79089  0.81134  Biso   1.000  N
  C733     1.0000 0.56527  0.70942  0.83660  Biso   1.000  C
  N552     1.0000 0.56451  0.79631  0.83327  Biso   1.000  N
  C734     1.0000 0.58279  0.67990  0.82483  Biso   1.000  C
  H367     1.0000 0.57210  0.72370  0.85680  Biso   1.000  H
  C735     1.0000 0.61551  0.66281  0.83950  Biso   1.000  C
  C736     1.0000 0.62995  0.63223  0.82321  Biso   1.000  C
  H368     1.0000 0.61880  0.62260  0.80220  Biso   1.000  H
  N553     1.0000 0.96313  0.78458  0.81541  Biso   1.000  N
  N554     1.0000 0.96315  0.70911  0.81134  Biso   1.000  N
  C737     1.0000 0.93473  0.79058  0.83660  Biso   1.000  C
  N555     1.0000 0.93549  0.70369  0.83327  Biso   1.000  N
  C738     1.0000 0.91721  0.82010  0.82483  Biso   1.000  C
  H369     1.0000 0.92790  0.77630  0.85680  Biso   1.000  H
  C739     1.0000 0.88449  0.83719  0.83950  Biso   1.000  C
  C740     1.0000 0.87005  0.86777  0.82321  Biso   1.000  C
  H370     1.0000 0.88120  0.87740  0.80220  Biso   1.000  H
  N556     1.0000 0.96313  0.28458  0.31541  Biso   1.000  N
  N557     1.0000 0.96315  0.20911  0.31134  Biso   1.000  N
  C741     1.0000 0.93473  0.29058  0.33660  Biso   1.000  C
  N558     1.0000 0.93549  0.20369  0.33327  Biso   1.000  N
  C742     1.0000 0.91721  0.32010  0.32483  Biso   1.000  C
  H371     1.0000 0.92790  0.27630  0.35680  Biso   1.000  H
  C743     1.0000 0.88449  0.33719  0.33950  Biso   1.000  C
  C744     1.0000 0.87005  0.36777  0.32321  Biso   1.000  C
  H372     1.0000 0.88120  0.37740  0.30220  Biso   1.000  H
  N559     1.0000 0.46313  0.78458  0.31541  Biso   1.000  N
  N560     1.0000 0.46315  0.70911  0.31134  Biso   1.000  N
  C745     1.0000 0.43473  0.79058  0.33660  Biso   1.000  C
  N561     1.0000 0.43549  0.70369  0.33327  Biso   1.000  N
  C746     1.0000 0.41721  0.82010  0.32483  Biso   1.000  C
  H373     1.0000 0.42790  0.77630  0.35680  Biso   1.000  H
  C747     1.0000 0.38449  0.83719  0.33950  Biso   1.000  C
  C748     1.0000 0.37005  0.86777  0.32321  Biso   1.000  C
  H374     1.0000 0.38120  0.87740  0.30220  Biso   1.000  H
  N562     1.0000 0.46313  0.28458  0.81541  Biso   1.000  N
  N563     1.0000 0.46315  0.20911  0.81134  Biso   1.000  N
  C749     1.0000 0.43473  0.29058  0.83660  Biso   1.000  C
  N564     1.0000 0.43549  0.20369  0.83327  Biso   1.000  N
  C750     1.0000 0.41721  0.32010  0.82483  Biso   1.000  C
  H375     1.0000 0.42790  0.27630  0.85680  Biso   1.000  H
  C751     1.0000 0.38449  0.33719  0.83950  Biso   1.000  C
  C752     1.0000 0.37005  0.36777  0.82321  Biso   1.000  C
  H376     1.0000 0.38120  0.37740  0.80220  Biso   1.000  H
  N565     1.0000 0.96313  0.21542  0.18459  Biso   1.000  N
  N566     1.0000 0.96315  0.29089  0.18866  Biso   1.000  N
  C753     1.0000 0.93473  0.20942  0.16340  Biso   1.000  C
  N567     1.0000 0.93549  0.29631  0.16673  Biso   1.000  N
  C754     1.0000 0.91721  0.17990  0.17517  Biso   1.000  C
  H377     1.0000 0.92790  0.22370  0.14320  Biso   1.000  H
  C755     1.0000 0.88449  0.16281  0.16050  Biso   1.000  C
  C756     1.0000 0.87005  0.13223  0.17679  Biso   1.000  C
  H378     1.0000 0.88120  0.12260  0.19780  Biso   1.000  H
  N568     1.0000 0.96313  0.71542  0.68459  Biso   1.000  N
  N569     1.0000 0.96315  0.79089  0.68866  Biso   1.000  N
  C757     1.0000 0.93473  0.70942  0.66340  Biso   1.000  C
  N570     1.0000 0.93549  0.79631  0.66673  Biso   1.000  N
  C758     1.0000 0.91721  0.67990  0.67517  Biso   1.000  C
  H379     1.0000 0.92790  0.72370  0.64320  Biso   1.000  H
  C759     1.0000 0.88449  0.66281  0.66050  Biso   1.000  C
  C760     1.0000 0.87005  0.63223  0.67679  Biso   1.000  C
  H380     1.0000 0.88120  0.62260  0.69780  Biso   1.000  H
  N571     1.0000 0.46313  0.21542  0.68459  Biso   1.000  N
  N572     1.0000 0.46315  0.29089  0.68866  Biso   1.000  N
  C761     1.0000 0.43473  0.20942  0.66340  Biso   1.000  C
  N573     1.0000 0.43549  0.29631  0.66673  Biso   1.000  N
  C762     1.0000 0.41721  0.17990  0.67517  Biso   1.000  C
  H381     1.0000 0.42790  0.22370  0.64320  Biso   1.000  H
  C763     1.0000 0.38449  0.16281  0.66050  Biso   1.000  C
  C764     1.0000 0.37005  0.13223  0.67679  Biso   1.000  C
  H382     1.0000 0.38120  0.12260  0.69780  Biso   1.000  H
  N574     1.0000 0.46313  0.71542  0.18459  Biso   1.000  N
  N575     1.0000 0.46315  0.79089  0.18866  Biso   1.000  N
  C765     1.0000 0.43473  0.70942  0.16340  Biso   1.000  C
  N576     1.0000 0.43549  0.79631  0.16673  Biso   1.000  N
  C766     1.0000 0.41721  0.67990  0.17517  Biso   1.000  C
  H383     1.0000 0.42790  0.72370  0.14320  Biso   1.000  H
  C767     1.0000 0.38449  0.66281  0.16050  Biso   1.000  C
  C768     1.0000 0.37005  0.63223  0.17679  Biso   1.000  C
  H384     1.0000 0.38120  0.62260  0.19780  Biso   1.000  H
  Co1      1.0000 0.68434  0.75298  0.50000  Biso   1.000  Co
  Co2      1.0000 0.68434  0.25298  0.00000  Biso   1.000  Co
  Co3      1.0000 0.18434  0.75298  0.00000  Biso   1.000  Co
  Co4      1.0000 0.18434  0.25298  0.50000  Biso   1.000  Co
  Co5      1.0000 0.31566  0.24702  0.50000  Biso   1.000  Co
  Co6      1.0000 0.31566  0.74702  0.00000  Biso   1.000  Co
  Co7      1.0000 0.81566  0.24702  0.00000  Biso   1.000  Co
  Co8      1.0000 0.81566  0.74702  0.50000  Biso   1.000  Co
  Co9      1.0000 0.31566  0.75298  0.50000  Biso   1.000  Co
  Co10     1.0000 0.31566  0.25298  0.00000  Biso   1.000  Co
  Co11     1.0000 0.81566  0.75298  0.00000  Biso   1.000  Co
  Co12     1.0000 0.81566  0.25298  0.50000  Biso   1.000  Co
  Co13     1.0000 0.68434  0.24702  0.50000  Biso   1.000  Co
  Co14     1.0000 0.68434  0.74702  0.00000  Biso   1.000  Co
  Co15     1.0000 0.18434  0.24702  0.00000  Biso   1.000  Co
  Co16     1.0000 0.18434  0.74702  0.50000  Biso   1.000  Co
  Co17     1.0000 0.50000  0.68434  0.75298  Biso   1.000  Co
  Co18     1.0000 0.50000  0.18434  0.25298  Biso   1.000  Co
  Co19     1.0000 0.00000  0.68434  0.25298  Biso   1.000  Co
  Co20     1.0000 0.00000  0.18434  0.75298  Biso   1.000  Co
  Co21     1.0000 0.50000  0.31566  0.24702  Biso   1.000  Co
  Co22     1.0000 0.50000  0.81566  0.74702  Biso   1.000  Co
  Co23     1.0000 0.00000  0.31566  0.74702  Biso   1.000  Co
  Co24     1.0000 0.00000  0.81566  0.24702  Biso   1.000  Co
  Co25     1.0000 0.50000  0.31566  0.75298  Biso   1.000  Co
  Co26     1.0000 0.50000  0.81566  0.25298  Biso   1.000  Co
  Co27     1.0000 0.00000  0.31566  0.25298  Biso   1.000  Co
  Co28     1.0000 0.00000  0.81566  0.75298  Biso   1.000  Co
  Co29     1.0000 0.50000  0.68434  0.24702  Biso   1.000  Co
  Co30     1.0000 0.50000  0.18434  0.74702  Biso   1.000  Co
  Co31     1.0000 0.00000  0.68434  0.74702  Biso   1.000  Co
  Co32     1.0000 0.00000  0.18434  0.24702  Biso   1.000  Co
  Co33     1.0000 0.75298  0.50000  0.68434  Biso   1.000  Co
  Co34     1.0000 0.75298  0.00000  0.18434  Biso   1.000  Co
  Co35     1.0000 0.25298  0.50000  0.18434  Biso   1.000  Co
  Co36     1.0000 0.25298  0.00000  0.68434  Biso   1.000  Co
  Co37     1.0000 0.24702  0.50000  0.31566  Biso   1.000  Co
  Co38     1.0000 0.24702  0.00000  0.81566  Biso   1.000  Co
  Co39     1.0000 0.74702  0.50000  0.81566  Biso   1.000  Co
  Co40     1.0000 0.74702  0.00000  0.31566  Biso   1.000  Co
  Co41     1.0000 0.75298  0.50000  0.31566  Biso   1.000  Co
  Co42     1.0000 0.75298  0.00000  0.81566  Biso   1.000  Co
  Co43     1.0000 0.25298  0.50000  0.81566  Biso   1.000  Co
  Co44     1.0000 0.25298  0.00000  0.31566  Biso   1.000  Co
  Co45     1.0000 0.24702  0.50000  0.68434  Biso   1.000  Co
  Co46     1.0000 0.24702  0.00000  0.18434  Biso   1.000  Co
  Co47     1.0000 0.74702  0.50000  0.18434  Biso   1.000  Co
  Co48     1.0000 0.74702  0.00000  0.68434  Biso   1.000  Co
  Co49     1.0000 0.25298  0.18434  0.00000  Biso   1.000  Co
  Co50     1.0000 0.25298  0.68434  0.50000  Biso   1.000  Co
  Co51     1.0000 0.75298  0.18434  0.50000  Biso   1.000  Co
  Co52     1.0000 0.75298  0.68434  0.00000  Biso   1.000  Co
  Co53     1.0000 0.74702  0.81566  0.00000  Biso   1.000  Co
  Co54     1.0000 0.74702  0.31566  0.50000  Biso   1.000  Co
  Co55     1.0000 0.24702  0.81566  0.50000  Biso   1.000  Co
  Co56     1.0000 0.24702  0.31566  0.00000  Biso   1.000  Co
  Co57     1.0000 0.25298  0.81566  0.00000  Biso   1.000  Co
  Co58     1.0000 0.25298  0.31566  0.50000  Biso   1.000  Co
  Co59     1.0000 0.75298  0.81566  0.50000  Biso   1.000  Co
  Co60     1.0000 0.75298  0.31566  0.00000  Biso   1.000  Co
  Co61     1.0000 0.74702  0.18434  0.00000  Biso   1.000  Co
  Co62     1.0000 0.74702  0.68434  0.50000  Biso   1.000  Co
  Co63     1.0000 0.24702  0.18434  0.50000  Biso   1.000  Co
  Co64     1.0000 0.24702  0.68434  0.00000  Biso   1.000  Co
  Co65     1.0000 0.18434  0.00000  0.74702  Biso   1.000  Co
  Co66     1.0000 0.18434  0.50000  0.24702  Biso   1.000  Co
  Co67     1.0000 0.68434  0.00000  0.24702  Biso   1.000  Co
  Co68     1.0000 0.68434  0.50000  0.74702  Biso   1.000  Co
  Co69     1.0000 0.81566  0.00000  0.25298  Biso   1.000  Co
  Co70     1.0000 0.81566  0.50000  0.75298  Biso   1.000  Co
  Co71     1.0000 0.31566  0.00000  0.75298  Biso   1.000  Co
  Co72     1.0000 0.31566  0.50000  0.25298  Biso   1.000  Co
  Co73     1.0000 0.81566  0.00000  0.74702  Biso   1.000  Co
  Co74     1.0000 0.81566  0.50000  0.24702  Biso   1.000  Co
  Co75     1.0000 0.31566  0.00000  0.24702  Biso   1.000  Co
  Co76     1.0000 0.31566  0.50000  0.74702  Biso   1.000  Co
  Co77     1.0000 0.18434  0.00000  0.25298  Biso   1.000  Co
  Co78     1.0000 0.18434  0.50000  0.75298  Biso   1.000  Co
  Co79     1.0000 0.68434  0.00000  0.75298  Biso   1.000  Co
  Co80     1.0000 0.68434  0.50000  0.25298  Biso   1.000  Co
  Co81     1.0000 0.00000  0.25298  0.81566  Biso   1.000  Co
  Co82     1.0000 0.00000  0.75298  0.31566  Biso   1.000  Co
  Co83     1.0000 0.50000  0.25298  0.31566  Biso   1.000  Co
  Co84     1.0000 0.50000  0.75298  0.81566  Biso   1.000  Co
  Co85     1.0000 0.00000  0.74702  0.18434  Biso   1.000  Co
  Co86     1.0000 0.00000  0.24702  0.68434  Biso   1.000  Co
  Co87     1.0000 0.50000  0.74702  0.68434  Biso   1.000  Co
  Co88     1.0000 0.50000  0.24702  0.18434  Biso   1.000  Co
  Co89     1.0000 0.00000  0.25298  0.18434  Biso   1.000  Co
  Co90     1.0000 0.00000  0.75298  0.68434  Biso   1.000  Co
  Co91     1.0000 0.50000  0.25298  0.68434  Biso   1.000  Co
  Co92     1.0000 0.50000  0.75298  0.18434  Biso   1.000  Co
  Co93     1.0000 0.00000  0.74702  0.81566  Biso   1.000  Co
  Co94     1.0000 0.00000  0.24702  0.31566  Biso   1.000  Co
  Co95     1.0000 0.50000  0.74702  0.31566  Biso   1.000  Co
  Co96     1.0000 0.50000  0.24702  0.81566  Biso   1.000  Co
  Cl1      1.0000 0.75000  0.75000  0.50000  Biso   1.000  Cl
  Cl2      1.0000 0.25000  0.25000  0.50000  Biso   1.000  Cl
  Cl3      1.0000 0.25000  0.75000  0.50000  Biso   1.000  Cl
  Cl4      1.0000 0.75000  0.25000  0.50000  Biso   1.000  Cl
  Cl5      1.0000 0.50000  0.75000  0.75000  Biso   1.000  Cl
  Cl6      1.0000 0.50000  0.25000  0.25000  Biso   1.000  Cl
  Cl7      1.0000 0.50000  0.25000  0.75000  Biso   1.000  Cl
  Cl8      1.0000 0.50000  0.75000  0.25000  Biso   1.000  Cl
  Cl9      1.0000 0.75000  0.50000  0.75000  Biso   1.000  Cl
  Cl10     1.0000 0.25000  0.50000  0.25000  Biso   1.000  Cl
  Cl11     1.0000 0.75000  0.50000  0.25000  Biso   1.000  Cl
  Cl12     1.0000 0.25000  0.50000  0.75000  Biso   1.000  Cl
  Cl13     1.0000 0.25000  0.25000  0.00000  Biso   1.000  Cl
  Cl14     1.0000 0.75000  0.75000  0.00000  Biso   1.000  Cl
  Cl15     1.0000 0.25000  0.75000  0.00000  Biso   1.000  Cl
  Cl16     1.0000 0.75000  0.25000  0.00000  Biso   1.000  Cl
  Cl17     1.0000 0.25000  0.00000  0.75000  Biso   1.000  Cl
  Cl18     1.0000 0.75000  0.00000  0.25000  Biso   1.000  Cl
  Cl19     1.0000 0.75000  0.00000  0.75000  Biso   1.000  Cl
  Cl20     1.0000 0.25000  0.00000  0.25000  Biso   1.000  Cl
  Cl21     1.0000 0.00000  0.25000  0.75000  Biso   1.000  Cl
  Cl22     1.0000 0.00000  0.75000  0.25000  Biso   1.000  Cl
  Cl23     1.0000 0.00000  0.25000  0.25000  Biso   1.000  Cl
  Cl24     1.0000 0.00000  0.75000  0.75000  Biso   1.000  Cl
