data_image0
_cell_length_a       37.0668
_cell_length_b       37.0668
_cell_length_c       37.0668
_cell_angle_alpha    90
_cell_angle_beta     90
_cell_angle_gamma    90

_symmetry_space_group_name_H-M    "P 1"
_symmetry_int_tables_number       1

loop_
  _symmetry_equiv_pos_as_xyz
  'x, y, z'

loop_
  _atom_site_label
  _atom_site_occupancy
  _atom_site_fract_x
  _atom_site_fract_y
  _atom_site_fract_z
  _atom_site_thermal_displace_type
  _atom_site_B_iso_or_equiv
  _atom_site_type_symbol
  N1       1.0000 0.28391  0.53665  0.31591  Biso   1.000  N
  N2       1.0000 0.31070  0.53650  0.29175  Biso   1.000  N
  C1       1.0000 0.32027  0.58208  0.32626  Biso   1.000  C
  C2       1.0000 0.33780  0.61453  0.34077  Biso   1.000  C
  C3       1.0000 0.32421  0.63158  0.37132  Biso   1.000  C
  H1       1.0000 0.30330  0.62220  0.38270  Biso   1.000  H
  C4       1.0000 0.33304  0.56378  0.29722  Biso   1.000  C
  C5       1.0000 0.28932  0.56494  0.33743  Biso   1.000  C
  H2       1.0000 0.27440  0.57200  0.35700  Biso   1.000  H
  Co1      1.0000 0.24830  0.57260  0.36408  Biso   1.000  Co
  H3       1.0000 0.35390  0.56950  0.28350  Biso   1.000  H
  N3       1.0000 0.29722  0.66696  0.43622  Biso   1.000  N
  N4       1.0000 0.28391  0.03665  0.81591  Biso   1.000  N
  N5       1.0000 0.31070  0.03650  0.79175  Biso   1.000  N
  C6       1.0000 0.32027  0.08208  0.82626  Biso   1.000  C
  C7       1.0000 0.33780  0.11453  0.84077  Biso   1.000  C
  C8       1.0000 0.32421  0.13158  0.87132  Biso   1.000  C
  H4       1.0000 0.30330  0.12220  0.88270  Biso   1.000  H
  C9       1.0000 0.33304  0.06378  0.79722  Biso   1.000  C
  C10      1.0000 0.28932  0.06494  0.83743  Biso   1.000  C
  H5       1.0000 0.27440  0.07200  0.85700  Biso   1.000  H
  Co2      1.0000 0.24830  0.07260  0.86408  Biso   1.000  Co
  H6       1.0000 0.35390  0.06950  0.78350  Biso   1.000  H
  N6       1.0000 0.29722  0.16696  0.93622  Biso   1.000  N
  N7       1.0000 0.78391  0.53665  0.81591  Biso   1.000  N
  N8       1.0000 0.81070  0.53650  0.79175  Biso   1.000  N
  C11      1.0000 0.82027  0.58208  0.82626  Biso   1.000  C
  C12      1.0000 0.83780  0.61453  0.84077  Biso   1.000  C
  C13      1.0000 0.82421  0.63158  0.87132  Biso   1.000  C
  H7       1.0000 0.80330  0.62220  0.88270  Biso   1.000  H
  C14      1.0000 0.83304  0.56378  0.79722  Biso   1.000  C
  C15      1.0000 0.78932  0.56494  0.83743  Biso   1.000  C
  H8       1.0000 0.77440  0.57200  0.85700  Biso   1.000  H
  Co3      1.0000 0.74830  0.57260  0.86408  Biso   1.000  Co
  H9       1.0000 0.85390  0.56950  0.78350  Biso   1.000  H
  N9       1.0000 0.79722  0.66696  0.93622  Biso   1.000  N
  N10      1.0000 0.78391  0.03665  0.31591  Biso   1.000  N
  N11      1.0000 0.81070  0.03650  0.29175  Biso   1.000  N
  C16      1.0000 0.82027  0.08208  0.32626  Biso   1.000  C
  C17      1.0000 0.83780  0.11453  0.34077  Biso   1.000  C
  C18      1.0000 0.82421  0.13158  0.37132  Biso   1.000  C
  H10      1.0000 0.80330  0.12220  0.38270  Biso   1.000  H
  C19      1.0000 0.83304  0.06378  0.29722  Biso   1.000  C
  C20      1.0000 0.78932  0.06494  0.33743  Biso   1.000  C
  H11      1.0000 0.77440  0.07200  0.35700  Biso   1.000  H
  Co4      1.0000 0.74830  0.07260  0.36408  Biso   1.000  Co
  H12      1.0000 0.85390  0.06950  0.28350  Biso   1.000  H
  N12      1.0000 0.79722  0.16696  0.43622  Biso   1.000  N
  N13      1.0000 0.71609  0.46335  0.31591  Biso   1.000  N
  N14      1.0000 0.68930  0.46350  0.29175  Biso   1.000  N
  C21      1.0000 0.67973  0.41792  0.32626  Biso   1.000  C
  C22      1.0000 0.66220  0.38547  0.34077  Biso   1.000  C
  C23      1.0000 0.67579  0.36842  0.37132  Biso   1.000  C
  H13      1.0000 0.69670  0.37780  0.38270  Biso   1.000  H
  C24      1.0000 0.66696  0.43622  0.29722  Biso   1.000  C
  C25      1.0000 0.71068  0.43506  0.33743  Biso   1.000  C
  H14      1.0000 0.72560  0.42800  0.35700  Biso   1.000  H
  Co5      1.0000 0.75170  0.42740  0.36408  Biso   1.000  Co
  H15      1.0000 0.64610  0.43050  0.28350  Biso   1.000  H
  N15      1.0000 0.70278  0.33304  0.43622  Biso   1.000  N
  N16      1.0000 0.71609  0.96335  0.81591  Biso   1.000  N
  N17      1.0000 0.68930  0.96350  0.79175  Biso   1.000  N
  C26      1.0000 0.67973  0.91792  0.82626  Biso   1.000  C
  C27      1.0000 0.66220  0.88547  0.84077  Biso   1.000  C
  C28      1.0000 0.67579  0.86842  0.87132  Biso   1.000  C
  H16      1.0000 0.69670  0.87780  0.88270  Biso   1.000  H
  C29      1.0000 0.66696  0.93622  0.79722  Biso   1.000  C
  C30      1.0000 0.71068  0.93506  0.83743  Biso   1.000  C
  H17      1.0000 0.72560  0.92800  0.85700  Biso   1.000  H
  Co6      1.0000 0.75170  0.92740  0.86408  Biso   1.000  Co
  H18      1.0000 0.64610  0.93050  0.78350  Biso   1.000  H
  N18      1.0000 0.70278  0.83304  0.93622  Biso   1.000  N
  N19      1.0000 0.21609  0.46335  0.81591  Biso   1.000  N
  N20      1.0000 0.18930  0.46350  0.79175  Biso   1.000  N
  C31      1.0000 0.17973  0.41792  0.82626  Biso   1.000  C
  C32      1.0000 0.16220  0.38547  0.84077  Biso   1.000  C
  C33      1.0000 0.17579  0.36842  0.87132  Biso   1.000  C
  H19      1.0000 0.19670  0.37780  0.88270  Biso   1.000  H
  C34      1.0000 0.16696  0.43622  0.79722  Biso   1.000  C
  C35      1.0000 0.21068  0.43506  0.83743  Biso   1.000  C
  H20      1.0000 0.22560  0.42800  0.85700  Biso   1.000  H
  Co7      1.0000 0.25170  0.42740  0.86408  Biso   1.000  Co
  H21      1.0000 0.14610  0.43050  0.78350  Biso   1.000  H
  N21      1.0000 0.20278  0.33304  0.93622  Biso   1.000  N
  N22      1.0000 0.21609  0.96335  0.31591  Biso   1.000  N
  N23      1.0000 0.18930  0.96350  0.29175  Biso   1.000  N
  C36      1.0000 0.17973  0.91792  0.32626  Biso   1.000  C
  C37      1.0000 0.16220  0.88547  0.34077  Biso   1.000  C
  C38      1.0000 0.17579  0.86842  0.37132  Biso   1.000  C
  H22      1.0000 0.19670  0.87780  0.38270  Biso   1.000  H
  C39      1.0000 0.16696  0.93622  0.29722  Biso   1.000  C
  C40      1.0000 0.21068  0.93506  0.33743  Biso   1.000  C
  H23      1.0000 0.22560  0.92800  0.35700  Biso   1.000  H
  Co8      1.0000 0.25170  0.92740  0.36408  Biso   1.000  Co
  H24      1.0000 0.14610  0.93050  0.28350  Biso   1.000  H
  N24      1.0000 0.20278  0.83304  0.43622  Biso   1.000  N
  N25      1.0000 0.71609  0.53665  0.68409  Biso   1.000  N
  N26      1.0000 0.68930  0.53650  0.70825  Biso   1.000  N
  C41      1.0000 0.67973  0.58208  0.67374  Biso   1.000  C
  C42      1.0000 0.66220  0.61453  0.65923  Biso   1.000  C
  C43      1.0000 0.67579  0.63158  0.62868  Biso   1.000  C
  H25      1.0000 0.69670  0.62220  0.61730  Biso   1.000  H
  C44      1.0000 0.66696  0.56378  0.70278  Biso   1.000  C
  C45      1.0000 0.71068  0.56494  0.66257  Biso   1.000  C
  H26      1.0000 0.72560  0.57200  0.64300  Biso   1.000  H
  Co9      1.0000 0.75170  0.57260  0.63592  Biso   1.000  Co
  H27      1.0000 0.64610  0.56950  0.71650  Biso   1.000  H
  N27      1.0000 0.70278  0.66696  0.56378  Biso   1.000  N
  N28      1.0000 0.71609  0.03665  0.18409  Biso   1.000  N
  N29      1.0000 0.68930  0.03650  0.20825  Biso   1.000  N
  C46      1.0000 0.67973  0.08208  0.17374  Biso   1.000  C
  C47      1.0000 0.66220  0.11453  0.15923  Biso   1.000  C
  C48      1.0000 0.67579  0.13158  0.12868  Biso   1.000  C
  H28      1.0000 0.69670  0.12220  0.11730  Biso   1.000  H
  C49      1.0000 0.66696  0.06378  0.20278  Biso   1.000  C
  C50      1.0000 0.71068  0.06494  0.16257  Biso   1.000  C
  H29      1.0000 0.72560  0.07200  0.14300  Biso   1.000  H
  Co10     1.0000 0.75170  0.07260  0.13592  Biso   1.000  Co
  H30      1.0000 0.64610  0.06950  0.21650  Biso   1.000  H
  N30      1.0000 0.70278  0.16696  0.06378  Biso   1.000  N
  N31      1.0000 0.21609  0.53665  0.18409  Biso   1.000  N
  N32      1.0000 0.18930  0.53650  0.20825  Biso   1.000  N
  C51      1.0000 0.17973  0.58208  0.17374  Biso   1.000  C
  C52      1.0000 0.16220  0.61453  0.15923  Biso   1.000  C
  C53      1.0000 0.17579  0.63158  0.12868  Biso   1.000  C
  H31      1.0000 0.19670  0.62220  0.11730  Biso   1.000  H
  C54      1.0000 0.16696  0.56378  0.20278  Biso   1.000  C
  C55      1.0000 0.21068  0.56494  0.16257  Biso   1.000  C
  H32      1.0000 0.22560  0.57200  0.14300  Biso   1.000  H
  Co11     1.0000 0.25170  0.57260  0.13592  Biso   1.000  Co
  H33      1.0000 0.14610  0.56950  0.21650  Biso   1.000  H
  N33      1.0000 0.20278  0.66696  0.06378  Biso   1.000  N
  N34      1.0000 0.21609  0.03665  0.68409  Biso   1.000  N
  N35      1.0000 0.18930  0.03650  0.70825  Biso   1.000  N
  C56      1.0000 0.17973  0.08208  0.67374  Biso   1.000  C
  C57      1.0000 0.16220  0.11453  0.65923  Biso   1.000  C
  C58      1.0000 0.17579  0.13158  0.62868  Biso   1.000  C
  H34      1.0000 0.19670  0.12220  0.61730  Biso   1.000  H
  C59      1.0000 0.16696  0.06378  0.70278  Biso   1.000  C
  C60      1.0000 0.21068  0.06494  0.66257  Biso   1.000  C
  H35      1.0000 0.22560  0.07200  0.64300  Biso   1.000  H
  Co12     1.0000 0.25170  0.07260  0.63592  Biso   1.000  Co
  H36      1.0000 0.14610  0.06950  0.71650  Biso   1.000  H
  N36      1.0000 0.20278  0.16696  0.56378  Biso   1.000  N
  N37      1.0000 0.28391  0.46335  0.68409  Biso   1.000  N
  N38      1.0000 0.31070  0.46350  0.70825  Biso   1.000  N
  C61      1.0000 0.32027  0.41792  0.67374  Biso   1.000  C
  C62      1.0000 0.33780  0.38547  0.65923  Biso   1.000  C
  C63      1.0000 0.32421  0.36842  0.62868  Biso   1.000  C
  H37      1.0000 0.30330  0.37780  0.61730  Biso   1.000  H
  C64      1.0000 0.33304  0.43622  0.70278  Biso   1.000  C
  C65      1.0000 0.28932  0.43506  0.66257  Biso   1.000  C
  H38      1.0000 0.27440  0.42800  0.64300  Biso   1.000  H
  Co13     1.0000 0.24830  0.42740  0.63592  Biso   1.000  Co
  H39      1.0000 0.35390  0.43050  0.71650  Biso   1.000  H
  N39      1.0000 0.29722  0.33304  0.56378  Biso   1.000  N
  N40      1.0000 0.28391  0.96335  0.18409  Biso   1.000  N
  N41      1.0000 0.31070  0.96350  0.20825  Biso   1.000  N
  C66      1.0000 0.32027  0.91792  0.17374  Biso   1.000  C
  C67      1.0000 0.33780  0.88547  0.15923  Biso   1.000  C
  C68      1.0000 0.32421  0.86842  0.12868  Biso   1.000  C
  H40      1.0000 0.30330  0.87780  0.11730  Biso   1.000  H
  C69      1.0000 0.33304  0.93622  0.20278  Biso   1.000  C
  C70      1.0000 0.28932  0.93506  0.16257  Biso   1.000  C
  H41      1.0000 0.27440  0.92800  0.14300  Biso   1.000  H
  Co14     1.0000 0.24830  0.92740  0.13592  Biso   1.000  Co
  H42      1.0000 0.35390  0.93050  0.21650  Biso   1.000  H
  N42      1.0000 0.29722  0.83304  0.06378  Biso   1.000  N
  N43      1.0000 0.78391  0.46335  0.18409  Biso   1.000  N
  N44      1.0000 0.81070  0.46350  0.20825  Biso   1.000  N
  C71      1.0000 0.82027  0.41792  0.17374  Biso   1.000  C
  C72      1.0000 0.83780  0.38547  0.15923  Biso   1.000  C
  C73      1.0000 0.82421  0.36842  0.12868  Biso   1.000  C
  H43      1.0000 0.80330  0.37780  0.11730  Biso   1.000  H
  C74      1.0000 0.83304  0.43622  0.20278  Biso   1.000  C
  C75      1.0000 0.78932  0.43506  0.16257  Biso   1.000  C
  H44      1.0000 0.77440  0.42800  0.14300  Biso   1.000  H
  Co15     1.0000 0.74830  0.42740  0.13592  Biso   1.000  Co
  H45      1.0000 0.85390  0.43050  0.21650  Biso   1.000  H
  N45      1.0000 0.79722  0.33304  0.06378  Biso   1.000  N
  N46      1.0000 0.78391  0.96335  0.68409  Biso   1.000  N
  N47      1.0000 0.81070  0.96350  0.70825  Biso   1.000  N
  C76      1.0000 0.82027  0.91792  0.67374  Biso   1.000  C
  C77      1.0000 0.83780  0.88547  0.65923  Biso   1.000  C
  C78      1.0000 0.82421  0.86842  0.62868  Biso   1.000  C
  H46      1.0000 0.80330  0.87780  0.61730  Biso   1.000  H
  C79      1.0000 0.83304  0.93622  0.70278  Biso   1.000  C
  C80      1.0000 0.78932  0.93506  0.66257  Biso   1.000  C
  H47      1.0000 0.77440  0.92800  0.64300  Biso   1.000  H
  Co16     1.0000 0.74830  0.92740  0.63592  Biso   1.000  Co
  H48      1.0000 0.85390  0.93050  0.71650  Biso   1.000  H
  N48      1.0000 0.79722  0.83304  0.56378  Biso   1.000  N
  N49      1.0000 0.31591  0.28391  0.53665  Biso   1.000  N
  N50      1.0000 0.29175  0.31070  0.53650  Biso   1.000  N
  C81      1.0000 0.32626  0.32027  0.58208  Biso   1.000  C
  C82      1.0000 0.34077  0.33780  0.61453  Biso   1.000  C
  C83      1.0000 0.37132  0.32421  0.63158  Biso   1.000  C
  H49      1.0000 0.38270  0.30330  0.62220  Biso   1.000  H
  C84      1.0000 0.33743  0.28932  0.56494  Biso   1.000  C
  H50      1.0000 0.35700  0.27440  0.57200  Biso   1.000  H
  Co17     1.0000 0.36408  0.24830  0.57260  Biso   1.000  Co
  H51      1.0000 0.28350  0.35390  0.56950  Biso   1.000  H
  N51      1.0000 0.43622  0.29722  0.66696  Biso   1.000  N
  N52      1.0000 0.31591  0.78391  0.03665  Biso   1.000  N
  N53      1.0000 0.29175  0.81070  0.03650  Biso   1.000  N
  C85      1.0000 0.32626  0.82027  0.08208  Biso   1.000  C
  C86      1.0000 0.34077  0.83780  0.11453  Biso   1.000  C
  C87      1.0000 0.37132  0.82421  0.13158  Biso   1.000  C
  H52      1.0000 0.38270  0.80330  0.12220  Biso   1.000  H
  C88      1.0000 0.33743  0.78932  0.06494  Biso   1.000  C
  H53      1.0000 0.35700  0.77440  0.07200  Biso   1.000  H
  Co18     1.0000 0.36408  0.74830  0.07260  Biso   1.000  Co
  H54      1.0000 0.28350  0.85390  0.06950  Biso   1.000  H
  N54      1.0000 0.43622  0.79722  0.16696  Biso   1.000  N
  N55      1.0000 0.81591  0.28391  0.03665  Biso   1.000  N
  N56      1.0000 0.79175  0.31070  0.03650  Biso   1.000  N
  C89      1.0000 0.82626  0.32027  0.08208  Biso   1.000  C
  C90      1.0000 0.84077  0.33780  0.11453  Biso   1.000  C
  C91      1.0000 0.87132  0.32421  0.13158  Biso   1.000  C
  H55      1.0000 0.88270  0.30330  0.12220  Biso   1.000  H
  C92      1.0000 0.83743  0.28932  0.06494  Biso   1.000  C
  H56      1.0000 0.85700  0.27440  0.07200  Biso   1.000  H
  Co19     1.0000 0.86408  0.24830  0.07260  Biso   1.000  Co
  H57      1.0000 0.78350  0.35390  0.06950  Biso   1.000  H
  N57      1.0000 0.93622  0.29722  0.16696  Biso   1.000  N
  N58      1.0000 0.81591  0.78391  0.53665  Biso   1.000  N
  N59      1.0000 0.79175  0.81070  0.53650  Biso   1.000  N
  C93      1.0000 0.82626  0.82027  0.58208  Biso   1.000  C
  C94      1.0000 0.84077  0.83780  0.61453  Biso   1.000  C
  C95      1.0000 0.87132  0.82421  0.63158  Biso   1.000  C
  H58      1.0000 0.88270  0.80330  0.62220  Biso   1.000  H
  C96      1.0000 0.83743  0.78932  0.56494  Biso   1.000  C
  H59      1.0000 0.85700  0.77440  0.57200  Biso   1.000  H
  Co20     1.0000 0.86408  0.74830  0.57260  Biso   1.000  Co
  H60      1.0000 0.78350  0.85390  0.56950  Biso   1.000  H
  N60      1.0000 0.93622  0.79722  0.66696  Biso   1.000  N
  N61      1.0000 0.31591  0.71609  0.46335  Biso   1.000  N
  N62      1.0000 0.29175  0.68930  0.46350  Biso   1.000  N
  C97      1.0000 0.32626  0.67973  0.41792  Biso   1.000  C
  C98      1.0000 0.34077  0.66220  0.38547  Biso   1.000  C
  C99      1.0000 0.37132  0.67579  0.36842  Biso   1.000  C
  H61      1.0000 0.38270  0.69670  0.37780  Biso   1.000  H
  C100     1.0000 0.33743  0.71068  0.43506  Biso   1.000  C
  H62      1.0000 0.35700  0.72560  0.42800  Biso   1.000  H
  Co21     1.0000 0.36408  0.75170  0.42740  Biso   1.000  Co
  H63      1.0000 0.28350  0.64610  0.43050  Biso   1.000  H
  N63      1.0000 0.43622  0.70278  0.33304  Biso   1.000  N
  N64      1.0000 0.31591  0.21609  0.96335  Biso   1.000  N
  N65      1.0000 0.29175  0.18930  0.96350  Biso   1.000  N
  C101     1.0000 0.32626  0.17973  0.91792  Biso   1.000  C
  C102     1.0000 0.34077  0.16220  0.88547  Biso   1.000  C
  C103     1.0000 0.37132  0.17579  0.86842  Biso   1.000  C
  H64      1.0000 0.38270  0.19670  0.87780  Biso   1.000  H
  C104     1.0000 0.33743  0.21068  0.93506  Biso   1.000  C
  H65      1.0000 0.35700  0.22560  0.92800  Biso   1.000  H
  Co22     1.0000 0.36408  0.25170  0.92740  Biso   1.000  Co
  H66      1.0000 0.28350  0.14610  0.93050  Biso   1.000  H
  N66      1.0000 0.43622  0.20278  0.83304  Biso   1.000  N
  N67      1.0000 0.81591  0.71609  0.96335  Biso   1.000  N
  N68      1.0000 0.79175  0.68930  0.96350  Biso   1.000  N
  C105     1.0000 0.82626  0.67973  0.91792  Biso   1.000  C
  C106     1.0000 0.84077  0.66220  0.88547  Biso   1.000  C
  C107     1.0000 0.87132  0.67579  0.86842  Biso   1.000  C
  H67      1.0000 0.88270  0.69670  0.87780  Biso   1.000  H
  C108     1.0000 0.83743  0.71068  0.93506  Biso   1.000  C
  H68      1.0000 0.85700  0.72560  0.92800  Biso   1.000  H
  Co23     1.0000 0.86408  0.75170  0.92740  Biso   1.000  Co
  H69      1.0000 0.78350  0.64610  0.93050  Biso   1.000  H
  N69      1.0000 0.93622  0.70278  0.83304  Biso   1.000  N
  N70      1.0000 0.81591  0.21609  0.46335  Biso   1.000  N
  N71      1.0000 0.79175  0.18930  0.46350  Biso   1.000  N
  C109     1.0000 0.82626  0.17973  0.41792  Biso   1.000  C
  C110     1.0000 0.84077  0.16220  0.38547  Biso   1.000  C
  C111     1.0000 0.87132  0.17579  0.36842  Biso   1.000  C
  H70      1.0000 0.88270  0.19670  0.37780  Biso   1.000  H
  C112     1.0000 0.83743  0.21068  0.43506  Biso   1.000  C
  H71      1.0000 0.85700  0.22560  0.42800  Biso   1.000  H
  Co24     1.0000 0.86408  0.25170  0.42740  Biso   1.000  Co
  H72      1.0000 0.78350  0.14610  0.43050  Biso   1.000  H
  N72      1.0000 0.93622  0.20278  0.33304  Biso   1.000  N
  N73      1.0000 0.68409  0.71609  0.53665  Biso   1.000  N
  N74      1.0000 0.70825  0.68930  0.53650  Biso   1.000  N
  C113     1.0000 0.67374  0.67973  0.58208  Biso   1.000  C
  C114     1.0000 0.65923  0.66220  0.61453  Biso   1.000  C
  C115     1.0000 0.62868  0.67579  0.63158  Biso   1.000  C
  H73      1.0000 0.61730  0.69670  0.62220  Biso   1.000  H
  C116     1.0000 0.66257  0.71068  0.56494  Biso   1.000  C
  H74      1.0000 0.64300  0.72560  0.57200  Biso   1.000  H
  Co25     1.0000 0.63592  0.75170  0.57260  Biso   1.000  Co
  H75      1.0000 0.71650  0.64610  0.56950  Biso   1.000  H
  N75      1.0000 0.56378  0.70278  0.66696  Biso   1.000  N
  N76      1.0000 0.68409  0.21609  0.03665  Biso   1.000  N
  N77      1.0000 0.70825  0.18930  0.03650  Biso   1.000  N
  C117     1.0000 0.67374  0.17973  0.08208  Biso   1.000  C
  C118     1.0000 0.65923  0.16220  0.11453  Biso   1.000  C
  C119     1.0000 0.62868  0.17579  0.13158  Biso   1.000  C
  H76      1.0000 0.61730  0.19670  0.12220  Biso   1.000  H
  C120     1.0000 0.66257  0.21068  0.06494  Biso   1.000  C
  H77      1.0000 0.64300  0.22560  0.07200  Biso   1.000  H
  Co26     1.0000 0.63592  0.25170  0.07260  Biso   1.000  Co
  H78      1.0000 0.71650  0.14610  0.06950  Biso   1.000  H
  N78      1.0000 0.56378  0.20278  0.16696  Biso   1.000  N
  N79      1.0000 0.18409  0.71609  0.03665  Biso   1.000  N
  N80      1.0000 0.20825  0.68930  0.03650  Biso   1.000  N
  C121     1.0000 0.17374  0.67973  0.08208  Biso   1.000  C
  C122     1.0000 0.15923  0.66220  0.11453  Biso   1.000  C
  C123     1.0000 0.12868  0.67579  0.13158  Biso   1.000  C
  H79      1.0000 0.11730  0.69670  0.12220  Biso   1.000  H
  C124     1.0000 0.16257  0.71068  0.06494  Biso   1.000  C
  H80      1.0000 0.14300  0.72560  0.07200  Biso   1.000  H
  Co27     1.0000 0.13592  0.75170  0.07260  Biso   1.000  Co
  H81      1.0000 0.21650  0.64610  0.06950  Biso   1.000  H
  N81      1.0000 0.06378  0.70278  0.16696  Biso   1.000  N
  N82      1.0000 0.18409  0.21609  0.53665  Biso   1.000  N
  N83      1.0000 0.20825  0.18930  0.53650  Biso   1.000  N
  C125     1.0000 0.17374  0.17973  0.58208  Biso   1.000  C
  C126     1.0000 0.15923  0.16220  0.61453  Biso   1.000  C
  C127     1.0000 0.12868  0.17579  0.63158  Biso   1.000  C
  H82      1.0000 0.11730  0.19670  0.62220  Biso   1.000  H
  C128     1.0000 0.16257  0.21068  0.56494  Biso   1.000  C
  H83      1.0000 0.14300  0.22560  0.57200  Biso   1.000  H
  Co28     1.0000 0.13592  0.25170  0.57260  Biso   1.000  Co
  H84      1.0000 0.21650  0.14610  0.56950  Biso   1.000  H
  N84      1.0000 0.06378  0.20278  0.66696  Biso   1.000  N
  N85      1.0000 0.68409  0.28391  0.46335  Biso   1.000  N
  N86      1.0000 0.70825  0.31070  0.46350  Biso   1.000  N
  C129     1.0000 0.67374  0.32027  0.41792  Biso   1.000  C
  C130     1.0000 0.65923  0.33780  0.38547  Biso   1.000  C
  C131     1.0000 0.62868  0.32421  0.36842  Biso   1.000  C
  H85      1.0000 0.61730  0.30330  0.37780  Biso   1.000  H
  C132     1.0000 0.66257  0.28932  0.43506  Biso   1.000  C
  H86      1.0000 0.64300  0.27440  0.42800  Biso   1.000  H
  Co29     1.0000 0.63592  0.24830  0.42740  Biso   1.000  Co
  H87      1.0000 0.71650  0.35390  0.43050  Biso   1.000  H
  N87      1.0000 0.56378  0.29722  0.33304  Biso   1.000  N
  N88      1.0000 0.68409  0.78391  0.96335  Biso   1.000  N
  N89      1.0000 0.70825  0.81070  0.96350  Biso   1.000  N
  C133     1.0000 0.67374  0.82027  0.91792  Biso   1.000  C
  C134     1.0000 0.65923  0.83780  0.88547  Biso   1.000  C
  C135     1.0000 0.62868  0.82421  0.86842  Biso   1.000  C
  H88      1.0000 0.61730  0.80330  0.87780  Biso   1.000  H
  C136     1.0000 0.66257  0.78932  0.93506  Biso   1.000  C
  H89      1.0000 0.64300  0.77440  0.92800  Biso   1.000  H
  Co30     1.0000 0.63592  0.74830  0.92740  Biso   1.000  Co
  H90      1.0000 0.71650  0.85390  0.93050  Biso   1.000  H
  N90      1.0000 0.56378  0.79722  0.83304  Biso   1.000  N
  N91      1.0000 0.18409  0.28391  0.96335  Biso   1.000  N
  N92      1.0000 0.20825  0.31070  0.96350  Biso   1.000  N
  C137     1.0000 0.17374  0.32027  0.91792  Biso   1.000  C
  C138     1.0000 0.15923  0.33780  0.88547  Biso   1.000  C
  C139     1.0000 0.12868  0.32421  0.86842  Biso   1.000  C
  H91      1.0000 0.11730  0.30330  0.87780  Biso   1.000  H
  C140     1.0000 0.16257  0.28932  0.93506  Biso   1.000  C
  H92      1.0000 0.14300  0.27440  0.92800  Biso   1.000  H
  Co31     1.0000 0.13592  0.24830  0.92740  Biso   1.000  Co
  H93      1.0000 0.21650  0.35390  0.93050  Biso   1.000  H
  N93      1.0000 0.06378  0.29722  0.83304  Biso   1.000  N
  N94      1.0000 0.18409  0.78391  0.46335  Biso   1.000  N
  N95      1.0000 0.20825  0.81070  0.46350  Biso   1.000  N
  C141     1.0000 0.17374  0.82027  0.41792  Biso   1.000  C
  C142     1.0000 0.15923  0.83780  0.38547  Biso   1.000  C
  C143     1.0000 0.12868  0.82421  0.36842  Biso   1.000  C
  H94      1.0000 0.11730  0.80330  0.37780  Biso   1.000  H
  C144     1.0000 0.16257  0.78932  0.43506  Biso   1.000  C
  H95      1.0000 0.14300  0.77440  0.42800  Biso   1.000  H
  Co32     1.0000 0.13592  0.74830  0.42740  Biso   1.000  Co
  H96      1.0000 0.21650  0.85390  0.43050  Biso   1.000  H
  N96      1.0000 0.06378  0.79722  0.33304  Biso   1.000  N
  N97      1.0000 0.53665  0.31591  0.28391  Biso   1.000  N
  N98      1.0000 0.53650  0.29175  0.31070  Biso   1.000  N
  C145     1.0000 0.58208  0.32626  0.32027  Biso   1.000  C
  C146     1.0000 0.61453  0.34077  0.33780  Biso   1.000  C
  C147     1.0000 0.63158  0.37132  0.32421  Biso   1.000  C
  H97      1.0000 0.62220  0.38270  0.30330  Biso   1.000  H
  C148     1.0000 0.56494  0.33743  0.28932  Biso   1.000  C
  H98      1.0000 0.57200  0.35700  0.27440  Biso   1.000  H
  Co33     1.0000 0.57260  0.36408  0.24830  Biso   1.000  Co
  H99      1.0000 0.56950  0.28350  0.35390  Biso   1.000  H
  N99      1.0000 0.53665  0.81591  0.78391  Biso   1.000  N
  N100     1.0000 0.53650  0.79175  0.81070  Biso   1.000  N
  C149     1.0000 0.58208  0.82626  0.82027  Biso   1.000  C
  C150     1.0000 0.61453  0.84077  0.83780  Biso   1.000  C
  C151     1.0000 0.63158  0.87132  0.82421  Biso   1.000  C
  H100     1.0000 0.62220  0.88270  0.80330  Biso   1.000  H
  C152     1.0000 0.56494  0.83743  0.78932  Biso   1.000  C
  H101     1.0000 0.57200  0.85700  0.77440  Biso   1.000  H
  Co34     1.0000 0.57260  0.86408  0.74830  Biso   1.000  Co
  H102     1.0000 0.56950  0.78350  0.85390  Biso   1.000  H
  N101     1.0000 0.03665  0.31591  0.78391  Biso   1.000  N
  N102     1.0000 0.03650  0.29175  0.81070  Biso   1.000  N
  C153     1.0000 0.08208  0.32626  0.82027  Biso   1.000  C
  C154     1.0000 0.11453  0.34077  0.83780  Biso   1.000  C
  C155     1.0000 0.13158  0.37132  0.82421  Biso   1.000  C
  H103     1.0000 0.12220  0.38270  0.80330  Biso   1.000  H
  C156     1.0000 0.06494  0.33743  0.78932  Biso   1.000  C
  H104     1.0000 0.07200  0.35700  0.77440  Biso   1.000  H
  Co35     1.0000 0.07260  0.36408  0.74830  Biso   1.000  Co
  H105     1.0000 0.06950  0.28350  0.85390  Biso   1.000  H
  N103     1.0000 0.03665  0.81591  0.28391  Biso   1.000  N
  N104     1.0000 0.03650  0.79175  0.31070  Biso   1.000  N
  C157     1.0000 0.08208  0.82626  0.32027  Biso   1.000  C
  C158     1.0000 0.11453  0.84077  0.33780  Biso   1.000  C
  C159     1.0000 0.13158  0.87132  0.32421  Biso   1.000  C
  H106     1.0000 0.12220  0.88270  0.30330  Biso   1.000  H
  C160     1.0000 0.06494  0.83743  0.28932  Biso   1.000  C
  H107     1.0000 0.07200  0.85700  0.27440  Biso   1.000  H
  Co36     1.0000 0.07260  0.86408  0.24830  Biso   1.000  Co
  H108     1.0000 0.06950  0.78350  0.35390  Biso   1.000  H
  N105     1.0000 0.46335  0.31591  0.71609  Biso   1.000  N
  N106     1.0000 0.46350  0.29175  0.68930  Biso   1.000  N
  C161     1.0000 0.41792  0.32626  0.67973  Biso   1.000  C
  C162     1.0000 0.38547  0.34077  0.66220  Biso   1.000  C
  C163     1.0000 0.36842  0.37132  0.67579  Biso   1.000  C
  H109     1.0000 0.37780  0.38270  0.69670  Biso   1.000  H
  C164     1.0000 0.43506  0.33743  0.71068  Biso   1.000  C
  H110     1.0000 0.42800  0.35700  0.72560  Biso   1.000  H
  Co37     1.0000 0.42740  0.36408  0.75170  Biso   1.000  Co
  H111     1.0000 0.43050  0.28350  0.64610  Biso   1.000  H
  N107     1.0000 0.46335  0.81591  0.21609  Biso   1.000  N
  N108     1.0000 0.46350  0.79175  0.18930  Biso   1.000  N
  C165     1.0000 0.41792  0.82626  0.17973  Biso   1.000  C
  C166     1.0000 0.38547  0.84077  0.16220  Biso   1.000  C
  C167     1.0000 0.36842  0.87132  0.17579  Biso   1.000  C
  H112     1.0000 0.37780  0.88270  0.19670  Biso   1.000  H
  C168     1.0000 0.43506  0.83743  0.21068  Biso   1.000  C
  H113     1.0000 0.42800  0.85700  0.22560  Biso   1.000  H
  Co38     1.0000 0.42740  0.86408  0.25170  Biso   1.000  Co
  H114     1.0000 0.43050  0.78350  0.14610  Biso   1.000  H
  N109     1.0000 0.96335  0.31591  0.21609  Biso   1.000  N
  N110     1.0000 0.96350  0.29175  0.18930  Biso   1.000  N
  C169     1.0000 0.91792  0.32626  0.17973  Biso   1.000  C
  C170     1.0000 0.88547  0.34077  0.16220  Biso   1.000  C
  C171     1.0000 0.86842  0.37132  0.17579  Biso   1.000  C
  H115     1.0000 0.87780  0.38270  0.19670  Biso   1.000  H
  C172     1.0000 0.93506  0.33743  0.21068  Biso   1.000  C
  H116     1.0000 0.92800  0.35700  0.22560  Biso   1.000  H
  Co39     1.0000 0.92740  0.36408  0.25170  Biso   1.000  Co
  H117     1.0000 0.93050  0.28350  0.14610  Biso   1.000  H
  N111     1.0000 0.96335  0.81591  0.71609  Biso   1.000  N
  N112     1.0000 0.96350  0.79175  0.68930  Biso   1.000  N
  C173     1.0000 0.91792  0.82626  0.67973  Biso   1.000  C
  C174     1.0000 0.88547  0.84077  0.66220  Biso   1.000  C
  C175     1.0000 0.86842  0.87132  0.67579  Biso   1.000  C
  H118     1.0000 0.87780  0.88270  0.69670  Biso   1.000  H
  C176     1.0000 0.93506  0.83743  0.71068  Biso   1.000  C
  H119     1.0000 0.92800  0.85700  0.72560  Biso   1.000  H
  Co40     1.0000 0.92740  0.86408  0.75170  Biso   1.000  Co
  H120     1.0000 0.93050  0.78350  0.64610  Biso   1.000  H
  N113     1.0000 0.53665  0.68409  0.71609  Biso   1.000  N
  N114     1.0000 0.53650  0.70825  0.68930  Biso   1.000  N
  C177     1.0000 0.58208  0.67374  0.67973  Biso   1.000  C
  C178     1.0000 0.61453  0.65923  0.66220  Biso   1.000  C
  C179     1.0000 0.63158  0.62868  0.67579  Biso   1.000  C
  H121     1.0000 0.62220  0.61730  0.69670  Biso   1.000  H
  C180     1.0000 0.56494  0.66257  0.71068  Biso   1.000  C
  H122     1.0000 0.57200  0.64300  0.72560  Biso   1.000  H
  Co41     1.0000 0.57260  0.63592  0.75170  Biso   1.000  Co
  H123     1.0000 0.56950  0.71650  0.64610  Biso   1.000  H
  N115     1.0000 0.53665  0.18409  0.21609  Biso   1.000  N
  N116     1.0000 0.53650  0.20825  0.18930  Biso   1.000  N
  C181     1.0000 0.58208  0.17374  0.17973  Biso   1.000  C
  C182     1.0000 0.61453  0.15923  0.16220  Biso   1.000  C
  C183     1.0000 0.63158  0.12868  0.17579  Biso   1.000  C
  H124     1.0000 0.62220  0.11730  0.19670  Biso   1.000  H
  C184     1.0000 0.56494  0.16257  0.21068  Biso   1.000  C
  H125     1.0000 0.57200  0.14300  0.22560  Biso   1.000  H
  Co42     1.0000 0.57260  0.13592  0.25170  Biso   1.000  Co
  H126     1.0000 0.56950  0.21650  0.14610  Biso   1.000  H
  N117     1.0000 0.03665  0.68409  0.21609  Biso   1.000  N
  N118     1.0000 0.03650  0.70825  0.18930  Biso   1.000  N
  C185     1.0000 0.08208  0.67374  0.17973  Biso   1.000  C
  C186     1.0000 0.11453  0.65923  0.16220  Biso   1.000  C
  C187     1.0000 0.13158  0.62868  0.17579  Biso   1.000  C
  H127     1.0000 0.12220  0.61730  0.19670  Biso   1.000  H
  C188     1.0000 0.06494  0.66257  0.21068  Biso   1.000  C
  H128     1.0000 0.07200  0.64300  0.22560  Biso   1.000  H
  Co43     1.0000 0.07260  0.63592  0.25170  Biso   1.000  Co
  H129     1.0000 0.06950  0.71650  0.14610  Biso   1.000  H
  N119     1.0000 0.03665  0.18409  0.71609  Biso   1.000  N
  N120     1.0000 0.03650  0.20825  0.68930  Biso   1.000  N
  C189     1.0000 0.08208  0.17374  0.67973  Biso   1.000  C
  C190     1.0000 0.11453  0.15923  0.66220  Biso   1.000  C
  C191     1.0000 0.13158  0.12868  0.67579  Biso   1.000  C
  H130     1.0000 0.12220  0.11730  0.69670  Biso   1.000  H
  C192     1.0000 0.06494  0.16257  0.71068  Biso   1.000  C
  H131     1.0000 0.07200  0.14300  0.72560  Biso   1.000  H
  Co44     1.0000 0.07260  0.13592  0.75170  Biso   1.000  Co
  H132     1.0000 0.06950  0.21650  0.64610  Biso   1.000  H
  N121     1.0000 0.46335  0.68409  0.28391  Biso   1.000  N
  N122     1.0000 0.46350  0.70825  0.31070  Biso   1.000  N
  C193     1.0000 0.41792  0.67374  0.32027  Biso   1.000  C
  C194     1.0000 0.38547  0.65923  0.33780  Biso   1.000  C
  C195     1.0000 0.36842  0.62868  0.32421  Biso   1.000  C
  H133     1.0000 0.37780  0.61730  0.30330  Biso   1.000  H
  C196     1.0000 0.43506  0.66257  0.28932  Biso   1.000  C
  H134     1.0000 0.42800  0.64300  0.27440  Biso   1.000  H
  Co45     1.0000 0.42740  0.63592  0.24830  Biso   1.000  Co
  H135     1.0000 0.43050  0.71650  0.35390  Biso   1.000  H
  N123     1.0000 0.46335  0.18409  0.78391  Biso   1.000  N
  N124     1.0000 0.46350  0.20825  0.81070  Biso   1.000  N
  C197     1.0000 0.41792  0.17374  0.82027  Biso   1.000  C
  C198     1.0000 0.38547  0.15923  0.83780  Biso   1.000  C
  C199     1.0000 0.36842  0.12868  0.82421  Biso   1.000  C
  H136     1.0000 0.37780  0.11730  0.80330  Biso   1.000  H
  C200     1.0000 0.43506  0.16257  0.78932  Biso   1.000  C
  H137     1.0000 0.42800  0.14300  0.77440  Biso   1.000  H
  Co46     1.0000 0.42740  0.13592  0.74830  Biso   1.000  Co
  H138     1.0000 0.43050  0.21650  0.85390  Biso   1.000  H
  N125     1.0000 0.96335  0.68409  0.78391  Biso   1.000  N
  N126     1.0000 0.96350  0.70825  0.81070  Biso   1.000  N
  C201     1.0000 0.91792  0.67374  0.82027  Biso   1.000  C
  C202     1.0000 0.88547  0.65923  0.83780  Biso   1.000  C
  C203     1.0000 0.86842  0.62868  0.82421  Biso   1.000  C
  H139     1.0000 0.87780  0.61730  0.80330  Biso   1.000  H
  C204     1.0000 0.93506  0.66257  0.78932  Biso   1.000  C
  H140     1.0000 0.92800  0.64300  0.77440  Biso   1.000  H
  Co47     1.0000 0.92740  0.63592  0.74830  Biso   1.000  Co
  H141     1.0000 0.93050  0.71650  0.85390  Biso   1.000  H
  N127     1.0000 0.96335  0.18409  0.28391  Biso   1.000  N
  N128     1.0000 0.96350  0.20825  0.31070  Biso   1.000  N
  C205     1.0000 0.91792  0.17374  0.32027  Biso   1.000  C
  C206     1.0000 0.88547  0.15923  0.33780  Biso   1.000  C
  C207     1.0000 0.86842  0.12868  0.32421  Biso   1.000  C
  H142     1.0000 0.87780  0.11730  0.30330  Biso   1.000  H
  C208     1.0000 0.93506  0.16257  0.28932  Biso   1.000  C
  H143     1.0000 0.92800  0.14300  0.27440  Biso   1.000  H
  Co48     1.0000 0.92740  0.13592  0.24830  Biso   1.000  Co
  H144     1.0000 0.93050  0.21650  0.35390  Biso   1.000  H
  N129     1.0000 0.03665  0.78391  0.18409  Biso   1.000  N
  N130     1.0000 0.03650  0.81070  0.20825  Biso   1.000  N
  C209     1.0000 0.08208  0.82027  0.17374  Biso   1.000  C
  C210     1.0000 0.11453  0.83780  0.15923  Biso   1.000  C
  C211     1.0000 0.13158  0.82421  0.12868  Biso   1.000  C
  H145     1.0000 0.12220  0.80330  0.11730  Biso   1.000  H
  C212     1.0000 0.06378  0.83304  0.20278  Biso   1.000  C
  C213     1.0000 0.06494  0.78932  0.16257  Biso   1.000  C
  H146     1.0000 0.07200  0.77440  0.14300  Biso   1.000  H
  Co49     1.0000 0.07260  0.74830  0.13592  Biso   1.000  Co
  H147     1.0000 0.06950  0.85390  0.21650  Biso   1.000  H
  N131     1.0000 0.16696  0.79722  0.06378  Biso   1.000  N
  N132     1.0000 0.03665  0.28391  0.68409  Biso   1.000  N
  N133     1.0000 0.03650  0.31070  0.70825  Biso   1.000  N
  C214     1.0000 0.08208  0.32027  0.67374  Biso   1.000  C
  C215     1.0000 0.11453  0.33780  0.65923  Biso   1.000  C
  C216     1.0000 0.13158  0.32421  0.62868  Biso   1.000  C
  H148     1.0000 0.12220  0.30330  0.61730  Biso   1.000  H
  C217     1.0000 0.06378  0.33304  0.70278  Biso   1.000  C
  C218     1.0000 0.06494  0.28932  0.66257  Biso   1.000  C
  H149     1.0000 0.07200  0.27440  0.64300  Biso   1.000  H
  Co50     1.0000 0.07260  0.24830  0.63592  Biso   1.000  Co
  H150     1.0000 0.06950  0.35390  0.71650  Biso   1.000  H
  N134     1.0000 0.16696  0.29722  0.56378  Biso   1.000  N
  N135     1.0000 0.53665  0.78391  0.68409  Biso   1.000  N
  N136     1.0000 0.53650  0.81070  0.70825  Biso   1.000  N
  C219     1.0000 0.58208  0.82027  0.67374  Biso   1.000  C
  C220     1.0000 0.61453  0.83780  0.65923  Biso   1.000  C
  C221     1.0000 0.63158  0.82421  0.62868  Biso   1.000  C
  H151     1.0000 0.62220  0.80330  0.61730  Biso   1.000  H
  C222     1.0000 0.56378  0.83304  0.70278  Biso   1.000  C
  C223     1.0000 0.56494  0.78932  0.66257  Biso   1.000  C
  H152     1.0000 0.57200  0.77440  0.64300  Biso   1.000  H
  Co51     1.0000 0.57260  0.74830  0.63592  Biso   1.000  Co
  H153     1.0000 0.56950  0.85390  0.71650  Biso   1.000  H
  N137     1.0000 0.66696  0.79722  0.56378  Biso   1.000  N
  N138     1.0000 0.53665  0.28391  0.18409  Biso   1.000  N
  N139     1.0000 0.53650  0.31070  0.20825  Biso   1.000  N
  C224     1.0000 0.58208  0.32027  0.17374  Biso   1.000  C
  C225     1.0000 0.61453  0.33780  0.15923  Biso   1.000  C
  C226     1.0000 0.63158  0.32421  0.12868  Biso   1.000  C
  H154     1.0000 0.62220  0.30330  0.11730  Biso   1.000  H
  C227     1.0000 0.56378  0.33304  0.20278  Biso   1.000  C
  C228     1.0000 0.56494  0.28932  0.16257  Biso   1.000  C
  H155     1.0000 0.57200  0.27440  0.14300  Biso   1.000  H
  Co52     1.0000 0.57260  0.24830  0.13592  Biso   1.000  Co
  H156     1.0000 0.56950  0.35390  0.21650  Biso   1.000  H
  N140     1.0000 0.66696  0.29722  0.06378  Biso   1.000  N
  N141     1.0000 0.96335  0.21609  0.18409  Biso   1.000  N
  N142     1.0000 0.96350  0.18930  0.20825  Biso   1.000  N
  C229     1.0000 0.91792  0.17973  0.17374  Biso   1.000  C
  C230     1.0000 0.88547  0.16220  0.15923  Biso   1.000  C
  C231     1.0000 0.86842  0.17579  0.12868  Biso   1.000  C
  H157     1.0000 0.87780  0.19670  0.11730  Biso   1.000  H
  C232     1.0000 0.93622  0.16696  0.20278  Biso   1.000  C
  C233     1.0000 0.93506  0.21068  0.16257  Biso   1.000  C
  H158     1.0000 0.92800  0.22560  0.14300  Biso   1.000  H
  Co53     1.0000 0.92740  0.25170  0.13592  Biso   1.000  Co
  H159     1.0000 0.93050  0.14610  0.21650  Biso   1.000  H
  N143     1.0000 0.83304  0.20278  0.06378  Biso   1.000  N
  N144     1.0000 0.96335  0.71609  0.68409  Biso   1.000  N
  N145     1.0000 0.96350  0.68930  0.70825  Biso   1.000  N
  C234     1.0000 0.91792  0.67973  0.67374  Biso   1.000  C
  C235     1.0000 0.88547  0.66220  0.65923  Biso   1.000  C
  C236     1.0000 0.86842  0.67579  0.62868  Biso   1.000  C
  H160     1.0000 0.87780  0.69670  0.61730  Biso   1.000  H
  C237     1.0000 0.93622  0.66696  0.70278  Biso   1.000  C
  C238     1.0000 0.93506  0.71068  0.66257  Biso   1.000  C
  H161     1.0000 0.92800  0.72560  0.64300  Biso   1.000  H
  Co54     1.0000 0.92740  0.75170  0.63592  Biso   1.000  Co
  H162     1.0000 0.93050  0.64610  0.71650  Biso   1.000  H
  N146     1.0000 0.83304  0.70278  0.56378  Biso   1.000  N
  N147     1.0000 0.46335  0.21609  0.68409  Biso   1.000  N
  N148     1.0000 0.46350  0.18930  0.70825  Biso   1.000  N
  C239     1.0000 0.41792  0.17973  0.67374  Biso   1.000  C
  C240     1.0000 0.38547  0.16220  0.65923  Biso   1.000  C
  C241     1.0000 0.36842  0.17579  0.62868  Biso   1.000  C
  H163     1.0000 0.37780  0.19670  0.61730  Biso   1.000  H
  C242     1.0000 0.43622  0.16696  0.70278  Biso   1.000  C
  C243     1.0000 0.43506  0.21068  0.66257  Biso   1.000  C
  H164     1.0000 0.42800  0.22560  0.64300  Biso   1.000  H
  Co55     1.0000 0.42740  0.25170  0.63592  Biso   1.000  Co
  H165     1.0000 0.43050  0.14610  0.71650  Biso   1.000  H
  N149     1.0000 0.33304  0.20278  0.56378  Biso   1.000  N
  N150     1.0000 0.46335  0.71609  0.18409  Biso   1.000  N
  N151     1.0000 0.46350  0.68930  0.20825  Biso   1.000  N
  C244     1.0000 0.41792  0.67973  0.17374  Biso   1.000  C
  C245     1.0000 0.38547  0.66220  0.15923  Biso   1.000  C
  C246     1.0000 0.36842  0.67579  0.12868  Biso   1.000  C
  H166     1.0000 0.37780  0.69670  0.11730  Biso   1.000  H
  C247     1.0000 0.43622  0.66696  0.20278  Biso   1.000  C
  C248     1.0000 0.43506  0.71068  0.16257  Biso   1.000  C
  H167     1.0000 0.42800  0.72560  0.14300  Biso   1.000  H
  Co56     1.0000 0.42740  0.75170  0.13592  Biso   1.000  Co
  H168     1.0000 0.43050  0.64610  0.21650  Biso   1.000  H
  N152     1.0000 0.33304  0.70278  0.06378  Biso   1.000  N
  N153     1.0000 0.03665  0.21609  0.81591  Biso   1.000  N
  N154     1.0000 0.03650  0.18930  0.79175  Biso   1.000  N
  C249     1.0000 0.08208  0.17973  0.82626  Biso   1.000  C
  C250     1.0000 0.11453  0.16220  0.84077  Biso   1.000  C
  C251     1.0000 0.13158  0.17579  0.87132  Biso   1.000  C
  H169     1.0000 0.12220  0.19670  0.88270  Biso   1.000  H
  C252     1.0000 0.06378  0.16696  0.79722  Biso   1.000  C
  C253     1.0000 0.06494  0.21068  0.83743  Biso   1.000  C
  H170     1.0000 0.07200  0.22560  0.85700  Biso   1.000  H
  Co57     1.0000 0.07260  0.25170  0.86408  Biso   1.000  Co
  H171     1.0000 0.06950  0.14610  0.78350  Biso   1.000  H
  N155     1.0000 0.16696  0.20278  0.93622  Biso   1.000  N
  N156     1.0000 0.03665  0.71609  0.31591  Biso   1.000  N
  N157     1.0000 0.03650  0.68930  0.29175  Biso   1.000  N
  C254     1.0000 0.08208  0.67973  0.32626  Biso   1.000  C
  C255     1.0000 0.11453  0.66220  0.34077  Biso   1.000  C
  C256     1.0000 0.13158  0.67579  0.37132  Biso   1.000  C
  H172     1.0000 0.12220  0.69670  0.38270  Biso   1.000  H
  C257     1.0000 0.06378  0.66696  0.29722  Biso   1.000  C
  C258     1.0000 0.06494  0.71068  0.33743  Biso   1.000  C
  H173     1.0000 0.07200  0.72560  0.35700  Biso   1.000  H
  Co58     1.0000 0.07260  0.75170  0.36408  Biso   1.000  Co
  H174     1.0000 0.06950  0.64610  0.28350  Biso   1.000  H
  N158     1.0000 0.16696  0.70278  0.43622  Biso   1.000  N
  N159     1.0000 0.53665  0.21609  0.31591  Biso   1.000  N
  N160     1.0000 0.53650  0.18930  0.29175  Biso   1.000  N
  C259     1.0000 0.58208  0.17973  0.32626  Biso   1.000  C
  C260     1.0000 0.61453  0.16220  0.34077  Biso   1.000  C
  C261     1.0000 0.63158  0.17579  0.37132  Biso   1.000  C
  H175     1.0000 0.62220  0.19670  0.38270  Biso   1.000  H
  C262     1.0000 0.56378  0.16696  0.29722  Biso   1.000  C
  C263     1.0000 0.56494  0.21068  0.33743  Biso   1.000  C
  H176     1.0000 0.57200  0.22560  0.35700  Biso   1.000  H
  Co59     1.0000 0.57260  0.25170  0.36408  Biso   1.000  Co
  H177     1.0000 0.56950  0.14610  0.28350  Biso   1.000  H
  N161     1.0000 0.66696  0.20278  0.43622  Biso   1.000  N
  N162     1.0000 0.53665  0.71609  0.81591  Biso   1.000  N
  N163     1.0000 0.53650  0.68930  0.79175  Biso   1.000  N
  C264     1.0000 0.58208  0.67973  0.82626  Biso   1.000  C
  C265     1.0000 0.61453  0.66220  0.84077  Biso   1.000  C
  C266     1.0000 0.63158  0.67579  0.87132  Biso   1.000  C
  H178     1.0000 0.62220  0.69670  0.88270  Biso   1.000  H
  C267     1.0000 0.56378  0.66696  0.79722  Biso   1.000  C
  C268     1.0000 0.56494  0.71068  0.83743  Biso   1.000  C
  H179     1.0000 0.57200  0.72560  0.85700  Biso   1.000  H
  Co60     1.0000 0.57260  0.75170  0.86408  Biso   1.000  Co
  H180     1.0000 0.56950  0.64610  0.78350  Biso   1.000  H
  N164     1.0000 0.66696  0.70278  0.93622  Biso   1.000  N
  N165     1.0000 0.96335  0.78391  0.81591  Biso   1.000  N
  N166     1.0000 0.96350  0.81070  0.79175  Biso   1.000  N
  C269     1.0000 0.91792  0.82027  0.82626  Biso   1.000  C
  C270     1.0000 0.88547  0.83780  0.84077  Biso   1.000  C
  C271     1.0000 0.86842  0.82421  0.87132  Biso   1.000  C
  H181     1.0000 0.87780  0.80330  0.88270  Biso   1.000  H
  C272     1.0000 0.93622  0.83304  0.79722  Biso   1.000  C
  C273     1.0000 0.93506  0.78932  0.83743  Biso   1.000  C
  H182     1.0000 0.92800  0.77440  0.85700  Biso   1.000  H
  Co61     1.0000 0.92740  0.74830  0.86408  Biso   1.000  Co
  H183     1.0000 0.93050  0.85390  0.78350  Biso   1.000  H
  N167     1.0000 0.83304  0.79722  0.93622  Biso   1.000  N
  N168     1.0000 0.96335  0.28391  0.31591  Biso   1.000  N
  N169     1.0000 0.96350  0.31070  0.29175  Biso   1.000  N
  C274     1.0000 0.91792  0.32027  0.32626  Biso   1.000  C
  C275     1.0000 0.88547  0.33780  0.34077  Biso   1.000  C
  C276     1.0000 0.86842  0.32421  0.37132  Biso   1.000  C
  H184     1.0000 0.87780  0.30330  0.38270  Biso   1.000  H
  C277     1.0000 0.93622  0.33304  0.29722  Biso   1.000  C
  C278     1.0000 0.93506  0.28932  0.33743  Biso   1.000  C
  H185     1.0000 0.92800  0.27440  0.35700  Biso   1.000  H
  Co62     1.0000 0.92740  0.24830  0.36408  Biso   1.000  Co
  H186     1.0000 0.93050  0.35390  0.28350  Biso   1.000  H
  N170     1.0000 0.83304  0.29722  0.43622  Biso   1.000  N
  N171     1.0000 0.46335  0.78391  0.31591  Biso   1.000  N
  N172     1.0000 0.46350  0.81070  0.29175  Biso   1.000  N
  C279     1.0000 0.41792  0.82027  0.32626  Biso   1.000  C
  C280     1.0000 0.38547  0.83780  0.34077  Biso   1.000  C
  C281     1.0000 0.36842  0.82421  0.37132  Biso   1.000  C
  H187     1.0000 0.37780  0.80330  0.38270  Biso   1.000  H
  C282     1.0000 0.43622  0.83304  0.29722  Biso   1.000  C
  C283     1.0000 0.43506  0.78932  0.33743  Biso   1.000  C
  H188     1.0000 0.42800  0.77440  0.35700  Biso   1.000  H
  Co63     1.0000 0.42740  0.74830  0.36408  Biso   1.000  Co
  H189     1.0000 0.43050  0.85390  0.28350  Biso   1.000  H
  N173     1.0000 0.33304  0.79722  0.43622  Biso   1.000  N
  N174     1.0000 0.46335  0.28391  0.81591  Biso   1.000  N
  N175     1.0000 0.46350  0.31070  0.79175  Biso   1.000  N
  C284     1.0000 0.41792  0.32027  0.82626  Biso   1.000  C
  C285     1.0000 0.38547  0.33780  0.84077  Biso   1.000  C
  C286     1.0000 0.36842  0.32421  0.87132  Biso   1.000  C
  H190     1.0000 0.37780  0.30330  0.88270  Biso   1.000  H
  C287     1.0000 0.43622  0.33304  0.79722  Biso   1.000  C
  C288     1.0000 0.43506  0.28932  0.83743  Biso   1.000  C
  H191     1.0000 0.42800  0.27440  0.85700  Biso   1.000  H
  Co64     1.0000 0.42740  0.24830  0.86408  Biso   1.000  Co
  H192     1.0000 0.43050  0.35390  0.78350  Biso   1.000  H
  N176     1.0000 0.33304  0.29722  0.93622  Biso   1.000  N
  N177     1.0000 0.78391  0.81591  0.96335  Biso   1.000  N
  N178     1.0000 0.81070  0.79175  0.96350  Biso   1.000  N
  C289     1.0000 0.82027  0.82626  0.91792  Biso   1.000  C
  C290     1.0000 0.83780  0.84077  0.88547  Biso   1.000  C
  C291     1.0000 0.82421  0.87132  0.86842  Biso   1.000  C
  H193     1.0000 0.80330  0.88270  0.87780  Biso   1.000  H
  C292     1.0000 0.78932  0.83743  0.93506  Biso   1.000  C
  H194     1.0000 0.77440  0.85700  0.92800  Biso   1.000  H
  Co65     1.0000 0.74830  0.86408  0.92740  Biso   1.000  Co
  H195     1.0000 0.85390  0.78350  0.93050  Biso   1.000  H
  N179     1.0000 0.79722  0.93622  0.83304  Biso   1.000  N
  N180     1.0000 0.78391  0.31591  0.46335  Biso   1.000  N
  N181     1.0000 0.81070  0.29175  0.46350  Biso   1.000  N
  C293     1.0000 0.82027  0.32626  0.41792  Biso   1.000  C
  C294     1.0000 0.83780  0.34077  0.38547  Biso   1.000  C
  C295     1.0000 0.82421  0.37132  0.36842  Biso   1.000  C
  H196     1.0000 0.80330  0.38270  0.37780  Biso   1.000  H
  C296     1.0000 0.78932  0.33743  0.43506  Biso   1.000  C
  H197     1.0000 0.77440  0.35700  0.42800  Biso   1.000  H
  Co66     1.0000 0.74830  0.36408  0.42740  Biso   1.000  Co
  H198     1.0000 0.85390  0.28350  0.43050  Biso   1.000  H
  N182     1.0000 0.79722  0.43622  0.33304  Biso   1.000  N
  N183     1.0000 0.28391  0.81591  0.46335  Biso   1.000  N
  N184     1.0000 0.31070  0.79175  0.46350  Biso   1.000  N
  C297     1.0000 0.32027  0.82626  0.41792  Biso   1.000  C
  C298     1.0000 0.33780  0.84077  0.38547  Biso   1.000  C
  C299     1.0000 0.32421  0.87132  0.36842  Biso   1.000  C
  H199     1.0000 0.30330  0.88270  0.37780  Biso   1.000  H
  C300     1.0000 0.28932  0.83743  0.43506  Biso   1.000  C
  H200     1.0000 0.27440  0.85700  0.42800  Biso   1.000  H
  Co67     1.0000 0.24830  0.86408  0.42740  Biso   1.000  Co
  H201     1.0000 0.35390  0.78350  0.43050  Biso   1.000  H
  N185     1.0000 0.29722  0.93622  0.33304  Biso   1.000  N
  N186     1.0000 0.28391  0.31591  0.96335  Biso   1.000  N
  N187     1.0000 0.31070  0.29175  0.96350  Biso   1.000  N
  C301     1.0000 0.32027  0.32626  0.91792  Biso   1.000  C
  C302     1.0000 0.33780  0.34077  0.88547  Biso   1.000  C
  C303     1.0000 0.32421  0.37132  0.86842  Biso   1.000  C
  H202     1.0000 0.30330  0.38270  0.87780  Biso   1.000  H
  C304     1.0000 0.28932  0.33743  0.93506  Biso   1.000  C
  H203     1.0000 0.27440  0.35700  0.92800  Biso   1.000  H
  Co68     1.0000 0.24830  0.36408  0.92740  Biso   1.000  Co
  H204     1.0000 0.35390  0.28350  0.93050  Biso   1.000  H
  N188     1.0000 0.29722  0.43622  0.83304  Biso   1.000  N
  N189     1.0000 0.21609  0.81591  0.03665  Biso   1.000  N
  N190     1.0000 0.18930  0.79175  0.03650  Biso   1.000  N
  C305     1.0000 0.17973  0.82626  0.08208  Biso   1.000  C
  C306     1.0000 0.16220  0.84077  0.11453  Biso   1.000  C
  C307     1.0000 0.17579  0.87132  0.13158  Biso   1.000  C
  H205     1.0000 0.19670  0.88270  0.12220  Biso   1.000  H
  C308     1.0000 0.21068  0.83743  0.06494  Biso   1.000  C
  H206     1.0000 0.22560  0.85700  0.07200  Biso   1.000  H
  Co69     1.0000 0.25170  0.86408  0.07260  Biso   1.000  Co
  H207     1.0000 0.14610  0.78350  0.06950  Biso   1.000  H
  N191     1.0000 0.20278  0.93622  0.16696  Biso   1.000  N
  N192     1.0000 0.21609  0.31591  0.53665  Biso   1.000  N
  N193     1.0000 0.18930  0.29175  0.53650  Biso   1.000  N
  C309     1.0000 0.17973  0.32626  0.58208  Biso   1.000  C
  C310     1.0000 0.16220  0.34077  0.61453  Biso   1.000  C
  C311     1.0000 0.17579  0.37132  0.63158  Biso   1.000  C
  H208     1.0000 0.19670  0.38270  0.62220  Biso   1.000  H
  C312     1.0000 0.21068  0.33743  0.56494  Biso   1.000  C
  H209     1.0000 0.22560  0.35700  0.57200  Biso   1.000  H
  Co70     1.0000 0.25170  0.36408  0.57260  Biso   1.000  Co
  H210     1.0000 0.14610  0.28350  0.56950  Biso   1.000  H
  N194     1.0000 0.20278  0.43622  0.66696  Biso   1.000  N
  N195     1.0000 0.71609  0.81591  0.53665  Biso   1.000  N
  N196     1.0000 0.68930  0.79175  0.53650  Biso   1.000  N
  C313     1.0000 0.67973  0.82626  0.58208  Biso   1.000  C
  C314     1.0000 0.66220  0.84077  0.61453  Biso   1.000  C
  C315     1.0000 0.67579  0.87132  0.63158  Biso   1.000  C
  H211     1.0000 0.69670  0.88270  0.62220  Biso   1.000  H
  C316     1.0000 0.71068  0.83743  0.56494  Biso   1.000  C
  H212     1.0000 0.72560  0.85700  0.57200  Biso   1.000  H
  Co71     1.0000 0.75170  0.86408  0.57260  Biso   1.000  Co
  H213     1.0000 0.64610  0.78350  0.56950  Biso   1.000  H
  N197     1.0000 0.70278  0.93622  0.66696  Biso   1.000  N
  N198     1.0000 0.71609  0.31591  0.03665  Biso   1.000  N
  N199     1.0000 0.68930  0.29175  0.03650  Biso   1.000  N
  C317     1.0000 0.67973  0.32626  0.08208  Biso   1.000  C
  C318     1.0000 0.66220  0.34077  0.11453  Biso   1.000  C
  C319     1.0000 0.67579  0.37132  0.13158  Biso   1.000  C
  H214     1.0000 0.69670  0.38270  0.12220  Biso   1.000  H
  C320     1.0000 0.71068  0.33743  0.06494  Biso   1.000  C
  H215     1.0000 0.72560  0.35700  0.07200  Biso   1.000  H
  Co72     1.0000 0.75170  0.36408  0.07260  Biso   1.000  Co
  H216     1.0000 0.64610  0.28350  0.06950  Biso   1.000  H
  N200     1.0000 0.70278  0.43622  0.16696  Biso   1.000  N
  N201     1.0000 0.21609  0.18409  0.96335  Biso   1.000  N
  N202     1.0000 0.18930  0.20825  0.96350  Biso   1.000  N
  C321     1.0000 0.17973  0.17374  0.91792  Biso   1.000  C
  C322     1.0000 0.16220  0.15923  0.88547  Biso   1.000  C
  C323     1.0000 0.17579  0.12868  0.86842  Biso   1.000  C
  H217     1.0000 0.19670  0.11730  0.87780  Biso   1.000  H
  C324     1.0000 0.21068  0.16257  0.93506  Biso   1.000  C
  H218     1.0000 0.22560  0.14300  0.92800  Biso   1.000  H
  Co73     1.0000 0.25170  0.13592  0.92740  Biso   1.000  Co
  H219     1.0000 0.14610  0.21650  0.93050  Biso   1.000  H
  N203     1.0000 0.20278  0.06378  0.83304  Biso   1.000  N
  N204     1.0000 0.21609  0.68409  0.46335  Biso   1.000  N
  N205     1.0000 0.18930  0.70825  0.46350  Biso   1.000  N
  C325     1.0000 0.17973  0.67374  0.41792  Biso   1.000  C
  C326     1.0000 0.16220  0.65923  0.38547  Biso   1.000  C
  C327     1.0000 0.17579  0.62868  0.36842  Biso   1.000  C
  H220     1.0000 0.19670  0.61730  0.37780  Biso   1.000  H
  C328     1.0000 0.21068  0.66257  0.43506  Biso   1.000  C
  H221     1.0000 0.22560  0.64300  0.42800  Biso   1.000  H
  Co74     1.0000 0.25170  0.63592  0.42740  Biso   1.000  Co
  H222     1.0000 0.14610  0.71650  0.43050  Biso   1.000  H
  N206     1.0000 0.20278  0.56378  0.33304  Biso   1.000  N
  N207     1.0000 0.71609  0.18409  0.46335  Biso   1.000  N
  N208     1.0000 0.68930  0.20825  0.46350  Biso   1.000  N
  C329     1.0000 0.67973  0.17374  0.41792  Biso   1.000  C
  C330     1.0000 0.66220  0.15923  0.38547  Biso   1.000  C
  C331     1.0000 0.67579  0.12868  0.36842  Biso   1.000  C
  H223     1.0000 0.69670  0.11730  0.37780  Biso   1.000  H
  C332     1.0000 0.71068  0.16257  0.43506  Biso   1.000  C
  H224     1.0000 0.72560  0.14300  0.42800  Biso   1.000  H
  Co75     1.0000 0.75170  0.13592  0.42740  Biso   1.000  Co
  H225     1.0000 0.64610  0.21650  0.43050  Biso   1.000  H
  N209     1.0000 0.70278  0.06378  0.33304  Biso   1.000  N
  N210     1.0000 0.71609  0.68409  0.96335  Biso   1.000  N
  N211     1.0000 0.68930  0.70825  0.96350  Biso   1.000  N
  C333     1.0000 0.67973  0.67374  0.91792  Biso   1.000  C
  C334     1.0000 0.66220  0.65923  0.88547  Biso   1.000  C
  C335     1.0000 0.67579  0.62868  0.86842  Biso   1.000  C
  H226     1.0000 0.69670  0.61730  0.87780  Biso   1.000  H
  C336     1.0000 0.71068  0.66257  0.93506  Biso   1.000  C
  H227     1.0000 0.72560  0.64300  0.92800  Biso   1.000  H
  Co76     1.0000 0.75170  0.63592  0.92740  Biso   1.000  Co
  H228     1.0000 0.64610  0.71650  0.93050  Biso   1.000  H
  N212     1.0000 0.70278  0.56378  0.83304  Biso   1.000  N
  N213     1.0000 0.78391  0.18409  0.03665  Biso   1.000  N
  N214     1.0000 0.81070  0.20825  0.03650  Biso   1.000  N
  C337     1.0000 0.82027  0.17374  0.08208  Biso   1.000  C
  C338     1.0000 0.83780  0.15923  0.11453  Biso   1.000  C
  C339     1.0000 0.82421  0.12868  0.13158  Biso   1.000  C
  H229     1.0000 0.80330  0.11730  0.12220  Biso   1.000  H
  C340     1.0000 0.78932  0.16257  0.06494  Biso   1.000  C
  H230     1.0000 0.77440  0.14300  0.07200  Biso   1.000  H
  Co77     1.0000 0.74830  0.13592  0.07260  Biso   1.000  Co
  H231     1.0000 0.85390  0.21650  0.06950  Biso   1.000  H
  N215     1.0000 0.79722  0.06378  0.16696  Biso   1.000  N
  N216     1.0000 0.78391  0.68409  0.53665  Biso   1.000  N
  N217     1.0000 0.81070  0.70825  0.53650  Biso   1.000  N
  C341     1.0000 0.82027  0.67374  0.58208  Biso   1.000  C
  C342     1.0000 0.83780  0.65923  0.61453  Biso   1.000  C
  C343     1.0000 0.82421  0.62868  0.63158  Biso   1.000  C
  H232     1.0000 0.80330  0.61730  0.62220  Biso   1.000  H
  C344     1.0000 0.78932  0.66257  0.56494  Biso   1.000  C
  H233     1.0000 0.77440  0.64300  0.57200  Biso   1.000  H
  Co78     1.0000 0.74830  0.63592  0.57260  Biso   1.000  Co
  H234     1.0000 0.85390  0.71650  0.56950  Biso   1.000  H
  N218     1.0000 0.79722  0.56378  0.66696  Biso   1.000  N
  N219     1.0000 0.28391  0.18409  0.53665  Biso   1.000  N
  N220     1.0000 0.31070  0.20825  0.53650  Biso   1.000  N
  C345     1.0000 0.32027  0.17374  0.58208  Biso   1.000  C
  C346     1.0000 0.33780  0.15923  0.61453  Biso   1.000  C
  C347     1.0000 0.32421  0.12868  0.63158  Biso   1.000  C
  H235     1.0000 0.30330  0.11730  0.62220  Biso   1.000  H
  C348     1.0000 0.28932  0.16257  0.56494  Biso   1.000  C
  H236     1.0000 0.27440  0.14300  0.57200  Biso   1.000  H
  Co79     1.0000 0.24830  0.13592  0.57260  Biso   1.000  Co
  H237     1.0000 0.35390  0.21650  0.56950  Biso   1.000  H
  N221     1.0000 0.29722  0.06378  0.66696  Biso   1.000  N
  N222     1.0000 0.28391  0.68409  0.03665  Biso   1.000  N
  N223     1.0000 0.31070  0.70825  0.03650  Biso   1.000  N
  C349     1.0000 0.32027  0.67374  0.08208  Biso   1.000  C
  C350     1.0000 0.33780  0.65923  0.11453  Biso   1.000  C
  C351     1.0000 0.32421  0.62868  0.13158  Biso   1.000  C
  H238     1.0000 0.30330  0.61730  0.12220  Biso   1.000  H
  C352     1.0000 0.28932  0.66257  0.06494  Biso   1.000  C
  H239     1.0000 0.27440  0.64300  0.07200  Biso   1.000  H
  Co80     1.0000 0.24830  0.63592  0.07260  Biso   1.000  Co
  H240     1.0000 0.35390  0.71650  0.06950  Biso   1.000  H
  N224     1.0000 0.29722  0.56378  0.16696  Biso   1.000  N
  N225     1.0000 0.81591  0.03665  0.21609  Biso   1.000  N
  N226     1.0000 0.79175  0.03650  0.18930  Biso   1.000  N
  C353     1.0000 0.82626  0.08208  0.17973  Biso   1.000  C
  C354     1.0000 0.84077  0.11453  0.16220  Biso   1.000  C
  C355     1.0000 0.87132  0.13158  0.17579  Biso   1.000  C
  H241     1.0000 0.88270  0.12220  0.19670  Biso   1.000  H
  C356     1.0000 0.83743  0.06494  0.21068  Biso   1.000  C
  H242     1.0000 0.85700  0.07200  0.22560  Biso   1.000  H
  Co81     1.0000 0.86408  0.07260  0.25170  Biso   1.000  Co
  H243     1.0000 0.78350  0.06950  0.14610  Biso   1.000  H
  N227     1.0000 0.81591  0.53665  0.71609  Biso   1.000  N
  N228     1.0000 0.79175  0.53650  0.68930  Biso   1.000  N
  C357     1.0000 0.82626  0.58208  0.67973  Biso   1.000  C
  C358     1.0000 0.84077  0.61453  0.66220  Biso   1.000  C
  C359     1.0000 0.87132  0.63158  0.67579  Biso   1.000  C
  H244     1.0000 0.88270  0.62220  0.69670  Biso   1.000  H
  C360     1.0000 0.83743  0.56494  0.71068  Biso   1.000  C
  H245     1.0000 0.85700  0.57200  0.72560  Biso   1.000  H
  Co82     1.0000 0.86408  0.57260  0.75170  Biso   1.000  Co
  H246     1.0000 0.78350  0.56950  0.64610  Biso   1.000  H
  N229     1.0000 0.31591  0.03665  0.71609  Biso   1.000  N
  N230     1.0000 0.29175  0.03650  0.68930  Biso   1.000  N
  C361     1.0000 0.32626  0.08208  0.67973  Biso   1.000  C
  C362     1.0000 0.34077  0.11453  0.66220  Biso   1.000  C
  C363     1.0000 0.37132  0.13158  0.67579  Biso   1.000  C
  H247     1.0000 0.38270  0.12220  0.69670  Biso   1.000  H
  C364     1.0000 0.33743  0.06494  0.71068  Biso   1.000  C
  H248     1.0000 0.35700  0.07200  0.72560  Biso   1.000  H
  Co83     1.0000 0.36408  0.07260  0.75170  Biso   1.000  Co
  H249     1.0000 0.28350  0.06950  0.64610  Biso   1.000  H
  N231     1.0000 0.31591  0.53665  0.21609  Biso   1.000  N
  N232     1.0000 0.29175  0.53650  0.18930  Biso   1.000  N
  C365     1.0000 0.32626  0.58208  0.17973  Biso   1.000  C
  C366     1.0000 0.34077  0.61453  0.16220  Biso   1.000  C
  C367     1.0000 0.37132  0.63158  0.17579  Biso   1.000  C
  H250     1.0000 0.38270  0.62220  0.19670  Biso   1.000  H
  C368     1.0000 0.33743  0.56494  0.21068  Biso   1.000  C
  H251     1.0000 0.35700  0.57200  0.22560  Biso   1.000  H
  Co84     1.0000 0.36408  0.57260  0.25170  Biso   1.000  Co
  H252     1.0000 0.28350  0.56950  0.14610  Biso   1.000  H
  N233     1.0000 0.81591  0.96335  0.78391  Biso   1.000  N
  N234     1.0000 0.79175  0.96350  0.81070  Biso   1.000  N
  C369     1.0000 0.82626  0.91792  0.82027  Biso   1.000  C
  C370     1.0000 0.84077  0.88547  0.83780  Biso   1.000  C
  C371     1.0000 0.87132  0.86842  0.82421  Biso   1.000  C
  H253     1.0000 0.88270  0.87780  0.80330  Biso   1.000  H
  C372     1.0000 0.83743  0.93506  0.78932  Biso   1.000  C
  H254     1.0000 0.85700  0.92800  0.77440  Biso   1.000  H
  Co85     1.0000 0.86408  0.92740  0.74830  Biso   1.000  Co
  H255     1.0000 0.78350  0.93050  0.85390  Biso   1.000  H
  N235     1.0000 0.81591  0.46335  0.28391  Biso   1.000  N
  N236     1.0000 0.79175  0.46350  0.31070  Biso   1.000  N
  C373     1.0000 0.82626  0.41792  0.32027  Biso   1.000  C
  C374     1.0000 0.84077  0.38547  0.33780  Biso   1.000  C
  C375     1.0000 0.87132  0.36842  0.32421  Biso   1.000  C
  H256     1.0000 0.88270  0.37780  0.30330  Biso   1.000  H
  C376     1.0000 0.83743  0.43506  0.28932  Biso   1.000  C
  H257     1.0000 0.85700  0.42800  0.27440  Biso   1.000  H
  Co86     1.0000 0.86408  0.42740  0.24830  Biso   1.000  Co
  H258     1.0000 0.78350  0.43050  0.35390  Biso   1.000  H
  N237     1.0000 0.31591  0.96335  0.28391  Biso   1.000  N
  N238     1.0000 0.29175  0.96350  0.31070  Biso   1.000  N
  C377     1.0000 0.32626  0.91792  0.32027  Biso   1.000  C
  C378     1.0000 0.34077  0.88547  0.33780  Biso   1.000  C
  C379     1.0000 0.37132  0.86842  0.32421  Biso   1.000  C
  H259     1.0000 0.38270  0.87780  0.30330  Biso   1.000  H
  C380     1.0000 0.33743  0.93506  0.28932  Biso   1.000  C
  H260     1.0000 0.35700  0.92800  0.27440  Biso   1.000  H
  Co87     1.0000 0.36408  0.92740  0.24830  Biso   1.000  Co
  H261     1.0000 0.28350  0.93050  0.35390  Biso   1.000  H
  N239     1.0000 0.31591  0.46335  0.78391  Biso   1.000  N
  N240     1.0000 0.29175  0.46350  0.81070  Biso   1.000  N
  C381     1.0000 0.32626  0.41792  0.82027  Biso   1.000  C
  C382     1.0000 0.34077  0.38547  0.83780  Biso   1.000  C
  C383     1.0000 0.37132  0.36842  0.82421  Biso   1.000  C
  H262     1.0000 0.38270  0.37780  0.80330  Biso   1.000  H
  C384     1.0000 0.33743  0.43506  0.78932  Biso   1.000  C
  H263     1.0000 0.35700  0.42800  0.77440  Biso   1.000  H
  Co88     1.0000 0.36408  0.42740  0.74830  Biso   1.000  Co
  H264     1.0000 0.28350  0.43050  0.85390  Biso   1.000  H
  N241     1.0000 0.18409  0.03665  0.78391  Biso   1.000  N
  N242     1.0000 0.20825  0.03650  0.81070  Biso   1.000  N
  C385     1.0000 0.17374  0.08208  0.82027  Biso   1.000  C
  C386     1.0000 0.15923  0.11453  0.83780  Biso   1.000  C
  C387     1.0000 0.12868  0.13158  0.82421  Biso   1.000  C
  H265     1.0000 0.11730  0.12220  0.80330  Biso   1.000  H
  C388     1.0000 0.16257  0.06494  0.78932  Biso   1.000  C
  H266     1.0000 0.14300  0.07200  0.77440  Biso   1.000  H
  Co89     1.0000 0.13592  0.07260  0.74830  Biso   1.000  Co
  H267     1.0000 0.21650  0.06950  0.85390  Biso   1.000  H
  N243     1.0000 0.18409  0.53665  0.28391  Biso   1.000  N
  N244     1.0000 0.20825  0.53650  0.31070  Biso   1.000  N
  C389     1.0000 0.17374  0.58208  0.32027  Biso   1.000  C
  C390     1.0000 0.15923  0.61453  0.33780  Biso   1.000  C
  C391     1.0000 0.12868  0.63158  0.32421  Biso   1.000  C
  H268     1.0000 0.11730  0.62220  0.30330  Biso   1.000  H
  C392     1.0000 0.16257  0.56494  0.28932  Biso   1.000  C
  H269     1.0000 0.14300  0.57200  0.27440  Biso   1.000  H
  Co90     1.0000 0.13592  0.57260  0.24830  Biso   1.000  Co
  H270     1.0000 0.21650  0.56950  0.35390  Biso   1.000  H
  N245     1.0000 0.68409  0.03665  0.28391  Biso   1.000  N
  N246     1.0000 0.70825  0.03650  0.31070  Biso   1.000  N
  C393     1.0000 0.67374  0.08208  0.32027  Biso   1.000  C
  C394     1.0000 0.65923  0.11453  0.33780  Biso   1.000  C
  C395     1.0000 0.62868  0.13158  0.32421  Biso   1.000  C
  H271     1.0000 0.61730  0.12220  0.30330  Biso   1.000  H
  C396     1.0000 0.66257  0.06494  0.28932  Biso   1.000  C
  H272     1.0000 0.64300  0.07200  0.27440  Biso   1.000  H
  Co91     1.0000 0.63592  0.07260  0.24830  Biso   1.000  Co
  H273     1.0000 0.71650  0.06950  0.35390  Biso   1.000  H
  N247     1.0000 0.68409  0.53665  0.78391  Biso   1.000  N
  N248     1.0000 0.70825  0.53650  0.81070  Biso   1.000  N
  C397     1.0000 0.67374  0.58208  0.82027  Biso   1.000  C
  C398     1.0000 0.65923  0.61453  0.83780  Biso   1.000  C
  C399     1.0000 0.62868  0.63158  0.82421  Biso   1.000  C
  H274     1.0000 0.61730  0.62220  0.80330  Biso   1.000  H
  C400     1.0000 0.66257  0.56494  0.78932  Biso   1.000  C
  H275     1.0000 0.64300  0.57200  0.77440  Biso   1.000  H
  Co92     1.0000 0.63592  0.57260  0.74830  Biso   1.000  Co
  H276     1.0000 0.71650  0.56950  0.85390  Biso   1.000  H
  N249     1.0000 0.18409  0.96335  0.21609  Biso   1.000  N
  N250     1.0000 0.20825  0.96350  0.18930  Biso   1.000  N
  C401     1.0000 0.17374  0.91792  0.17973  Biso   1.000  C
  C402     1.0000 0.15923  0.88547  0.16220  Biso   1.000  C
  C403     1.0000 0.12868  0.86842  0.17579  Biso   1.000  C
  H277     1.0000 0.11730  0.87780  0.19670  Biso   1.000  H
  C404     1.0000 0.16257  0.93506  0.21068  Biso   1.000  C
  H278     1.0000 0.14300  0.92800  0.22560  Biso   1.000  H
  Co93     1.0000 0.13592  0.92740  0.25170  Biso   1.000  Co
  H279     1.0000 0.21650  0.93050  0.14610  Biso   1.000  H
  N251     1.0000 0.18409  0.46335  0.71609  Biso   1.000  N
  N252     1.0000 0.20825  0.46350  0.68930  Biso   1.000  N
  C405     1.0000 0.17374  0.41792  0.67973  Biso   1.000  C
  C406     1.0000 0.15923  0.38547  0.66220  Biso   1.000  C
  C407     1.0000 0.12868  0.36842  0.67579  Biso   1.000  C
  H280     1.0000 0.11730  0.37780  0.69670  Biso   1.000  H
  C408     1.0000 0.16257  0.43506  0.71068  Biso   1.000  C
  H281     1.0000 0.14300  0.42800  0.72560  Biso   1.000  H
  Co94     1.0000 0.13592  0.42740  0.75170  Biso   1.000  Co
  H282     1.0000 0.21650  0.43050  0.64610  Biso   1.000  H
  N253     1.0000 0.68409  0.96335  0.71609  Biso   1.000  N
  N254     1.0000 0.70825  0.96350  0.68930  Biso   1.000  N
  C409     1.0000 0.67374  0.91792  0.67973  Biso   1.000  C
  C410     1.0000 0.65923  0.88547  0.66220  Biso   1.000  C
  C411     1.0000 0.62868  0.86842  0.67579  Biso   1.000  C
  H283     1.0000 0.61730  0.87780  0.69670  Biso   1.000  H
  C412     1.0000 0.66257  0.93506  0.71068  Biso   1.000  C
  H284     1.0000 0.64300  0.92800  0.72560  Biso   1.000  H
  Co95     1.0000 0.63592  0.92740  0.75170  Biso   1.000  Co
  H285     1.0000 0.71650  0.93050  0.64610  Biso   1.000  H
  N255     1.0000 0.68409  0.46335  0.21609  Biso   1.000  N
  N256     1.0000 0.70825  0.46350  0.18930  Biso   1.000  N
  C413     1.0000 0.67374  0.41792  0.17973  Biso   1.000  C
  C414     1.0000 0.65923  0.38547  0.16220  Biso   1.000  C
  C415     1.0000 0.62868  0.36842  0.17579  Biso   1.000  C
  H286     1.0000 0.61730  0.37780  0.19670  Biso   1.000  H
  C416     1.0000 0.66257  0.43506  0.21068  Biso   1.000  C
  H287     1.0000 0.64300  0.42800  0.22560  Biso   1.000  H
  Co96     1.0000 0.63592  0.42740  0.25170  Biso   1.000  Co
  H288     1.0000 0.71650  0.43050  0.14610  Biso   1.000  H
  N257     1.0000 0.71609  0.46335  0.68409  Biso   1.000  N
  N258     1.0000 0.68930  0.46350  0.70825  Biso   1.000  N
  C417     1.0000 0.67973  0.41792  0.67374  Biso   1.000  C
  C418     1.0000 0.66220  0.38547  0.65923  Biso   1.000  C
  C419     1.0000 0.67579  0.36842  0.62868  Biso   1.000  C
  H289     1.0000 0.69670  0.37780  0.61730  Biso   1.000  H
  C420     1.0000 0.66696  0.43622  0.70278  Biso   1.000  C
  C421     1.0000 0.71068  0.43506  0.66257  Biso   1.000  C
  H290     1.0000 0.72560  0.42800  0.64300  Biso   1.000  H
  Co97     1.0000 0.75170  0.42740  0.63592  Biso   1.000  Co
  H291     1.0000 0.64610  0.43050  0.71650  Biso   1.000  H
  N259     1.0000 0.70278  0.33304  0.56378  Biso   1.000  N
  N260     1.0000 0.71609  0.96335  0.18409  Biso   1.000  N
  N261     1.0000 0.68930  0.96350  0.20825  Biso   1.000  N
  C422     1.0000 0.67973  0.91792  0.17374  Biso   1.000  C
  C423     1.0000 0.66220  0.88547  0.15923  Biso   1.000  C
  C424     1.0000 0.67579  0.86842  0.12868  Biso   1.000  C
  H292     1.0000 0.69670  0.87780  0.11730  Biso   1.000  H
  C425     1.0000 0.66696  0.93622  0.20278  Biso   1.000  C
  C426     1.0000 0.71068  0.93506  0.16257  Biso   1.000  C
  H293     1.0000 0.72560  0.92800  0.14300  Biso   1.000  H
  Co98     1.0000 0.75170  0.92740  0.13592  Biso   1.000  Co
  H294     1.0000 0.64610  0.93050  0.21650  Biso   1.000  H
  N262     1.0000 0.70278  0.83304  0.06378  Biso   1.000  N
  N263     1.0000 0.21609  0.46335  0.18409  Biso   1.000  N
  N264     1.0000 0.18930  0.46350  0.20825  Biso   1.000  N
  C427     1.0000 0.17973  0.41792  0.17374  Biso   1.000  C
  C428     1.0000 0.16220  0.38547  0.15923  Biso   1.000  C
  C429     1.0000 0.17579  0.36842  0.12868  Biso   1.000  C
  H295     1.0000 0.19670  0.37780  0.11730  Biso   1.000  H
  C430     1.0000 0.16696  0.43622  0.20278  Biso   1.000  C
  C431     1.0000 0.21068  0.43506  0.16257  Biso   1.000  C
  H296     1.0000 0.22560  0.42800  0.14300  Biso   1.000  H
  Co99     1.0000 0.25170  0.42740  0.13592  Biso   1.000  Co
  H297     1.0000 0.14610  0.43050  0.21650  Biso   1.000  H
  N265     1.0000 0.20278  0.33304  0.06378  Biso   1.000  N
  N266     1.0000 0.21609  0.96335  0.68409  Biso   1.000  N
  N267     1.0000 0.18930  0.96350  0.70825  Biso   1.000  N
  C432     1.0000 0.17973  0.91792  0.67374  Biso   1.000  C
  C433     1.0000 0.16220  0.88547  0.65923  Biso   1.000  C
  C434     1.0000 0.17579  0.86842  0.62868  Biso   1.000  C
  H298     1.0000 0.19670  0.87780  0.61730  Biso   1.000  H
  C435     1.0000 0.16696  0.93622  0.70278  Biso   1.000  C
  C436     1.0000 0.21068  0.93506  0.66257  Biso   1.000  C
  H299     1.0000 0.22560  0.92800  0.64300  Biso   1.000  H
  Co100    1.0000 0.25170  0.92740  0.63592  Biso   1.000  Co
  H300     1.0000 0.14610  0.93050  0.71650  Biso   1.000  H
  N268     1.0000 0.20278  0.83304  0.56378  Biso   1.000  N
  N269     1.0000 0.28391  0.53665  0.68409  Biso   1.000  N
  N270     1.0000 0.31070  0.53650  0.70825  Biso   1.000  N
  C437     1.0000 0.32027  0.58208  0.67374  Biso   1.000  C
  C438     1.0000 0.33780  0.61453  0.65923  Biso   1.000  C
  C439     1.0000 0.32421  0.63158  0.62868  Biso   1.000  C
  H301     1.0000 0.30330  0.62220  0.61730  Biso   1.000  H
  C440     1.0000 0.33304  0.56378  0.70278  Biso   1.000  C
  C441     1.0000 0.28932  0.56494  0.66257  Biso   1.000  C
  H302     1.0000 0.27440  0.57200  0.64300  Biso   1.000  H
  Co101    1.0000 0.24830  0.57260  0.63592  Biso   1.000  Co
  H303     1.0000 0.35390  0.56950  0.71650  Biso   1.000  H
  N271     1.0000 0.29722  0.66696  0.56378  Biso   1.000  N
  N272     1.0000 0.28391  0.03665  0.18409  Biso   1.000  N
  N273     1.0000 0.31070  0.03650  0.20825  Biso   1.000  N
  C442     1.0000 0.32027  0.08208  0.17374  Biso   1.000  C
  C443     1.0000 0.33780  0.11453  0.15923  Biso   1.000  C
  C444     1.0000 0.32421  0.13158  0.12868  Biso   1.000  C
  H304     1.0000 0.30330  0.12220  0.11730  Biso   1.000  H
  C445     1.0000 0.33304  0.06378  0.20278  Biso   1.000  C
  C446     1.0000 0.28932  0.06494  0.16257  Biso   1.000  C
  H305     1.0000 0.27440  0.07200  0.14300  Biso   1.000  H
  Co102    1.0000 0.24830  0.07260  0.13592  Biso   1.000  Co
  H306     1.0000 0.35390  0.06950  0.21650  Biso   1.000  H
  N274     1.0000 0.29722  0.16696  0.06378  Biso   1.000  N
  N275     1.0000 0.78391  0.53665  0.18409  Biso   1.000  N
  N276     1.0000 0.81070  0.53650  0.20825  Biso   1.000  N
  C447     1.0000 0.82027  0.58208  0.17374  Biso   1.000  C
  C448     1.0000 0.83780  0.61453  0.15923  Biso   1.000  C
  C449     1.0000 0.82421  0.63158  0.12868  Biso   1.000  C
  H307     1.0000 0.80330  0.62220  0.11730  Biso   1.000  H
  C450     1.0000 0.83304  0.56378  0.20278  Biso   1.000  C
  C451     1.0000 0.78932  0.56494  0.16257  Biso   1.000  C
  H308     1.0000 0.77440  0.57200  0.14300  Biso   1.000  H
  Co103    1.0000 0.74830  0.57260  0.13592  Biso   1.000  Co
  H309     1.0000 0.85390  0.56950  0.21650  Biso   1.000  H
  N277     1.0000 0.79722  0.66696  0.06378  Biso   1.000  N
  N278     1.0000 0.78391  0.03665  0.68409  Biso   1.000  N
  N279     1.0000 0.81070  0.03650  0.70825  Biso   1.000  N
  C452     1.0000 0.82027  0.08208  0.67374  Biso   1.000  C
  C453     1.0000 0.83780  0.11453  0.65923  Biso   1.000  C
  C454     1.0000 0.82421  0.13158  0.62868  Biso   1.000  C
  H310     1.0000 0.80330  0.12220  0.61730  Biso   1.000  H
  C455     1.0000 0.83304  0.06378  0.70278  Biso   1.000  C
  C456     1.0000 0.78932  0.06494  0.66257  Biso   1.000  C
  H311     1.0000 0.77440  0.07200  0.64300  Biso   1.000  H
  Co104    1.0000 0.74830  0.07260  0.63592  Biso   1.000  Co
  H312     1.0000 0.85390  0.06950  0.71650  Biso   1.000  H
  N280     1.0000 0.79722  0.16696  0.56378  Biso   1.000  N
  N281     1.0000 0.28391  0.46335  0.31591  Biso   1.000  N
  N282     1.0000 0.31070  0.46350  0.29175  Biso   1.000  N
  C457     1.0000 0.32027  0.41792  0.32626  Biso   1.000  C
  C458     1.0000 0.33780  0.38547  0.34077  Biso   1.000  C
  C459     1.0000 0.32421  0.36842  0.37132  Biso   1.000  C
  H313     1.0000 0.30330  0.37780  0.38270  Biso   1.000  H
  C460     1.0000 0.33304  0.43622  0.29722  Biso   1.000  C
  C461     1.0000 0.28932  0.43506  0.33743  Biso   1.000  C
  H314     1.0000 0.27440  0.42800  0.35700  Biso   1.000  H
  Co105    1.0000 0.24830  0.42740  0.36408  Biso   1.000  Co
  H315     1.0000 0.35390  0.43050  0.28350  Biso   1.000  H
  N283     1.0000 0.29722  0.33304  0.43622  Biso   1.000  N
  N284     1.0000 0.28391  0.96335  0.81591  Biso   1.000  N
  N285     1.0000 0.31070  0.96350  0.79175  Biso   1.000  N
  C462     1.0000 0.32027  0.91792  0.82626  Biso   1.000  C
  C463     1.0000 0.33780  0.88547  0.84077  Biso   1.000  C
  C464     1.0000 0.32421  0.86842  0.87132  Biso   1.000  C
  H316     1.0000 0.30330  0.87780  0.88270  Biso   1.000  H
  C465     1.0000 0.33304  0.93622  0.79722  Biso   1.000  C
  C466     1.0000 0.28932  0.93506  0.83743  Biso   1.000  C
  H317     1.0000 0.27440  0.92800  0.85700  Biso   1.000  H
  Co106    1.0000 0.24830  0.92740  0.86408  Biso   1.000  Co
  H318     1.0000 0.35390  0.93050  0.78350  Biso   1.000  H
  N286     1.0000 0.29722  0.83304  0.93622  Biso   1.000  N
  N287     1.0000 0.78391  0.46335  0.81591  Biso   1.000  N
  N288     1.0000 0.81070  0.46350  0.79175  Biso   1.000  N
  C467     1.0000 0.82027  0.41792  0.82626  Biso   1.000  C
  C468     1.0000 0.83780  0.38547  0.84077  Biso   1.000  C
  C469     1.0000 0.82421  0.36842  0.87132  Biso   1.000  C
  H319     1.0000 0.80330  0.37780  0.88270  Biso   1.000  H
  C470     1.0000 0.83304  0.43622  0.79722  Biso   1.000  C
  C471     1.0000 0.78932  0.43506  0.83743  Biso   1.000  C
  H320     1.0000 0.77440  0.42800  0.85700  Biso   1.000  H
  Co107    1.0000 0.74830  0.42740  0.86408  Biso   1.000  Co
  H321     1.0000 0.85390  0.43050  0.78350  Biso   1.000  H
  N289     1.0000 0.79722  0.33304  0.93622  Biso   1.000  N
  N290     1.0000 0.78391  0.96335  0.31591  Biso   1.000  N
  N291     1.0000 0.81070  0.96350  0.29175  Biso   1.000  N
  C472     1.0000 0.82027  0.91792  0.32626  Biso   1.000  C
  C473     1.0000 0.83780  0.88547  0.34077  Biso   1.000  C
  C474     1.0000 0.82421  0.86842  0.37132  Biso   1.000  C
  H322     1.0000 0.80330  0.87780  0.38270  Biso   1.000  H
  C475     1.0000 0.83304  0.93622  0.29722  Biso   1.000  C
  C476     1.0000 0.78932  0.93506  0.33743  Biso   1.000  C
  H323     1.0000 0.77440  0.92800  0.35700  Biso   1.000  H
  Co108    1.0000 0.74830  0.92740  0.36408  Biso   1.000  Co
  H324     1.0000 0.85390  0.93050  0.28350  Biso   1.000  H
  N292     1.0000 0.79722  0.83304  0.43622  Biso   1.000  N
  N293     1.0000 0.71609  0.53665  0.31591  Biso   1.000  N
  N294     1.0000 0.68930  0.53650  0.29175  Biso   1.000  N
  C477     1.0000 0.67973  0.58208  0.32626  Biso   1.000  C
  C478     1.0000 0.66220  0.61453  0.34077  Biso   1.000  C
  C479     1.0000 0.67579  0.63158  0.37132  Biso   1.000  C
  H325     1.0000 0.69670  0.62220  0.38270  Biso   1.000  H
  C480     1.0000 0.66696  0.56378  0.29722  Biso   1.000  C
  C481     1.0000 0.71068  0.56494  0.33743  Biso   1.000  C
  H326     1.0000 0.72560  0.57200  0.35700  Biso   1.000  H
  Co109    1.0000 0.75170  0.57260  0.36408  Biso   1.000  Co
  H327     1.0000 0.64610  0.56950  0.28350  Biso   1.000  H
  N295     1.0000 0.70278  0.66696  0.43622  Biso   1.000  N
  N296     1.0000 0.71609  0.03665  0.81591  Biso   1.000  N
  N297     1.0000 0.68930  0.03650  0.79175  Biso   1.000  N
  C482     1.0000 0.67973  0.08208  0.82626  Biso   1.000  C
  C483     1.0000 0.66220  0.11453  0.84077  Biso   1.000  C
  C484     1.0000 0.67579  0.13158  0.87132  Biso   1.000  C
  H328     1.0000 0.69670  0.12220  0.88270  Biso   1.000  H
  C485     1.0000 0.66696  0.06378  0.79722  Biso   1.000  C
  C486     1.0000 0.71068  0.06494  0.83743  Biso   1.000  C
  H329     1.0000 0.72560  0.07200  0.85700  Biso   1.000  H
  Co110    1.0000 0.75170  0.07260  0.86408  Biso   1.000  Co
  H330     1.0000 0.64610  0.06950  0.78350  Biso   1.000  H
  N298     1.0000 0.70278  0.16696  0.93622  Biso   1.000  N
  N299     1.0000 0.21609  0.53665  0.81591  Biso   1.000  N
  N300     1.0000 0.18930  0.53650  0.79175  Biso   1.000  N
  C487     1.0000 0.17973  0.58208  0.82626  Biso   1.000  C
  C488     1.0000 0.16220  0.61453  0.84077  Biso   1.000  C
  C489     1.0000 0.17579  0.63158  0.87132  Biso   1.000  C
  H331     1.0000 0.19670  0.62220  0.88270  Biso   1.000  H
  C490     1.0000 0.16696  0.56378  0.79722  Biso   1.000  C
  C491     1.0000 0.21068  0.56494  0.83743  Biso   1.000  C
  H332     1.0000 0.22560  0.57200  0.85700  Biso   1.000  H
  Co111    1.0000 0.25170  0.57260  0.86408  Biso   1.000  Co
  H333     1.0000 0.14610  0.56950  0.78350  Biso   1.000  H
  N301     1.0000 0.20278  0.66696  0.93622  Biso   1.000  N
  N302     1.0000 0.21609  0.03665  0.31591  Biso   1.000  N
  N303     1.0000 0.18930  0.03650  0.29175  Biso   1.000  N
  C492     1.0000 0.17973  0.08208  0.32626  Biso   1.000  C
  C493     1.0000 0.16220  0.11453  0.34077  Biso   1.000  C
  C494     1.0000 0.17579  0.13158  0.37132  Biso   1.000  C
  H334     1.0000 0.19670  0.12220  0.38270  Biso   1.000  H
  C495     1.0000 0.16696  0.06378  0.29722  Biso   1.000  C
  C496     1.0000 0.21068  0.06494  0.33743  Biso   1.000  C
  H335     1.0000 0.22560  0.07200  0.35700  Biso   1.000  H
  Co112    1.0000 0.25170  0.07260  0.36408  Biso   1.000  Co
  H336     1.0000 0.14610  0.06950  0.28350  Biso   1.000  H
  N304     1.0000 0.20278  0.16696  0.43622  Biso   1.000  N
  N305     1.0000 0.68409  0.71609  0.46335  Biso   1.000  N
  N306     1.0000 0.70825  0.68930  0.46350  Biso   1.000  N
  C497     1.0000 0.67374  0.67973  0.41792  Biso   1.000  C
  C498     1.0000 0.65923  0.66220  0.38547  Biso   1.000  C
  C499     1.0000 0.62868  0.67579  0.36842  Biso   1.000  C
  H337     1.0000 0.61730  0.69670  0.37780  Biso   1.000  H
  C500     1.0000 0.66257  0.71068  0.43506  Biso   1.000  C
  H338     1.0000 0.64300  0.72560  0.42800  Biso   1.000  H
  Co113    1.0000 0.63592  0.75170  0.42740  Biso   1.000  Co
  H339     1.0000 0.71650  0.64610  0.43050  Biso   1.000  H
  N307     1.0000 0.56378  0.70278  0.33304  Biso   1.000  N
  N308     1.0000 0.68409  0.21609  0.96335  Biso   1.000  N
  N309     1.0000 0.70825  0.18930  0.96350  Biso   1.000  N
  C501     1.0000 0.67374  0.17973  0.91792  Biso   1.000  C
  C502     1.0000 0.65923  0.16220  0.88547  Biso   1.000  C
  C503     1.0000 0.62868  0.17579  0.86842  Biso   1.000  C
  H340     1.0000 0.61730  0.19670  0.87780  Biso   1.000  H
  C504     1.0000 0.66257  0.21068  0.93506  Biso   1.000  C
  H341     1.0000 0.64300  0.22560  0.92800  Biso   1.000  H
  Co114    1.0000 0.63592  0.25170  0.92740  Biso   1.000  Co
  H342     1.0000 0.71650  0.14610  0.93050  Biso   1.000  H
  N310     1.0000 0.56378  0.20278  0.83304  Biso   1.000  N
  N311     1.0000 0.18409  0.71609  0.96335  Biso   1.000  N
  N312     1.0000 0.20825  0.68930  0.96350  Biso   1.000  N
  C505     1.0000 0.17374  0.67973  0.91792  Biso   1.000  C
  C506     1.0000 0.15923  0.66220  0.88547  Biso   1.000  C
  C507     1.0000 0.12868  0.67579  0.86842  Biso   1.000  C
  H343     1.0000 0.11730  0.69670  0.87780  Biso   1.000  H
  C508     1.0000 0.16257  0.71068  0.93506  Biso   1.000  C
  H344     1.0000 0.14300  0.72560  0.92800  Biso   1.000  H
  Co115    1.0000 0.13592  0.75170  0.92740  Biso   1.000  Co
  H345     1.0000 0.21650  0.64610  0.93050  Biso   1.000  H
  N313     1.0000 0.06378  0.70278  0.83304  Biso   1.000  N
  N314     1.0000 0.18409  0.21609  0.46335  Biso   1.000  N
  N315     1.0000 0.20825  0.18930  0.46350  Biso   1.000  N
  C509     1.0000 0.17374  0.17973  0.41792  Biso   1.000  C
  C510     1.0000 0.15923  0.16220  0.38547  Biso   1.000  C
  C511     1.0000 0.12868  0.17579  0.36842  Biso   1.000  C
  H346     1.0000 0.11730  0.19670  0.37780  Biso   1.000  H
  C512     1.0000 0.16257  0.21068  0.43506  Biso   1.000  C
  H347     1.0000 0.14300  0.22560  0.42800  Biso   1.000  H
  Co116    1.0000 0.13592  0.25170  0.42740  Biso   1.000  Co
  H348     1.0000 0.21650  0.14610  0.43050  Biso   1.000  H
  N316     1.0000 0.06378  0.20278  0.33304  Biso   1.000  N
  N317     1.0000 0.68409  0.28391  0.53665  Biso   1.000  N
  N318     1.0000 0.70825  0.31070  0.53650  Biso   1.000  N
  C513     1.0000 0.67374  0.32027  0.58208  Biso   1.000  C
  C514     1.0000 0.65923  0.33780  0.61453  Biso   1.000  C
  C515     1.0000 0.62868  0.32421  0.63158  Biso   1.000  C
  H349     1.0000 0.61730  0.30330  0.62220  Biso   1.000  H
  C516     1.0000 0.66257  0.28932  0.56494  Biso   1.000  C
  H350     1.0000 0.64300  0.27440  0.57200  Biso   1.000  H
  Co117    1.0000 0.63592  0.24830  0.57260  Biso   1.000  Co
  H351     1.0000 0.71650  0.35390  0.56950  Biso   1.000  H
  N319     1.0000 0.56378  0.29722  0.66696  Biso   1.000  N
  N320     1.0000 0.68409  0.78391  0.03665  Biso   1.000  N
  N321     1.0000 0.70825  0.81070  0.03650  Biso   1.000  N
  C517     1.0000 0.67374  0.82027  0.08208  Biso   1.000  C
  C518     1.0000 0.65923  0.83780  0.11453  Biso   1.000  C
  C519     1.0000 0.62868  0.82421  0.13158  Biso   1.000  C
  H352     1.0000 0.61730  0.80330  0.12220  Biso   1.000  H
  C520     1.0000 0.66257  0.78932  0.06494  Biso   1.000  C
  H353     1.0000 0.64300  0.77440  0.07200  Biso   1.000  H
  Co118    1.0000 0.63592  0.74830  0.07260  Biso   1.000  Co
  H354     1.0000 0.71650  0.85390  0.06950  Biso   1.000  H
  N322     1.0000 0.56378  0.79722  0.16696  Biso   1.000  N
  N323     1.0000 0.18409  0.28391  0.03665  Biso   1.000  N
  N324     1.0000 0.20825  0.31070  0.03650  Biso   1.000  N
  C521     1.0000 0.17374  0.32027  0.08208  Biso   1.000  C
  C522     1.0000 0.15923  0.33780  0.11453  Biso   1.000  C
  C523     1.0000 0.12868  0.32421  0.13158  Biso   1.000  C
  H355     1.0000 0.11730  0.30330  0.12220  Biso   1.000  H
  C524     1.0000 0.16257  0.28932  0.06494  Biso   1.000  C
  H356     1.0000 0.14300  0.27440  0.07200  Biso   1.000  H
  Co119    1.0000 0.13592  0.24830  0.07260  Biso   1.000  Co
  H357     1.0000 0.21650  0.35390  0.06950  Biso   1.000  H
  N325     1.0000 0.06378  0.29722  0.16696  Biso   1.000  N
  N326     1.0000 0.18409  0.78391  0.53665  Biso   1.000  N
  N327     1.0000 0.20825  0.81070  0.53650  Biso   1.000  N
  C525     1.0000 0.17374  0.82027  0.58208  Biso   1.000  C
  C526     1.0000 0.15923  0.83780  0.61453  Biso   1.000  C
  C527     1.0000 0.12868  0.82421  0.63158  Biso   1.000  C
  H358     1.0000 0.11730  0.80330  0.62220  Biso   1.000  H
  C528     1.0000 0.16257  0.78932  0.56494  Biso   1.000  C
  H359     1.0000 0.14300  0.77440  0.57200  Biso   1.000  H
  Co120    1.0000 0.13592  0.74830  0.57260  Biso   1.000  Co
  H360     1.0000 0.21650  0.85390  0.56950  Biso   1.000  H
  N328     1.0000 0.06378  0.79722  0.66696  Biso   1.000  N
  N329     1.0000 0.31591  0.28391  0.46335  Biso   1.000  N
  N330     1.0000 0.29175  0.31070  0.46350  Biso   1.000  N
  C529     1.0000 0.32626  0.32027  0.41792  Biso   1.000  C
  C530     1.0000 0.34077  0.33780  0.38547  Biso   1.000  C
  C531     1.0000 0.37132  0.32421  0.36842  Biso   1.000  C
  H361     1.0000 0.38270  0.30330  0.37780  Biso   1.000  H
  C532     1.0000 0.33743  0.28932  0.43506  Biso   1.000  C
  H362     1.0000 0.35700  0.27440  0.42800  Biso   1.000  H
  Co121    1.0000 0.36408  0.24830  0.42740  Biso   1.000  Co
  H363     1.0000 0.28350  0.35390  0.43050  Biso   1.000  H
  N331     1.0000 0.43622  0.29722  0.33304  Biso   1.000  N
  N332     1.0000 0.31591  0.78391  0.96335  Biso   1.000  N
  N333     1.0000 0.29175  0.81070  0.96350  Biso   1.000  N
  C533     1.0000 0.32626  0.82027  0.91792  Biso   1.000  C
  C534     1.0000 0.34077  0.83780  0.88547  Biso   1.000  C
  C535     1.0000 0.37132  0.82421  0.86842  Biso   1.000  C
  H364     1.0000 0.38270  0.80330  0.87780  Biso   1.000  H
  C536     1.0000 0.33743  0.78932  0.93506  Biso   1.000  C
  H365     1.0000 0.35700  0.77440  0.92800  Biso   1.000  H
  Co122    1.0000 0.36408  0.74830  0.92740  Biso   1.000  Co
  H366     1.0000 0.28350  0.85390  0.93050  Biso   1.000  H
  N334     1.0000 0.43622  0.79722  0.83304  Biso   1.000  N
  N335     1.0000 0.81591  0.28391  0.96335  Biso   1.000  N
  N336     1.0000 0.79175  0.31070  0.96350  Biso   1.000  N
  C537     1.0000 0.82626  0.32027  0.91792  Biso   1.000  C
  C538     1.0000 0.84077  0.33780  0.88547  Biso   1.000  C
  C539     1.0000 0.87132  0.32421  0.86842  Biso   1.000  C
  H367     1.0000 0.88270  0.30330  0.87780  Biso   1.000  H
  C540     1.0000 0.83743  0.28932  0.93506  Biso   1.000  C
  H368     1.0000 0.85700  0.27440  0.92800  Biso   1.000  H
  Co123    1.0000 0.86408  0.24830  0.92740  Biso   1.000  Co
  H369     1.0000 0.78350  0.35390  0.93050  Biso   1.000  H
  N337     1.0000 0.93622  0.29722  0.83304  Biso   1.000  N
  N338     1.0000 0.81591  0.78391  0.46335  Biso   1.000  N
  N339     1.0000 0.79175  0.81070  0.46350  Biso   1.000  N
  C541     1.0000 0.82626  0.82027  0.41792  Biso   1.000  C
  C542     1.0000 0.84077  0.83780  0.38547  Biso   1.000  C
  C543     1.0000 0.87132  0.82421  0.36842  Biso   1.000  C
  H370     1.0000 0.88270  0.80330  0.37780  Biso   1.000  H
  C544     1.0000 0.83743  0.78932  0.43506  Biso   1.000  C
  H371     1.0000 0.85700  0.77440  0.42800  Biso   1.000  H
  Co124    1.0000 0.86408  0.74830  0.42740  Biso   1.000  Co
  H372     1.0000 0.78350  0.85390  0.43050  Biso   1.000  H
  N340     1.0000 0.93622  0.79722  0.33304  Biso   1.000  N
  N341     1.0000 0.31591  0.71609  0.53665  Biso   1.000  N
  N342     1.0000 0.29175  0.68930  0.53650  Biso   1.000  N
  C545     1.0000 0.32626  0.67973  0.58208  Biso   1.000  C
  C546     1.0000 0.34077  0.66220  0.61453  Biso   1.000  C
  C547     1.0000 0.37132  0.67579  0.63158  Biso   1.000  C
  H373     1.0000 0.38270  0.69670  0.62220  Biso   1.000  H
  C548     1.0000 0.33743  0.71068  0.56494  Biso   1.000  C
  H374     1.0000 0.35700  0.72560  0.57200  Biso   1.000  H
  Co125    1.0000 0.36408  0.75170  0.57260  Biso   1.000  Co
  H375     1.0000 0.28350  0.64610  0.56950  Biso   1.000  H
  N343     1.0000 0.43622  0.70278  0.66696  Biso   1.000  N
  N344     1.0000 0.31591  0.21609  0.03665  Biso   1.000  N
  N345     1.0000 0.29175  0.18930  0.03650  Biso   1.000  N
  C549     1.0000 0.32626  0.17973  0.08208  Biso   1.000  C
  C550     1.0000 0.34077  0.16220  0.11453  Biso   1.000  C
  C551     1.0000 0.37132  0.17579  0.13158  Biso   1.000  C
  H376     1.0000 0.38270  0.19670  0.12220  Biso   1.000  H
  C552     1.0000 0.33743  0.21068  0.06494  Biso   1.000  C
  H377     1.0000 0.35700  0.22560  0.07200  Biso   1.000  H
  Co126    1.0000 0.36408  0.25170  0.07260  Biso   1.000  Co
  H378     1.0000 0.28350  0.14610  0.06950  Biso   1.000  H
  N346     1.0000 0.43622  0.20278  0.16696  Biso   1.000  N
  N347     1.0000 0.81591  0.71609  0.03665  Biso   1.000  N
  N348     1.0000 0.79175  0.68930  0.03650  Biso   1.000  N
  C553     1.0000 0.82626  0.67973  0.08208  Biso   1.000  C
  C554     1.0000 0.84077  0.66220  0.11453  Biso   1.000  C
  C555     1.0000 0.87132  0.67579  0.13158  Biso   1.000  C
  H379     1.0000 0.88270  0.69670  0.12220  Biso   1.000  H
  C556     1.0000 0.83743  0.71068  0.06494  Biso   1.000  C
  H380     1.0000 0.85700  0.72560  0.07200  Biso   1.000  H
  Co127    1.0000 0.86408  0.75170  0.07260  Biso   1.000  Co
  H381     1.0000 0.78350  0.64610  0.06950  Biso   1.000  H
  N349     1.0000 0.93622  0.70278  0.16696  Biso   1.000  N
  N350     1.0000 0.81591  0.21609  0.53665  Biso   1.000  N
  N351     1.0000 0.79175  0.18930  0.53650  Biso   1.000  N
  C557     1.0000 0.82626  0.17973  0.58208  Biso   1.000  C
  C558     1.0000 0.84077  0.16220  0.61453  Biso   1.000  C
  C559     1.0000 0.87132  0.17579  0.63158  Biso   1.000  C
  H382     1.0000 0.88270  0.19670  0.62220  Biso   1.000  H
  C560     1.0000 0.83743  0.21068  0.56494  Biso   1.000  C
  H383     1.0000 0.85700  0.22560  0.57200  Biso   1.000  H
  Co128    1.0000 0.86408  0.25170  0.57260  Biso   1.000  Co
  H384     1.0000 0.78350  0.14610  0.56950  Biso   1.000  H
  N352     1.0000 0.93622  0.20278  0.66696  Biso   1.000  N
  N353     1.0000 0.46335  0.68409  0.71609  Biso   1.000  N
  N354     1.0000 0.46350  0.70825  0.68930  Biso   1.000  N
  C561     1.0000 0.41792  0.67374  0.67973  Biso   1.000  C
  C562     1.0000 0.38547  0.65923  0.66220  Biso   1.000  C
  C563     1.0000 0.36842  0.62868  0.67579  Biso   1.000  C
  H385     1.0000 0.37780  0.61730  0.69670  Biso   1.000  H
  C564     1.0000 0.43506  0.66257  0.71068  Biso   1.000  C
  H386     1.0000 0.42800  0.64300  0.72560  Biso   1.000  H
  Co129    1.0000 0.42740  0.63592  0.75170  Biso   1.000  Co
  H387     1.0000 0.43050  0.71650  0.64610  Biso   1.000  H
  N355     1.0000 0.46335  0.18409  0.21609  Biso   1.000  N
  N356     1.0000 0.46350  0.20825  0.18930  Biso   1.000  N
  C565     1.0000 0.41792  0.17374  0.17973  Biso   1.000  C
  C566     1.0000 0.38547  0.15923  0.16220  Biso   1.000  C
  C567     1.0000 0.36842  0.12868  0.17579  Biso   1.000  C
  H388     1.0000 0.37780  0.11730  0.19670  Biso   1.000  H
  C568     1.0000 0.43506  0.16257  0.21068  Biso   1.000  C
  H389     1.0000 0.42800  0.14300  0.22560  Biso   1.000  H
  Co130    1.0000 0.42740  0.13592  0.25170  Biso   1.000  Co
  H390     1.0000 0.43050  0.21650  0.14610  Biso   1.000  H
  N357     1.0000 0.96335  0.68409  0.21609  Biso   1.000  N
  N358     1.0000 0.96350  0.70825  0.18930  Biso   1.000  N
  C569     1.0000 0.91792  0.67374  0.17973  Biso   1.000  C
  C570     1.0000 0.88547  0.65923  0.16220  Biso   1.000  C
  C571     1.0000 0.86842  0.62868  0.17579  Biso   1.000  C
  H391     1.0000 0.87780  0.61730  0.19670  Biso   1.000  H
  C572     1.0000 0.93506  0.66257  0.21068  Biso   1.000  C
  H392     1.0000 0.92800  0.64300  0.22560  Biso   1.000  H
  Co131    1.0000 0.92740  0.63592  0.25170  Biso   1.000  Co
  H393     1.0000 0.93050  0.71650  0.14610  Biso   1.000  H
  N359     1.0000 0.96335  0.18409  0.71609  Biso   1.000  N
  N360     1.0000 0.96350  0.20825  0.68930  Biso   1.000  N
  C573     1.0000 0.91792  0.17374  0.67973  Biso   1.000  C
  C574     1.0000 0.88547  0.15923  0.66220  Biso   1.000  C
  C575     1.0000 0.86842  0.12868  0.67579  Biso   1.000  C
  H394     1.0000 0.87780  0.11730  0.69670  Biso   1.000  H
  C576     1.0000 0.93506  0.16257  0.71068  Biso   1.000  C
  H395     1.0000 0.92800  0.14300  0.72560  Biso   1.000  H
  Co132    1.0000 0.92740  0.13592  0.75170  Biso   1.000  Co
  H396     1.0000 0.93050  0.21650  0.64610  Biso   1.000  H
  N361     1.0000 0.53665  0.68409  0.28391  Biso   1.000  N
  N362     1.0000 0.53650  0.70825  0.31070  Biso   1.000  N
  C577     1.0000 0.58208  0.67374  0.32027  Biso   1.000  C
  C578     1.0000 0.61453  0.65923  0.33780  Biso   1.000  C
  C579     1.0000 0.63158  0.62868  0.32421  Biso   1.000  C
  H397     1.0000 0.62220  0.61730  0.30330  Biso   1.000  H
  C580     1.0000 0.56494  0.66257  0.28932  Biso   1.000  C
  H398     1.0000 0.57200  0.64300  0.27440  Biso   1.000  H
  Co133    1.0000 0.57260  0.63592  0.24830  Biso   1.000  Co
  H399     1.0000 0.56950  0.71650  0.35390  Biso   1.000  H
  N363     1.0000 0.53665  0.18409  0.78391  Biso   1.000  N
  N364     1.0000 0.53650  0.20825  0.81070  Biso   1.000  N
  C581     1.0000 0.58208  0.17374  0.82027  Biso   1.000  C
  C582     1.0000 0.61453  0.15923  0.83780  Biso   1.000  C
  C583     1.0000 0.63158  0.12868  0.82421  Biso   1.000  C
  H400     1.0000 0.62220  0.11730  0.80330  Biso   1.000  H
  C584     1.0000 0.56494  0.16257  0.78932  Biso   1.000  C
  H401     1.0000 0.57200  0.14300  0.77440  Biso   1.000  H
  Co134    1.0000 0.57260  0.13592  0.74830  Biso   1.000  Co
  H402     1.0000 0.56950  0.21650  0.85390  Biso   1.000  H
  N365     1.0000 0.03665  0.68409  0.78391  Biso   1.000  N
  N366     1.0000 0.03650  0.70825  0.81070  Biso   1.000  N
  C585     1.0000 0.08208  0.67374  0.82027  Biso   1.000  C
  C586     1.0000 0.11453  0.65923  0.83780  Biso   1.000  C
  C587     1.0000 0.13158  0.62868  0.82421  Biso   1.000  C
  H403     1.0000 0.12220  0.61730  0.80330  Biso   1.000  H
  C588     1.0000 0.06494  0.66257  0.78932  Biso   1.000  C
  H404     1.0000 0.07200  0.64300  0.77440  Biso   1.000  H
  Co135    1.0000 0.07260  0.63592  0.74830  Biso   1.000  Co
  H405     1.0000 0.06950  0.71650  0.85390  Biso   1.000  H
  N367     1.0000 0.03665  0.18409  0.28391  Biso   1.000  N
  N368     1.0000 0.03650  0.20825  0.31070  Biso   1.000  N
  C589     1.0000 0.08208  0.17374  0.32027  Biso   1.000  C
  C590     1.0000 0.11453  0.15923  0.33780  Biso   1.000  C
  C591     1.0000 0.13158  0.12868  0.32421  Biso   1.000  C
  H406     1.0000 0.12220  0.11730  0.30330  Biso   1.000  H
  C592     1.0000 0.06494  0.16257  0.28932  Biso   1.000  C
  H407     1.0000 0.07200  0.14300  0.27440  Biso   1.000  H
  Co136    1.0000 0.07260  0.13592  0.24830  Biso   1.000  Co
  H408     1.0000 0.06950  0.21650  0.35390  Biso   1.000  H
  N369     1.0000 0.46335  0.31591  0.28391  Biso   1.000  N
  N370     1.0000 0.46350  0.29175  0.31070  Biso   1.000  N
  C593     1.0000 0.41792  0.32626  0.32027  Biso   1.000  C
  C594     1.0000 0.38547  0.34077  0.33780  Biso   1.000  C
  C595     1.0000 0.36842  0.37132  0.32421  Biso   1.000  C
  H409     1.0000 0.37780  0.38270  0.30330  Biso   1.000  H
  C596     1.0000 0.43506  0.33743  0.28932  Biso   1.000  C
  H410     1.0000 0.42800  0.35700  0.27440  Biso   1.000  H
  Co137    1.0000 0.42740  0.36408  0.24830  Biso   1.000  Co
  H411     1.0000 0.43050  0.28350  0.35390  Biso   1.000  H
  N371     1.0000 0.46335  0.81591  0.78391  Biso   1.000  N
  N372     1.0000 0.46350  0.79175  0.81070  Biso   1.000  N
  C597     1.0000 0.41792  0.82626  0.82027  Biso   1.000  C
  C598     1.0000 0.38547  0.84077  0.83780  Biso   1.000  C
  C599     1.0000 0.36842  0.87132  0.82421  Biso   1.000  C
  H412     1.0000 0.37780  0.88270  0.80330  Biso   1.000  H
  C600     1.0000 0.43506  0.83743  0.78932  Biso   1.000  C
  H413     1.0000 0.42800  0.85700  0.77440  Biso   1.000  H
  Co138    1.0000 0.42740  0.86408  0.74830  Biso   1.000  Co
  H414     1.0000 0.43050  0.78350  0.85390  Biso   1.000  H
  N373     1.0000 0.96335  0.31591  0.78391  Biso   1.000  N
  N374     1.0000 0.96350  0.29175  0.81070  Biso   1.000  N
  C601     1.0000 0.91792  0.32626  0.82027  Biso   1.000  C
  C602     1.0000 0.88547  0.34077  0.83780  Biso   1.000  C
  C603     1.0000 0.86842  0.37132  0.82421  Biso   1.000  C
  H415     1.0000 0.87780  0.38270  0.80330  Biso   1.000  H
  C604     1.0000 0.93506  0.33743  0.78932  Biso   1.000  C
  H416     1.0000 0.92800  0.35700  0.77440  Biso   1.000  H
  Co139    1.0000 0.92740  0.36408  0.74830  Biso   1.000  Co
  H417     1.0000 0.93050  0.28350  0.85390  Biso   1.000  H
  N375     1.0000 0.96335  0.81591  0.28391  Biso   1.000  N
  N376     1.0000 0.96350  0.79175  0.31070  Biso   1.000  N
  C605     1.0000 0.91792  0.82626  0.32027  Biso   1.000  C
  C606     1.0000 0.88547  0.84077  0.33780  Biso   1.000  C
  C607     1.0000 0.86842  0.87132  0.32421  Biso   1.000  C
  H418     1.0000 0.87780  0.88270  0.30330  Biso   1.000  H
  C608     1.0000 0.93506  0.83743  0.28932  Biso   1.000  C
  H419     1.0000 0.92800  0.85700  0.27440  Biso   1.000  H
  Co140    1.0000 0.92740  0.86408  0.24830  Biso   1.000  Co
  H420     1.0000 0.93050  0.78350  0.35390  Biso   1.000  H
  N377     1.0000 0.53665  0.31591  0.71609  Biso   1.000  N
  N378     1.0000 0.53650  0.29175  0.68930  Biso   1.000  N
  C609     1.0000 0.58208  0.32626  0.67973  Biso   1.000  C
  C610     1.0000 0.61453  0.34077  0.66220  Biso   1.000  C
  C611     1.0000 0.63158  0.37132  0.67579  Biso   1.000  C
  H421     1.0000 0.62220  0.38270  0.69670  Biso   1.000  H
  C612     1.0000 0.56494  0.33743  0.71068  Biso   1.000  C
  H422     1.0000 0.57200  0.35700  0.72560  Biso   1.000  H
  Co141    1.0000 0.57260  0.36408  0.75170  Biso   1.000  Co
  H423     1.0000 0.56950  0.28350  0.64610  Biso   1.000  H
  N379     1.0000 0.53665  0.81591  0.21609  Biso   1.000  N
  N380     1.0000 0.53650  0.79175  0.18930  Biso   1.000  N
  C613     1.0000 0.58208  0.82626  0.17973  Biso   1.000  C
  C614     1.0000 0.61453  0.84077  0.16220  Biso   1.000  C
  C615     1.0000 0.63158  0.87132  0.17579  Biso   1.000  C
  H424     1.0000 0.62220  0.88270  0.19670  Biso   1.000  H
  C616     1.0000 0.56494  0.83743  0.21068  Biso   1.000  C
  H425     1.0000 0.57200  0.85700  0.22560  Biso   1.000  H
  Co142    1.0000 0.57260  0.86408  0.25170  Biso   1.000  Co
  H426     1.0000 0.56950  0.78350  0.14610  Biso   1.000  H
  N381     1.0000 0.03665  0.31591  0.21609  Biso   1.000  N
  N382     1.0000 0.03650  0.29175  0.18930  Biso   1.000  N
  C617     1.0000 0.08208  0.32626  0.17973  Biso   1.000  C
  C618     1.0000 0.11453  0.34077  0.16220  Biso   1.000  C
  C619     1.0000 0.13158  0.37132  0.17579  Biso   1.000  C
  H427     1.0000 0.12220  0.38270  0.19670  Biso   1.000  H
  C620     1.0000 0.06494  0.33743  0.21068  Biso   1.000  C
  H428     1.0000 0.07200  0.35700  0.22560  Biso   1.000  H
  Co143    1.0000 0.07260  0.36408  0.25170  Biso   1.000  Co
  H429     1.0000 0.06950  0.28350  0.14610  Biso   1.000  H
  N383     1.0000 0.03665  0.81591  0.71609  Biso   1.000  N
  N384     1.0000 0.03650  0.79175  0.68930  Biso   1.000  N
  C621     1.0000 0.08208  0.82626  0.67973  Biso   1.000  C
  C622     1.0000 0.11453  0.84077  0.66220  Biso   1.000  C
  C623     1.0000 0.13158  0.87132  0.67579  Biso   1.000  C
  H430     1.0000 0.12220  0.88270  0.69670  Biso   1.000  H
  C624     1.0000 0.06494  0.83743  0.71068  Biso   1.000  C
  H431     1.0000 0.07200  0.85700  0.72560  Biso   1.000  H
  Co144    1.0000 0.07260  0.86408  0.75170  Biso   1.000  Co
  H432     1.0000 0.06950  0.78350  0.64610  Biso   1.000  H
  N385     1.0000 0.96335  0.21609  0.81591  Biso   1.000  N
  N386     1.0000 0.96350  0.18930  0.79175  Biso   1.000  N
  C625     1.0000 0.91792  0.17973  0.82626  Biso   1.000  C
  C626     1.0000 0.88547  0.16220  0.84077  Biso   1.000  C
  C627     1.0000 0.86842  0.17579  0.87132  Biso   1.000  C
  H433     1.0000 0.87780  0.19670  0.88270  Biso   1.000  H
  C628     1.0000 0.93622  0.16696  0.79722  Biso   1.000  C
  C629     1.0000 0.93506  0.21068  0.83743  Biso   1.000  C
  H434     1.0000 0.92800  0.22560  0.85700  Biso   1.000  H
  Co145    1.0000 0.92740  0.25170  0.86408  Biso   1.000  Co
  H435     1.0000 0.93050  0.14610  0.78350  Biso   1.000  H
  N387     1.0000 0.83304  0.20278  0.93622  Biso   1.000  N
  N388     1.0000 0.96335  0.71609  0.31591  Biso   1.000  N
  N389     1.0000 0.96350  0.68930  0.29175  Biso   1.000  N
  C630     1.0000 0.91792  0.67973  0.32626  Biso   1.000  C
  C631     1.0000 0.88547  0.66220  0.34077  Biso   1.000  C
  C632     1.0000 0.86842  0.67579  0.37132  Biso   1.000  C
  H436     1.0000 0.87780  0.69670  0.38270  Biso   1.000  H
  C633     1.0000 0.93622  0.66696  0.29722  Biso   1.000  C
  C634     1.0000 0.93506  0.71068  0.33743  Biso   1.000  C
  H437     1.0000 0.92800  0.72560  0.35700  Biso   1.000  H
  Co146    1.0000 0.92740  0.75170  0.36408  Biso   1.000  Co
  H438     1.0000 0.93050  0.64610  0.28350  Biso   1.000  H
  N390     1.0000 0.83304  0.70278  0.43622  Biso   1.000  N
  N391     1.0000 0.46335  0.21609  0.31591  Biso   1.000  N
  N392     1.0000 0.46350  0.18930  0.29175  Biso   1.000  N
  C635     1.0000 0.41792  0.17973  0.32626  Biso   1.000  C
  C636     1.0000 0.38547  0.16220  0.34077  Biso   1.000  C
  C637     1.0000 0.36842  0.17579  0.37132  Biso   1.000  C
  H439     1.0000 0.37780  0.19670  0.38270  Biso   1.000  H
  C638     1.0000 0.43622  0.16696  0.29722  Biso   1.000  C
  C639     1.0000 0.43506  0.21068  0.33743  Biso   1.000  C
  H440     1.0000 0.42800  0.22560  0.35700  Biso   1.000  H
  Co147    1.0000 0.42740  0.25170  0.36408  Biso   1.000  Co
  H441     1.0000 0.43050  0.14610  0.28350  Biso   1.000  H
  N393     1.0000 0.33304  0.20278  0.43622  Biso   1.000  N
  N394     1.0000 0.46335  0.71609  0.81591  Biso   1.000  N
  N395     1.0000 0.46350  0.68930  0.79175  Biso   1.000  N
  C640     1.0000 0.41792  0.67973  0.82626  Biso   1.000  C
  C641     1.0000 0.38547  0.66220  0.84077  Biso   1.000  C
  C642     1.0000 0.36842  0.67579  0.87132  Biso   1.000  C
  H442     1.0000 0.37780  0.69670  0.88270  Biso   1.000  H
  C643     1.0000 0.43622  0.66696  0.79722  Biso   1.000  C
  C644     1.0000 0.43506  0.71068  0.83743  Biso   1.000  C
  H443     1.0000 0.42800  0.72560  0.85700  Biso   1.000  H
  Co148    1.0000 0.42740  0.75170  0.86408  Biso   1.000  Co
  H444     1.0000 0.43050  0.64610  0.78350  Biso   1.000  H
  N396     1.0000 0.33304  0.70278  0.93622  Biso   1.000  N
  N397     1.0000 0.03665  0.78391  0.81591  Biso   1.000  N
  N398     1.0000 0.03650  0.81070  0.79175  Biso   1.000  N
  C645     1.0000 0.08208  0.82027  0.82626  Biso   1.000  C
  C646     1.0000 0.11453  0.83780  0.84077  Biso   1.000  C
  C647     1.0000 0.13158  0.82421  0.87132  Biso   1.000  C
  H445     1.0000 0.12220  0.80330  0.88270  Biso   1.000  H
  C648     1.0000 0.06378  0.83304  0.79722  Biso   1.000  C
  C649     1.0000 0.06494  0.78932  0.83743  Biso   1.000  C
  H446     1.0000 0.07200  0.77440  0.85700  Biso   1.000  H
  Co149    1.0000 0.07260  0.74830  0.86408  Biso   1.000  Co
  H447     1.0000 0.06950  0.85390  0.78350  Biso   1.000  H
  N399     1.0000 0.16696  0.79722  0.93622  Biso   1.000  N
  N400     1.0000 0.03665  0.28391  0.31591  Biso   1.000  N
  N401     1.0000 0.03650  0.31070  0.29175  Biso   1.000  N
  C650     1.0000 0.08208  0.32027  0.32626  Biso   1.000  C
  C651     1.0000 0.11453  0.33780  0.34077  Biso   1.000  C
  C652     1.0000 0.13158  0.32421  0.37132  Biso   1.000  C
  H448     1.0000 0.12220  0.30330  0.38270  Biso   1.000  H
  C653     1.0000 0.06378  0.33304  0.29722  Biso   1.000  C
  C654     1.0000 0.06494  0.28932  0.33743  Biso   1.000  C
  H449     1.0000 0.07200  0.27440  0.35700  Biso   1.000  H
  Co150    1.0000 0.07260  0.24830  0.36408  Biso   1.000  Co
  H450     1.0000 0.06950  0.35390  0.28350  Biso   1.000  H
  N402     1.0000 0.16696  0.29722  0.43622  Biso   1.000  N
  N403     1.0000 0.53665  0.78391  0.31591  Biso   1.000  N
  N404     1.0000 0.53650  0.81070  0.29175  Biso   1.000  N
  C655     1.0000 0.58208  0.82027  0.32626  Biso   1.000  C
  C656     1.0000 0.61453  0.83780  0.34077  Biso   1.000  C
  C657     1.0000 0.63158  0.82421  0.37132  Biso   1.000  C
  H451     1.0000 0.62220  0.80330  0.38270  Biso   1.000  H
  C658     1.0000 0.56378  0.83304  0.29722  Biso   1.000  C
  C659     1.0000 0.56494  0.78932  0.33743  Biso   1.000  C
  H452     1.0000 0.57200  0.77440  0.35700  Biso   1.000  H
  Co151    1.0000 0.57260  0.74830  0.36408  Biso   1.000  Co
  H453     1.0000 0.56950  0.85390  0.28350  Biso   1.000  H
  N405     1.0000 0.66696  0.79722  0.43622  Biso   1.000  N
  N406     1.0000 0.53665  0.28391  0.81591  Biso   1.000  N
  N407     1.0000 0.53650  0.31070  0.79175  Biso   1.000  N
  C660     1.0000 0.58208  0.32027  0.82626  Biso   1.000  C
  C661     1.0000 0.61453  0.33780  0.84077  Biso   1.000  C
  C662     1.0000 0.63158  0.32421  0.87132  Biso   1.000  C
  H454     1.0000 0.62220  0.30330  0.88270  Biso   1.000  H
  C663     1.0000 0.56378  0.33304  0.79722  Biso   1.000  C
  C664     1.0000 0.56494  0.28932  0.83743  Biso   1.000  C
  H455     1.0000 0.57200  0.27440  0.85700  Biso   1.000  H
  Co152    1.0000 0.57260  0.24830  0.86408  Biso   1.000  Co
  H456     1.0000 0.56950  0.35390  0.78350  Biso   1.000  H
  N408     1.0000 0.66696  0.29722  0.93622  Biso   1.000  N
  N409     1.0000 0.96335  0.78391  0.18409  Biso   1.000  N
  N410     1.0000 0.96350  0.81070  0.20825  Biso   1.000  N
  C665     1.0000 0.91792  0.82027  0.17374  Biso   1.000  C
  C666     1.0000 0.88547  0.83780  0.15923  Biso   1.000  C
  C667     1.0000 0.86842  0.82421  0.12868  Biso   1.000  C
  H457     1.0000 0.87780  0.80330  0.11730  Biso   1.000  H
  C668     1.0000 0.93622  0.83304  0.20278  Biso   1.000  C
  C669     1.0000 0.93506  0.78932  0.16257  Biso   1.000  C
  H458     1.0000 0.92800  0.77440  0.14300  Biso   1.000  H
  Co153    1.0000 0.92740  0.74830  0.13592  Biso   1.000  Co
  H459     1.0000 0.93050  0.85390  0.21650  Biso   1.000  H
  N411     1.0000 0.83304  0.79722  0.06378  Biso   1.000  N
  N412     1.0000 0.96335  0.28391  0.68409  Biso   1.000  N
  N413     1.0000 0.96350  0.31070  0.70825  Biso   1.000  N
  C670     1.0000 0.91792  0.32027  0.67374  Biso   1.000  C
  C671     1.0000 0.88547  0.33780  0.65923  Biso   1.000  C
  C672     1.0000 0.86842  0.32421  0.62868  Biso   1.000  C
  H460     1.0000 0.87780  0.30330  0.61730  Biso   1.000  H
  C673     1.0000 0.93622  0.33304  0.70278  Biso   1.000  C
  C674     1.0000 0.93506  0.28932  0.66257  Biso   1.000  C
  H461     1.0000 0.92800  0.27440  0.64300  Biso   1.000  H
  Co154    1.0000 0.92740  0.24830  0.63592  Biso   1.000  Co
  H462     1.0000 0.93050  0.35390  0.71650  Biso   1.000  H
  N414     1.0000 0.83304  0.29722  0.56378  Biso   1.000  N
  N415     1.0000 0.46335  0.78391  0.68409  Biso   1.000  N
  N416     1.0000 0.46350  0.81070  0.70825  Biso   1.000  N
  C675     1.0000 0.41792  0.82027  0.67374  Biso   1.000  C
  C676     1.0000 0.38547  0.83780  0.65923  Biso   1.000  C
  C677     1.0000 0.36842  0.82421  0.62868  Biso   1.000  C
  H463     1.0000 0.37780  0.80330  0.61730  Biso   1.000  H
  C678     1.0000 0.43622  0.83304  0.70278  Biso   1.000  C
  C679     1.0000 0.43506  0.78932  0.66257  Biso   1.000  C
  H464     1.0000 0.42800  0.77440  0.64300  Biso   1.000  H
  Co155    1.0000 0.42740  0.74830  0.63592  Biso   1.000  Co
  H465     1.0000 0.43050  0.85390  0.71650  Biso   1.000  H
  N417     1.0000 0.33304  0.79722  0.56378  Biso   1.000  N
  N418     1.0000 0.46335  0.28391  0.18409  Biso   1.000  N
  N419     1.0000 0.46350  0.31070  0.20825  Biso   1.000  N
  C680     1.0000 0.41792  0.32027  0.17374  Biso   1.000  C
  C681     1.0000 0.38547  0.33780  0.15923  Biso   1.000  C
  C682     1.0000 0.36842  0.32421  0.12868  Biso   1.000  C
  H466     1.0000 0.37780  0.30330  0.11730  Biso   1.000  H
  C683     1.0000 0.43622  0.33304  0.20278  Biso   1.000  C
  C684     1.0000 0.43506  0.28932  0.16257  Biso   1.000  C
  H467     1.0000 0.42800  0.27440  0.14300  Biso   1.000  H
  Co156    1.0000 0.42740  0.24830  0.13592  Biso   1.000  Co
  H468     1.0000 0.43050  0.35390  0.21650  Biso   1.000  H
  N420     1.0000 0.33304  0.29722  0.06378  Biso   1.000  N
  N421     1.0000 0.03665  0.21609  0.18409  Biso   1.000  N
  N422     1.0000 0.03650  0.18930  0.20825  Biso   1.000  N
  C685     1.0000 0.08208  0.17973  0.17374  Biso   1.000  C
  C686     1.0000 0.11453  0.16220  0.15923  Biso   1.000  C
  C687     1.0000 0.13158  0.17579  0.12868  Biso   1.000  C
  H469     1.0000 0.12220  0.19670  0.11730  Biso   1.000  H
  C688     1.0000 0.06378  0.16696  0.20278  Biso   1.000  C
  C689     1.0000 0.06494  0.21068  0.16257  Biso   1.000  C
  H470     1.0000 0.07200  0.22560  0.14300  Biso   1.000  H
  Co157    1.0000 0.07260  0.25170  0.13592  Biso   1.000  Co
  H471     1.0000 0.06950  0.14610  0.21650  Biso   1.000  H
  N423     1.0000 0.16696  0.20278  0.06378  Biso   1.000  N
  N424     1.0000 0.03665  0.71609  0.68409  Biso   1.000  N
  N425     1.0000 0.03650  0.68930  0.70825  Biso   1.000  N
  C690     1.0000 0.08208  0.67973  0.67374  Biso   1.000  C
  C691     1.0000 0.11453  0.66220  0.65923  Biso   1.000  C
  C692     1.0000 0.13158  0.67579  0.62868  Biso   1.000  C
  H472     1.0000 0.12220  0.69670  0.61730  Biso   1.000  H
  C693     1.0000 0.06378  0.66696  0.70278  Biso   1.000  C
  C694     1.0000 0.06494  0.71068  0.66257  Biso   1.000  C
  H473     1.0000 0.07200  0.72560  0.64300  Biso   1.000  H
  Co158    1.0000 0.07260  0.75170  0.63592  Biso   1.000  Co
  H474     1.0000 0.06950  0.64610  0.71650  Biso   1.000  H
  N426     1.0000 0.16696  0.70278  0.56378  Biso   1.000  N
  N427     1.0000 0.53665  0.21609  0.68409  Biso   1.000  N
  N428     1.0000 0.53650  0.18930  0.70825  Biso   1.000  N
  C695     1.0000 0.58208  0.17973  0.67374  Biso   1.000  C
  C696     1.0000 0.61453  0.16220  0.65923  Biso   1.000  C
  C697     1.0000 0.63158  0.17579  0.62868  Biso   1.000  C
  H475     1.0000 0.62220  0.19670  0.61730  Biso   1.000  H
  C698     1.0000 0.56378  0.16696  0.70278  Biso   1.000  C
  C699     1.0000 0.56494  0.21068  0.66257  Biso   1.000  C
  H476     1.0000 0.57200  0.22560  0.64300  Biso   1.000  H
  Co159    1.0000 0.57260  0.25170  0.63592  Biso   1.000  Co
  H477     1.0000 0.56950  0.14610  0.71650  Biso   1.000  H
  N429     1.0000 0.66696  0.20278  0.56378  Biso   1.000  N
  N430     1.0000 0.53665  0.71609  0.18409  Biso   1.000  N
  N431     1.0000 0.53650  0.68930  0.20825  Biso   1.000  N
  C700     1.0000 0.58208  0.67973  0.17374  Biso   1.000  C
  C701     1.0000 0.61453  0.66220  0.15923  Biso   1.000  C
  C702     1.0000 0.63158  0.67579  0.12868  Biso   1.000  C
  H478     1.0000 0.62220  0.69670  0.11730  Biso   1.000  H
  C703     1.0000 0.56378  0.66696  0.20278  Biso   1.000  C
  C704     1.0000 0.56494  0.71068  0.16257  Biso   1.000  C
  H479     1.0000 0.57200  0.72560  0.14300  Biso   1.000  H
  Co160    1.0000 0.57260  0.75170  0.13592  Biso   1.000  Co
  H480     1.0000 0.56950  0.64610  0.21650  Biso   1.000  H
  N432     1.0000 0.66696  0.70278  0.06378  Biso   1.000  N
  N433     1.0000 0.21609  0.18409  0.03665  Biso   1.000  N
  N434     1.0000 0.18930  0.20825  0.03650  Biso   1.000  N
  C705     1.0000 0.17973  0.17374  0.08208  Biso   1.000  C
  C706     1.0000 0.16220  0.15923  0.11453  Biso   1.000  C
  C707     1.0000 0.17579  0.12868  0.13158  Biso   1.000  C
  H481     1.0000 0.19670  0.11730  0.12220  Biso   1.000  H
  C708     1.0000 0.21068  0.16257  0.06494  Biso   1.000  C
  H482     1.0000 0.22560  0.14300  0.07200  Biso   1.000  H
  Co161    1.0000 0.25170  0.13592  0.07260  Biso   1.000  Co
  H483     1.0000 0.14610  0.21650  0.06950  Biso   1.000  H
  N435     1.0000 0.20278  0.06378  0.16696  Biso   1.000  N
  N436     1.0000 0.21609  0.68409  0.53665  Biso   1.000  N
  N437     1.0000 0.18930  0.70825  0.53650  Biso   1.000  N
  C709     1.0000 0.17973  0.67374  0.58208  Biso   1.000  C
  C710     1.0000 0.16220  0.65923  0.61453  Biso   1.000  C
  C711     1.0000 0.17579  0.62868  0.63158  Biso   1.000  C
  H484     1.0000 0.19670  0.61730  0.62220  Biso   1.000  H
  C712     1.0000 0.21068  0.66257  0.56494  Biso   1.000  C
  H485     1.0000 0.22560  0.64300  0.57200  Biso   1.000  H
  Co162    1.0000 0.25170  0.63592  0.57260  Biso   1.000  Co
  H486     1.0000 0.14610  0.71650  0.56950  Biso   1.000  H
  N438     1.0000 0.20278  0.56378  0.66696  Biso   1.000  N
  N439     1.0000 0.71609  0.18409  0.53665  Biso   1.000  N
  N440     1.0000 0.68930  0.20825  0.53650  Biso   1.000  N
  C713     1.0000 0.67973  0.17374  0.58208  Biso   1.000  C
  C714     1.0000 0.66220  0.15923  0.61453  Biso   1.000  C
  C715     1.0000 0.67579  0.12868  0.63158  Biso   1.000  C
  H487     1.0000 0.69670  0.11730  0.62220  Biso   1.000  H
  C716     1.0000 0.71068  0.16257  0.56494  Biso   1.000  C
  H488     1.0000 0.72560  0.14300  0.57200  Biso   1.000  H
  Co163    1.0000 0.75170  0.13592  0.57260  Biso   1.000  Co
  H489     1.0000 0.64610  0.21650  0.56950  Biso   1.000  H
  N441     1.0000 0.70278  0.06378  0.66696  Biso   1.000  N
  N442     1.0000 0.71609  0.68409  0.03665  Biso   1.000  N
  N443     1.0000 0.68930  0.70825  0.03650  Biso   1.000  N
  C717     1.0000 0.67973  0.67374  0.08208  Biso   1.000  C
  C718     1.0000 0.66220  0.65923  0.11453  Biso   1.000  C
  C719     1.0000 0.67579  0.62868  0.13158  Biso   1.000  C
  H490     1.0000 0.69670  0.61730  0.12220  Biso   1.000  H
  C720     1.0000 0.71068  0.66257  0.06494  Biso   1.000  C
  H491     1.0000 0.72560  0.64300  0.07200  Biso   1.000  H
  Co164    1.0000 0.75170  0.63592  0.07260  Biso   1.000  Co
  H492     1.0000 0.64610  0.71650  0.06950  Biso   1.000  H
  N444     1.0000 0.70278  0.56378  0.16696  Biso   1.000  N
  N445     1.0000 0.78391  0.18409  0.96335  Biso   1.000  N
  N446     1.0000 0.81070  0.20825  0.96350  Biso   1.000  N
  C721     1.0000 0.82027  0.17374  0.91792  Biso   1.000  C
  C722     1.0000 0.83780  0.15923  0.88547  Biso   1.000  C
  C723     1.0000 0.82421  0.12868  0.86842  Biso   1.000  C
  H493     1.0000 0.80330  0.11730  0.87780  Biso   1.000  H
  C724     1.0000 0.78932  0.16257  0.93506  Biso   1.000  C
  H494     1.0000 0.77440  0.14300  0.92800  Biso   1.000  H
  Co165    1.0000 0.74830  0.13592  0.92740  Biso   1.000  Co
  H495     1.0000 0.85390  0.21650  0.93050  Biso   1.000  H
  N447     1.0000 0.79722  0.06378  0.83304  Biso   1.000  N
  N448     1.0000 0.78391  0.68409  0.46335  Biso   1.000  N
  N449     1.0000 0.81070  0.70825  0.46350  Biso   1.000  N
  C725     1.0000 0.82027  0.67374  0.41792  Biso   1.000  C
  C726     1.0000 0.83780  0.65923  0.38547  Biso   1.000  C
  C727     1.0000 0.82421  0.62868  0.36842  Biso   1.000  C
  H496     1.0000 0.80330  0.61730  0.37780  Biso   1.000  H
  C728     1.0000 0.78932  0.66257  0.43506  Biso   1.000  C
  H497     1.0000 0.77440  0.64300  0.42800  Biso   1.000  H
  Co166    1.0000 0.74830  0.63592  0.42740  Biso   1.000  Co
  H498     1.0000 0.85390  0.71650  0.43050  Biso   1.000  H
  N450     1.0000 0.79722  0.56378  0.33304  Biso   1.000  N
  N451     1.0000 0.28391  0.18409  0.46335  Biso   1.000  N
  N452     1.0000 0.31070  0.20825  0.46350  Biso   1.000  N
  C729     1.0000 0.32027  0.17374  0.41792  Biso   1.000  C
  C730     1.0000 0.33780  0.15923  0.38547  Biso   1.000  C
  C731     1.0000 0.32421  0.12868  0.36842  Biso   1.000  C
  H499     1.0000 0.30330  0.11730  0.37780  Biso   1.000  H
  C732     1.0000 0.28932  0.16257  0.43506  Biso   1.000  C
  H500     1.0000 0.27440  0.14300  0.42800  Biso   1.000  H
  Co167    1.0000 0.24830  0.13592  0.42740  Biso   1.000  Co
  H501     1.0000 0.35390  0.21650  0.43050  Biso   1.000  H
  N453     1.0000 0.29722  0.06378  0.33304  Biso   1.000  N
  N454     1.0000 0.28391  0.68409  0.96335  Biso   1.000  N
  N455     1.0000 0.31070  0.70825  0.96350  Biso   1.000  N
  C733     1.0000 0.32027  0.67374  0.91792  Biso   1.000  C
  C734     1.0000 0.33780  0.65923  0.88547  Biso   1.000  C
  C735     1.0000 0.32421  0.62868  0.86842  Biso   1.000  C
  H502     1.0000 0.30330  0.61730  0.87780  Biso   1.000  H
  C736     1.0000 0.28932  0.66257  0.93506  Biso   1.000  C
  H503     1.0000 0.27440  0.64300  0.92800  Biso   1.000  H
  Co168    1.0000 0.24830  0.63592  0.92740  Biso   1.000  Co
  H504     1.0000 0.35390  0.71650  0.93050  Biso   1.000  H
  N456     1.0000 0.29722  0.56378  0.83304  Biso   1.000  N
  N457     1.0000 0.78391  0.81591  0.03665  Biso   1.000  N
  N458     1.0000 0.81070  0.79175  0.03650  Biso   1.000  N
  C737     1.0000 0.82027  0.82626  0.08208  Biso   1.000  C
  C738     1.0000 0.83780  0.84077  0.11453  Biso   1.000  C
  C739     1.0000 0.82421  0.87132  0.13158  Biso   1.000  C
  H505     1.0000 0.80330  0.88270  0.12220  Biso   1.000  H
  C740     1.0000 0.78932  0.83743  0.06494  Biso   1.000  C
  H506     1.0000 0.77440  0.85700  0.07200  Biso   1.000  H
  Co169    1.0000 0.74830  0.86408  0.07260  Biso   1.000  Co
  H507     1.0000 0.85390  0.78350  0.06950  Biso   1.000  H
  N459     1.0000 0.79722  0.93622  0.16696  Biso   1.000  N
  N460     1.0000 0.78391  0.31591  0.53665  Biso   1.000  N
  N461     1.0000 0.81070  0.29175  0.53650  Biso   1.000  N
  C741     1.0000 0.82027  0.32626  0.58208  Biso   1.000  C
  C742     1.0000 0.83780  0.34077  0.61453  Biso   1.000  C
  C743     1.0000 0.82421  0.37132  0.63158  Biso   1.000  C
  H508     1.0000 0.80330  0.38270  0.62220  Biso   1.000  H
  C744     1.0000 0.78932  0.33743  0.56494  Biso   1.000  C
  H509     1.0000 0.77440  0.35700  0.57200  Biso   1.000  H
  Co170    1.0000 0.74830  0.36408  0.57260  Biso   1.000  Co
  H510     1.0000 0.85390  0.28350  0.56950  Biso   1.000  H
  N462     1.0000 0.79722  0.43622  0.66696  Biso   1.000  N
  N463     1.0000 0.28391  0.81591  0.53665  Biso   1.000  N
  N464     1.0000 0.31070  0.79175  0.53650  Biso   1.000  N
  C745     1.0000 0.32027  0.82626  0.58208  Biso   1.000  C
  C746     1.0000 0.33780  0.84077  0.61453  Biso   1.000  C
  C747     1.0000 0.32421  0.87132  0.63158  Biso   1.000  C
  H511     1.0000 0.30330  0.88270  0.62220  Biso   1.000  H
  C748     1.0000 0.28932  0.83743  0.56494  Biso   1.000  C
  H512     1.0000 0.27440  0.85700  0.57200  Biso   1.000  H
  Co171    1.0000 0.24830  0.86408  0.57260  Biso   1.000  Co
  H513     1.0000 0.35390  0.78350  0.56950  Biso   1.000  H
  N465     1.0000 0.29722  0.93622  0.66696  Biso   1.000  N
  N466     1.0000 0.28391  0.31591  0.03665  Biso   1.000  N
  N467     1.0000 0.31070  0.29175  0.03650  Biso   1.000  N
  C749     1.0000 0.32027  0.32626  0.08208  Biso   1.000  C
  C750     1.0000 0.33780  0.34077  0.11453  Biso   1.000  C
  C751     1.0000 0.32421  0.37132  0.13158  Biso   1.000  C
  H514     1.0000 0.30330  0.38270  0.12220  Biso   1.000  H
  C752     1.0000 0.28932  0.33743  0.06494  Biso   1.000  C
  H515     1.0000 0.27440  0.35700  0.07200  Biso   1.000  H
  Co172    1.0000 0.24830  0.36408  0.07260  Biso   1.000  Co
  H516     1.0000 0.35390  0.28350  0.06950  Biso   1.000  H
  N468     1.0000 0.29722  0.43622  0.16696  Biso   1.000  N
  N469     1.0000 0.21609  0.81591  0.96335  Biso   1.000  N
  N470     1.0000 0.18930  0.79175  0.96350  Biso   1.000  N
  C753     1.0000 0.17973  0.82626  0.91792  Biso   1.000  C
  C754     1.0000 0.16220  0.84077  0.88547  Biso   1.000  C
  C755     1.0000 0.17579  0.87132  0.86842  Biso   1.000  C
  H517     1.0000 0.19670  0.88270  0.87780  Biso   1.000  H
  C756     1.0000 0.21068  0.83743  0.93506  Biso   1.000  C
  H518     1.0000 0.22560  0.85700  0.92800  Biso   1.000  H
  Co173    1.0000 0.25170  0.86408  0.92740  Biso   1.000  Co
  H519     1.0000 0.14610  0.78350  0.93050  Biso   1.000  H
  N471     1.0000 0.20278  0.93622  0.83304  Biso   1.000  N
  N472     1.0000 0.21609  0.31591  0.46335  Biso   1.000  N
  N473     1.0000 0.18930  0.29175  0.46350  Biso   1.000  N
  C757     1.0000 0.17973  0.32626  0.41792  Biso   1.000  C
  C758     1.0000 0.16220  0.34077  0.38547  Biso   1.000  C
  C759     1.0000 0.17579  0.37132  0.36842  Biso   1.000  C
  H520     1.0000 0.19670  0.38270  0.37780  Biso   1.000  H
  C760     1.0000 0.21068  0.33743  0.43506  Biso   1.000  C
  H521     1.0000 0.22560  0.35700  0.42800  Biso   1.000  H
  Co174    1.0000 0.25170  0.36408  0.42740  Biso   1.000  Co
  H522     1.0000 0.14610  0.28350  0.43050  Biso   1.000  H
  N474     1.0000 0.20278  0.43622  0.33304  Biso   1.000  N
  N475     1.0000 0.71609  0.81591  0.46335  Biso   1.000  N
  N476     1.0000 0.68930  0.79175  0.46350  Biso   1.000  N
  C761     1.0000 0.67973  0.82626  0.41792  Biso   1.000  C
  C762     1.0000 0.66220  0.84077  0.38547  Biso   1.000  C
  C763     1.0000 0.67579  0.87132  0.36842  Biso   1.000  C
  H523     1.0000 0.69670  0.88270  0.37780  Biso   1.000  H
  C764     1.0000 0.71068  0.83743  0.43506  Biso   1.000  C
  H524     1.0000 0.72560  0.85700  0.42800  Biso   1.000  H
  Co175    1.0000 0.75170  0.86408  0.42740  Biso   1.000  Co
  H525     1.0000 0.64610  0.78350  0.43050  Biso   1.000  H
  N477     1.0000 0.70278  0.93622  0.33304  Biso   1.000  N
  N478     1.0000 0.71609  0.31591  0.96335  Biso   1.000  N
  N479     1.0000 0.68930  0.29175  0.96350  Biso   1.000  N
  C765     1.0000 0.67973  0.32626  0.91792  Biso   1.000  C
  C766     1.0000 0.66220  0.34077  0.88547  Biso   1.000  C
  C767     1.0000 0.67579  0.37132  0.86842  Biso   1.000  C
  H526     1.0000 0.69670  0.38270  0.87780  Biso   1.000  H
  C768     1.0000 0.71068  0.33743  0.93506  Biso   1.000  C
  H527     1.0000 0.72560  0.35700  0.92800  Biso   1.000  H
  Co176    1.0000 0.75170  0.36408  0.92740  Biso   1.000  Co
  H528     1.0000 0.64610  0.28350  0.93050  Biso   1.000  H
  N480     1.0000 0.70278  0.43622  0.83304  Biso   1.000  N
  N481     1.0000 0.18409  0.96335  0.78391  Biso   1.000  N
  N482     1.0000 0.20825  0.96350  0.81070  Biso   1.000  N
  C769     1.0000 0.17374  0.91792  0.82027  Biso   1.000  C
  C770     1.0000 0.15923  0.88547  0.83780  Biso   1.000  C
  C771     1.0000 0.12868  0.86842  0.82421  Biso   1.000  C
  H529     1.0000 0.11730  0.87780  0.80330  Biso   1.000  H
  C772     1.0000 0.16257  0.93506  0.78932  Biso   1.000  C
  H530     1.0000 0.14300  0.92800  0.77440  Biso   1.000  H
  Co177    1.0000 0.13592  0.92740  0.74830  Biso   1.000  Co
  H531     1.0000 0.21650  0.93050  0.85390  Biso   1.000  H
  N483     1.0000 0.18409  0.46335  0.28391  Biso   1.000  N
  N484     1.0000 0.20825  0.46350  0.31070  Biso   1.000  N
  C773     1.0000 0.17374  0.41792  0.32027  Biso   1.000  C
  C774     1.0000 0.15923  0.38547  0.33780  Biso   1.000  C
  C775     1.0000 0.12868  0.36842  0.32421  Biso   1.000  C
  H532     1.0000 0.11730  0.37780  0.30330  Biso   1.000  H
  C776     1.0000 0.16257  0.43506  0.28932  Biso   1.000  C
  H533     1.0000 0.14300  0.42800  0.27440  Biso   1.000  H
  Co178    1.0000 0.13592  0.42740  0.24830  Biso   1.000  Co
  H534     1.0000 0.21650  0.43050  0.35390  Biso   1.000  H
  N485     1.0000 0.68409  0.96335  0.28391  Biso   1.000  N
  N486     1.0000 0.70825  0.96350  0.31070  Biso   1.000  N
  C777     1.0000 0.67374  0.91792  0.32027  Biso   1.000  C
  C778     1.0000 0.65923  0.88547  0.33780  Biso   1.000  C
  C779     1.0000 0.62868  0.86842  0.32421  Biso   1.000  C
  H535     1.0000 0.61730  0.87780  0.30330  Biso   1.000  H
  C780     1.0000 0.66257  0.93506  0.28932  Biso   1.000  C
  H536     1.0000 0.64300  0.92800  0.27440  Biso   1.000  H
  Co179    1.0000 0.63592  0.92740  0.24830  Biso   1.000  Co
  H537     1.0000 0.71650  0.93050  0.35390  Biso   1.000  H
  N487     1.0000 0.68409  0.46335  0.78391  Biso   1.000  N
  N488     1.0000 0.70825  0.46350  0.81070  Biso   1.000  N
  C781     1.0000 0.67374  0.41792  0.82027  Biso   1.000  C
  C782     1.0000 0.65923  0.38547  0.83780  Biso   1.000  C
  C783     1.0000 0.62868  0.36842  0.82421  Biso   1.000  C
  H538     1.0000 0.61730  0.37780  0.80330  Biso   1.000  H
  C784     1.0000 0.66257  0.43506  0.78932  Biso   1.000  C
  H539     1.0000 0.64300  0.42800  0.77440  Biso   1.000  H
  Co180    1.0000 0.63592  0.42740  0.74830  Biso   1.000  Co
  H540     1.0000 0.71650  0.43050  0.85390  Biso   1.000  H
  N489     1.0000 0.18409  0.03665  0.21609  Biso   1.000  N
  N490     1.0000 0.20825  0.03650  0.18930  Biso   1.000  N
  C785     1.0000 0.17374  0.08208  0.17973  Biso   1.000  C
  C786     1.0000 0.15923  0.11453  0.16220  Biso   1.000  C
  C787     1.0000 0.12868  0.13158  0.17579  Biso   1.000  C
  H541     1.0000 0.11730  0.12220  0.19670  Biso   1.000  H
  C788     1.0000 0.16257  0.06494  0.21068  Biso   1.000  C
  H542     1.0000 0.14300  0.07200  0.22560  Biso   1.000  H
  Co181    1.0000 0.13592  0.07260  0.25170  Biso   1.000  Co
  H543     1.0000 0.21650  0.06950  0.14610  Biso   1.000  H
  N491     1.0000 0.18409  0.53665  0.71609  Biso   1.000  N
  N492     1.0000 0.20825  0.53650  0.68930  Biso   1.000  N
  C789     1.0000 0.17374  0.58208  0.67973  Biso   1.000  C
  C790     1.0000 0.15923  0.61453  0.66220  Biso   1.000  C
  C791     1.0000 0.12868  0.63158  0.67579  Biso   1.000  C
  H544     1.0000 0.11730  0.62220  0.69670  Biso   1.000  H
  C792     1.0000 0.16257  0.56494  0.71068  Biso   1.000  C
  H545     1.0000 0.14300  0.57200  0.72560  Biso   1.000  H
  Co182    1.0000 0.13592  0.57260  0.75170  Biso   1.000  Co
  H546     1.0000 0.21650  0.56950  0.64610  Biso   1.000  H
  N493     1.0000 0.68409  0.03665  0.71609  Biso   1.000  N
  N494     1.0000 0.70825  0.03650  0.68930  Biso   1.000  N
  C793     1.0000 0.67374  0.08208  0.67973  Biso   1.000  C
  C794     1.0000 0.65923  0.11453  0.66220  Biso   1.000  C
  C795     1.0000 0.62868  0.13158  0.67579  Biso   1.000  C
  H547     1.0000 0.61730  0.12220  0.69670  Biso   1.000  H
  C796     1.0000 0.66257  0.06494  0.71068  Biso   1.000  C
  H548     1.0000 0.64300  0.07200  0.72560  Biso   1.000  H
  Co183    1.0000 0.63592  0.07260  0.75170  Biso   1.000  Co
  H549     1.0000 0.71650  0.06950  0.64610  Biso   1.000  H
  N495     1.0000 0.68409  0.53665  0.21609  Biso   1.000  N
  N496     1.0000 0.70825  0.53650  0.18930  Biso   1.000  N
  C797     1.0000 0.67374  0.58208  0.17973  Biso   1.000  C
  C798     1.0000 0.65923  0.61453  0.16220  Biso   1.000  C
  C799     1.0000 0.62868  0.63158  0.17579  Biso   1.000  C
  H550     1.0000 0.61730  0.62220  0.19670  Biso   1.000  H
  C800     1.0000 0.66257  0.56494  0.21068  Biso   1.000  C
  H551     1.0000 0.64300  0.57200  0.22560  Biso   1.000  H
  Co184    1.0000 0.63592  0.57260  0.25170  Biso   1.000  Co
  H552     1.0000 0.71650  0.56950  0.14610  Biso   1.000  H
  N497     1.0000 0.81591  0.96335  0.21609  Biso   1.000  N
  N498     1.0000 0.79175  0.96350  0.18930  Biso   1.000  N
  C801     1.0000 0.82626  0.91792  0.17973  Biso   1.000  C
  C802     1.0000 0.84077  0.88547  0.16220  Biso   1.000  C
  C803     1.0000 0.87132  0.86842  0.17579  Biso   1.000  C
  H553     1.0000 0.88270  0.87780  0.19670  Biso   1.000  H
  C804     1.0000 0.83743  0.93506  0.21068  Biso   1.000  C
  H554     1.0000 0.85700  0.92800  0.22560  Biso   1.000  H
  Co185    1.0000 0.86408  0.92740  0.25170  Biso   1.000  Co
  H555     1.0000 0.78350  0.93050  0.14610  Biso   1.000  H
  N499     1.0000 0.81591  0.46335  0.71609  Biso   1.000  N
  N500     1.0000 0.79175  0.46350  0.68930  Biso   1.000  N
  C805     1.0000 0.82626  0.41792  0.67973  Biso   1.000  C
  C806     1.0000 0.84077  0.38547  0.66220  Biso   1.000  C
  C807     1.0000 0.87132  0.36842  0.67579  Biso   1.000  C
  H556     1.0000 0.88270  0.37780  0.69670  Biso   1.000  H
  C808     1.0000 0.83743  0.43506  0.71068  Biso   1.000  C
  H557     1.0000 0.85700  0.42800  0.72560  Biso   1.000  H
  Co186    1.0000 0.86408  0.42740  0.75170  Biso   1.000  Co
  H558     1.0000 0.78350  0.43050  0.64610  Biso   1.000  H
  N501     1.0000 0.31591  0.96335  0.71609  Biso   1.000  N
  N502     1.0000 0.29175  0.96350  0.68930  Biso   1.000  N
  C809     1.0000 0.32626  0.91792  0.67973  Biso   1.000  C
  C810     1.0000 0.34077  0.88547  0.66220  Biso   1.000  C
  C811     1.0000 0.37132  0.86842  0.67579  Biso   1.000  C
  H559     1.0000 0.38270  0.87780  0.69670  Biso   1.000  H
  C812     1.0000 0.33743  0.93506  0.71068  Biso   1.000  C
  H560     1.0000 0.35700  0.92800  0.72560  Biso   1.000  H
  Co187    1.0000 0.36408  0.92740  0.75170  Biso   1.000  Co
  H561     1.0000 0.28350  0.93050  0.64610  Biso   1.000  H
  N503     1.0000 0.31591  0.46335  0.21609  Biso   1.000  N
  N504     1.0000 0.29175  0.46350  0.18930  Biso   1.000  N
  C813     1.0000 0.32626  0.41792  0.17973  Biso   1.000  C
  C814     1.0000 0.34077  0.38547  0.16220  Biso   1.000  C
  C815     1.0000 0.37132  0.36842  0.17579  Biso   1.000  C
  H562     1.0000 0.38270  0.37780  0.19670  Biso   1.000  H
  C816     1.0000 0.33743  0.43506  0.21068  Biso   1.000  C
  H563     1.0000 0.35700  0.42800  0.22560  Biso   1.000  H
  Co188    1.0000 0.36408  0.42740  0.25170  Biso   1.000  Co
  H564     1.0000 0.28350  0.43050  0.14610  Biso   1.000  H
  N505     1.0000 0.81591  0.03665  0.78391  Biso   1.000  N
  N506     1.0000 0.79175  0.03650  0.81070  Biso   1.000  N
  C817     1.0000 0.82626  0.08208  0.82027  Biso   1.000  C
  C818     1.0000 0.84077  0.11453  0.83780  Biso   1.000  C
  C819     1.0000 0.87132  0.13158  0.82421  Biso   1.000  C
  H565     1.0000 0.88270  0.12220  0.80330  Biso   1.000  H
  C820     1.0000 0.83743  0.06494  0.78932  Biso   1.000  C
  H566     1.0000 0.85700  0.07200  0.77440  Biso   1.000  H
  Co189    1.0000 0.86408  0.07260  0.74830  Biso   1.000  Co
  H567     1.0000 0.78350  0.06950  0.85390  Biso   1.000  H
  N507     1.0000 0.81591  0.53665  0.28391  Biso   1.000  N
  N508     1.0000 0.79175  0.53650  0.31070  Biso   1.000  N
  C821     1.0000 0.82626  0.58208  0.32027  Biso   1.000  C
  C822     1.0000 0.84077  0.61453  0.33780  Biso   1.000  C
  C823     1.0000 0.87132  0.63158  0.32421  Biso   1.000  C
  H568     1.0000 0.88270  0.62220  0.30330  Biso   1.000  H
  C824     1.0000 0.83743  0.56494  0.28932  Biso   1.000  C
  H569     1.0000 0.85700  0.57200  0.27440  Biso   1.000  H
  Co190    1.0000 0.86408  0.57260  0.24830  Biso   1.000  Co
  H570     1.0000 0.78350  0.56950  0.35390  Biso   1.000  H
  N509     1.0000 0.31591  0.03665  0.28391  Biso   1.000  N
  N510     1.0000 0.29175  0.03650  0.31070  Biso   1.000  N
  C825     1.0000 0.32626  0.08208  0.32027  Biso   1.000  C
  C826     1.0000 0.34077  0.11453  0.33780  Biso   1.000  C
  C827     1.0000 0.37132  0.13158  0.32421  Biso   1.000  C
  H571     1.0000 0.38270  0.12220  0.30330  Biso   1.000  H
  C828     1.0000 0.33743  0.06494  0.28932  Biso   1.000  C
  H572     1.0000 0.35700  0.07200  0.27440  Biso   1.000  H
  Co191    1.0000 0.36408  0.07260  0.24830  Biso   1.000  Co
  H573     1.0000 0.28350  0.06950  0.35390  Biso   1.000  H
  N511     1.0000 0.31591  0.53665  0.78391  Biso   1.000  N
  N512     1.0000 0.29175  0.53650  0.81070  Biso   1.000  N
  C829     1.0000 0.32626  0.58208  0.82027  Biso   1.000  C
  C830     1.0000 0.34077  0.61453  0.83780  Biso   1.000  C
  C831     1.0000 0.37132  0.63158  0.82421  Biso   1.000  C
  H574     1.0000 0.38270  0.62220  0.80330  Biso   1.000  H
  C832     1.0000 0.33743  0.56494  0.78932  Biso   1.000  C
  H575     1.0000 0.35700  0.57200  0.77440  Biso   1.000  H
  Co192    1.0000 0.36408  0.57260  0.74830  Biso   1.000  Co
  H576     1.0000 0.28350  0.56950  0.85390  Biso   1.000  H
  Co193    1.0000 0.24613  0.50000  0.31374  Biso   1.000  Co
  Co194    1.0000 0.24613  0.00000  0.81374  Biso   1.000  Co
  Co195    1.0000 0.74613  0.50000  0.81374  Biso   1.000  Co
  Co196    1.0000 0.74613  0.00000  0.31374  Biso   1.000  Co
  Co197    1.0000 0.75387  0.50000  0.31374  Biso   1.000  Co
  Co198    1.0000 0.75387  0.00000  0.81374  Biso   1.000  Co
  Co199    1.0000 0.25387  0.50000  0.81374  Biso   1.000  Co
  Co200    1.0000 0.25387  0.00000  0.31374  Biso   1.000  Co
  Co201    1.0000 0.75387  0.50000  0.68626  Biso   1.000  Co
  Co202    1.0000 0.75387  0.00000  0.18626  Biso   1.000  Co
  Co203    1.0000 0.25387  0.50000  0.18626  Biso   1.000  Co
  Co204    1.0000 0.25387  0.00000  0.68626  Biso   1.000  Co
  Co205    1.0000 0.24613  0.50000  0.68626  Biso   1.000  Co
  Co206    1.0000 0.24613  0.00000  0.18626  Biso   1.000  Co
  Co207    1.0000 0.74613  0.50000  0.18626  Biso   1.000  Co
  Co208    1.0000 0.74613  0.00000  0.68626  Biso   1.000  Co
  Co209    1.0000 0.31374  0.24613  0.50000  Biso   1.000  Co
  Co210    1.0000 0.31374  0.74613  0.00000  Biso   1.000  Co
  Co211    1.0000 0.81374  0.24613  0.00000  Biso   1.000  Co
  Co212    1.0000 0.81374  0.74613  0.50000  Biso   1.000  Co
  Co213    1.0000 0.31374  0.75387  0.50000  Biso   1.000  Co
  Co214    1.0000 0.31374  0.25387  0.00000  Biso   1.000  Co
  Co215    1.0000 0.81374  0.75387  0.00000  Biso   1.000  Co
  Co216    1.0000 0.81374  0.25387  0.50000  Biso   1.000  Co
  Co217    1.0000 0.68626  0.75387  0.50000  Biso   1.000  Co
  Co218    1.0000 0.68626  0.25387  0.00000  Biso   1.000  Co
  Co219    1.0000 0.18626  0.75387  0.00000  Biso   1.000  Co
  Co220    1.0000 0.18626  0.25387  0.50000  Biso   1.000  Co
  Co221    1.0000 0.68626  0.24613  0.50000  Biso   1.000  Co
  Co222    1.0000 0.68626  0.74613  0.00000  Biso   1.000  Co
  Co223    1.0000 0.18626  0.24613  0.00000  Biso   1.000  Co
  Co224    1.0000 0.18626  0.74613  0.50000  Biso   1.000  Co
  Co225    1.0000 0.50000  0.31374  0.24613  Biso   1.000  Co
  Co226    1.0000 0.50000  0.81374  0.74613  Biso   1.000  Co
  Co227    1.0000 0.00000  0.31374  0.74613  Biso   1.000  Co
  Co228    1.0000 0.00000  0.81374  0.24613  Biso   1.000  Co
  Co229    1.0000 0.50000  0.31374  0.75387  Biso   1.000  Co
  Co230    1.0000 0.50000  0.81374  0.25387  Biso   1.000  Co
  Co231    1.0000 0.00000  0.31374  0.25387  Biso   1.000  Co
  Co232    1.0000 0.00000  0.81374  0.75387  Biso   1.000  Co
  Co233    1.0000 0.50000  0.68626  0.75387  Biso   1.000  Co
  Co234    1.0000 0.50000  0.18626  0.25387  Biso   1.000  Co
  Co235    1.0000 0.00000  0.68626  0.25387  Biso   1.000  Co
  Co236    1.0000 0.00000  0.18626  0.75387  Biso   1.000  Co
  Co237    1.0000 0.50000  0.68626  0.24613  Biso   1.000  Co
  Co238    1.0000 0.50000  0.18626  0.74613  Biso   1.000  Co
  Co239    1.0000 0.00000  0.68626  0.74613  Biso   1.000  Co
  Co240    1.0000 0.00000  0.18626  0.24613  Biso   1.000  Co
  Co241    1.0000 0.00000  0.74613  0.18626  Biso   1.000  Co
  Co242    1.0000 0.00000  0.24613  0.68626  Biso   1.000  Co
  Co243    1.0000 0.50000  0.74613  0.68626  Biso   1.000  Co
  Co244    1.0000 0.50000  0.24613  0.18626  Biso   1.000  Co
  Co245    1.0000 0.00000  0.25387  0.18626  Biso   1.000  Co
  Co246    1.0000 0.00000  0.75387  0.68626  Biso   1.000  Co
  Co247    1.0000 0.50000  0.25387  0.68626  Biso   1.000  Co
  Co248    1.0000 0.50000  0.75387  0.18626  Biso   1.000  Co
  Co249    1.0000 0.00000  0.25387  0.81374  Biso   1.000  Co
  Co250    1.0000 0.00000  0.75387  0.31374  Biso   1.000  Co
  Co251    1.0000 0.50000  0.25387  0.31374  Biso   1.000  Co
  Co252    1.0000 0.50000  0.75387  0.81374  Biso   1.000  Co
  Co253    1.0000 0.00000  0.74613  0.81374  Biso   1.000  Co
  Co254    1.0000 0.00000  0.24613  0.31374  Biso   1.000  Co
  Co255    1.0000 0.50000  0.74613  0.31374  Biso   1.000  Co
  Co256    1.0000 0.50000  0.24613  0.81374  Biso   1.000  Co
  Co257    1.0000 0.74613  0.81374  0.00000  Biso   1.000  Co
  Co258    1.0000 0.74613  0.31374  0.50000  Biso   1.000  Co
  Co259    1.0000 0.24613  0.81374  0.50000  Biso   1.000  Co
  Co260    1.0000 0.24613  0.31374  0.00000  Biso   1.000  Co
  Co261    1.0000 0.25387  0.81374  0.00000  Biso   1.000  Co
  Co262    1.0000 0.25387  0.31374  0.50000  Biso   1.000  Co
  Co263    1.0000 0.75387  0.81374  0.50000  Biso   1.000  Co
  Co264    1.0000 0.75387  0.31374  0.00000  Biso   1.000  Co
  Co265    1.0000 0.25387  0.18626  0.00000  Biso   1.000  Co
  Co266    1.0000 0.25387  0.68626  0.50000  Biso   1.000  Co
  Co267    1.0000 0.75387  0.18626  0.50000  Biso   1.000  Co
  Co268    1.0000 0.75387  0.68626  0.00000  Biso   1.000  Co
  Co269    1.0000 0.74613  0.18626  0.00000  Biso   1.000  Co
  Co270    1.0000 0.74613  0.68626  0.50000  Biso   1.000  Co
  Co271    1.0000 0.24613  0.18626  0.50000  Biso   1.000  Co
  Co272    1.0000 0.24613  0.68626  0.00000  Biso   1.000  Co
  Co273    1.0000 0.81374  0.00000  0.25387  Biso   1.000  Co
  Co274    1.0000 0.81374  0.50000  0.75387  Biso   1.000  Co
  Co275    1.0000 0.31374  0.00000  0.75387  Biso   1.000  Co
  Co276    1.0000 0.31374  0.50000  0.25387  Biso   1.000  Co
  Co277    1.0000 0.81374  0.00000  0.74613  Biso   1.000  Co
  Co278    1.0000 0.81374  0.50000  0.24613  Biso   1.000  Co
  Co279    1.0000 0.31374  0.00000  0.24613  Biso   1.000  Co
  Co280    1.0000 0.31374  0.50000  0.74613  Biso   1.000  Co
  Co281    1.0000 0.18626  0.00000  0.74613  Biso   1.000  Co
  Co282    1.0000 0.18626  0.50000  0.24613  Biso   1.000  Co
  Co283    1.0000 0.68626  0.00000  0.24613  Biso   1.000  Co
  Co284    1.0000 0.68626  0.50000  0.74613  Biso   1.000  Co
  Co285    1.0000 0.18626  0.00000  0.25387  Biso   1.000  Co
  Co286    1.0000 0.18626  0.50000  0.75387  Biso   1.000  Co
  Co287    1.0000 0.68626  0.00000  0.75387  Biso   1.000  Co
  Co288    1.0000 0.68626  0.50000  0.25387  Biso   1.000  Co
  Cl1      1.0000 0.25000  0.50000  0.25000  Biso   1.000  Cl
  Cl2      1.0000 0.25000  0.00000  0.75000  Biso   1.000  Cl
  Cl3      1.0000 0.75000  0.00000  0.25000  Biso   1.000  Cl
  Cl4      1.0000 0.75000  0.50000  0.25000  Biso   1.000  Cl
  Cl5      1.0000 0.25000  0.00000  0.25000  Biso   1.000  Cl
  Cl6      1.0000 0.75000  0.50000  0.75000  Biso   1.000  Cl
  Cl7      1.0000 0.25000  0.50000  0.75000  Biso   1.000  Cl
  Cl8      1.0000 0.25000  0.25000  0.50000  Biso   1.000  Cl
  Cl9      1.0000 0.25000  0.75000  0.00000  Biso   1.000  Cl
  Cl10     1.0000 0.75000  0.25000  0.00000  Biso   1.000  Cl
  Cl11     1.0000 0.25000  0.75000  0.50000  Biso   1.000  Cl
  Cl12     1.0000 0.25000  0.25000  0.00000  Biso   1.000  Cl
  Cl13     1.0000 0.75000  0.75000  0.50000  Biso   1.000  Cl
  Cl14     1.0000 0.75000  0.25000  0.50000  Biso   1.000  Cl
  Cl15     1.0000 0.50000  0.25000  0.25000  Biso   1.000  Cl
  Cl16     1.0000 0.00000  0.25000  0.75000  Biso   1.000  Cl
  Cl17     1.0000 0.00000  0.75000  0.25000  Biso   1.000  Cl
  Cl18     1.0000 0.50000  0.25000  0.75000  Biso   1.000  Cl
  Cl19     1.0000 0.00000  0.25000  0.25000  Biso   1.000  Cl
  Cl20     1.0000 0.50000  0.75000  0.75000  Biso   1.000  Cl
  Cl21     1.0000 0.50000  0.75000  0.25000  Biso   1.000  Cl
  Cl22     1.0000 0.00000  0.75000  0.75000  Biso   1.000  Cl
  Cl23     1.0000 0.75000  0.75000  0.00000  Biso   1.000  Cl
  Cl24     1.0000 0.75000  0.00000  0.75000  Biso   1.000  Cl
