data_image0
_cell_length_a       37.7048
_cell_length_b       37.7048
_cell_length_c       37.7048
_cell_angle_alpha    90
_cell_angle_beta     90
_cell_angle_gamma    90

_symmetry_space_group_name_H-M    "P 1"
_symmetry_int_tables_number       1

loop_
  _symmetry_equiv_pos_as_xyz
  'x, y, z'

loop_
  _atom_site_label
  _atom_site_occupancy
  _atom_site_fract_x
  _atom_site_fract_y
  _atom_site_fract_z
  _atom_site_thermal_displace_type
  _atom_site_B_iso_or_equiv
  _atom_site_type_symbol
  N1       1.0000 0.68299  0.46194  0.28527  Biso   1.000  N
  N2       1.0000 0.70678  0.46194  0.31211  Biso   1.000  N
  N3       1.0000 0.70131  0.43492  0.33377  Biso   1.000  N
  C1       1.0000 0.66224  0.43388  0.29014  Biso   1.000  C
  H1       1.0000 0.64350  0.42700  0.27560  Biso   1.000  H
  C2       1.0000 0.67329  0.41677  0.32053  Biso   1.000  C
  C3       1.0000 0.65929  0.38450  0.33775  Biso   1.000  C
  C4       1.0000 0.62944  0.36763  0.32424  Biso   1.000  C
  H2       1.0000 0.61860  0.37650  0.30390  Biso   1.000  H
  N4       1.0000 0.68299  0.96194  0.78527  Biso   1.000  N
  N5       1.0000 0.70678  0.96194  0.81211  Biso   1.000  N
  N6       1.0000 0.70131  0.93492  0.83377  Biso   1.000  N
  C5       1.0000 0.66224  0.93388  0.79014  Biso   1.000  C
  H3       1.0000 0.64350  0.92700  0.77560  Biso   1.000  H
  C6       1.0000 0.67329  0.91677  0.82053  Biso   1.000  C
  C7       1.0000 0.65929  0.88450  0.83775  Biso   1.000  C
  C8       1.0000 0.62944  0.86763  0.82424  Biso   1.000  C
  H4       1.0000 0.61860  0.87650  0.80390  Biso   1.000  H
  N7       1.0000 0.18299  0.46194  0.78527  Biso   1.000  N
  N8       1.0000 0.20678  0.46194  0.81211  Biso   1.000  N
  N9       1.0000 0.20131  0.43492  0.83377  Biso   1.000  N
  C9       1.0000 0.16224  0.43388  0.79014  Biso   1.000  C
  H5       1.0000 0.14350  0.42700  0.77560  Biso   1.000  H
  C10      1.0000 0.17329  0.41677  0.82053  Biso   1.000  C
  C11      1.0000 0.15929  0.38450  0.83775  Biso   1.000  C
  C12      1.0000 0.12944  0.36763  0.82424  Biso   1.000  C
  H6       1.0000 0.11860  0.37650  0.80390  Biso   1.000  H
  N10      1.0000 0.18299  0.96194  0.28527  Biso   1.000  N
  N11      1.0000 0.20678  0.96194  0.31211  Biso   1.000  N
  N12      1.0000 0.20131  0.93492  0.33377  Biso   1.000  N
  C13      1.0000 0.16224  0.93388  0.29014  Biso   1.000  C
  H7       1.0000 0.14350  0.92700  0.27560  Biso   1.000  H
  C14      1.0000 0.17329  0.91677  0.32053  Biso   1.000  C
  C15      1.0000 0.15929  0.88450  0.33775  Biso   1.000  C
  C16      1.0000 0.12944  0.86763  0.32424  Biso   1.000  C
  H8       1.0000 0.11860  0.87650  0.30390  Biso   1.000  H
  N13      1.0000 0.31701  0.53806  0.28527  Biso   1.000  N
  N14      1.0000 0.29322  0.53806  0.31211  Biso   1.000  N
  N15      1.0000 0.29869  0.56508  0.33377  Biso   1.000  N
  C17      1.0000 0.33776  0.56612  0.29014  Biso   1.000  C
  H9       1.0000 0.35650  0.57300  0.27560  Biso   1.000  H
  C18      1.0000 0.32671  0.58323  0.32053  Biso   1.000  C
  C19      1.0000 0.34071  0.61550  0.33775  Biso   1.000  C
  C20      1.0000 0.37056  0.63237  0.32424  Biso   1.000  C
  H10      1.0000 0.38140  0.62350  0.30390  Biso   1.000  H
  N16      1.0000 0.31701  0.03806  0.78527  Biso   1.000  N
  N17      1.0000 0.29322  0.03806  0.81211  Biso   1.000  N
  N18      1.0000 0.29869  0.06508  0.83377  Biso   1.000  N
  C21      1.0000 0.33776  0.06612  0.79014  Biso   1.000  C
  H11      1.0000 0.35650  0.07300  0.77560  Biso   1.000  H
  C22      1.0000 0.32671  0.08323  0.82053  Biso   1.000  C
  C23      1.0000 0.34071  0.11550  0.83775  Biso   1.000  C
  C24      1.0000 0.37056  0.13237  0.82424  Biso   1.000  C
  H12      1.0000 0.38140  0.12350  0.80390  Biso   1.000  H
  N19      1.0000 0.81701  0.53806  0.78527  Biso   1.000  N
  N20      1.0000 0.79322  0.53806  0.81211  Biso   1.000  N
  N21      1.0000 0.79869  0.56508  0.83377  Biso   1.000  N
  C25      1.0000 0.83776  0.56612  0.79014  Biso   1.000  C
  H13      1.0000 0.85650  0.57300  0.77560  Biso   1.000  H
  C26      1.0000 0.82671  0.58323  0.82053  Biso   1.000  C
  C27      1.0000 0.84071  0.61550  0.83775  Biso   1.000  C
  C28      1.0000 0.87056  0.63237  0.82424  Biso   1.000  C
  H14      1.0000 0.88140  0.62350  0.80390  Biso   1.000  H
  N22      1.0000 0.81701  0.03806  0.28527  Biso   1.000  N
  N23      1.0000 0.79322  0.03806  0.31211  Biso   1.000  N
  N24      1.0000 0.79869  0.06508  0.33377  Biso   1.000  N
  C29      1.0000 0.83776  0.06612  0.29014  Biso   1.000  C
  H15      1.0000 0.85650  0.07300  0.27560  Biso   1.000  H
  C30      1.0000 0.82671  0.08323  0.32053  Biso   1.000  C
  C31      1.0000 0.84071  0.11550  0.33775  Biso   1.000  C
  C32      1.0000 0.87056  0.13237  0.32424  Biso   1.000  C
  H16      1.0000 0.88140  0.12350  0.30390  Biso   1.000  H
  N25      1.0000 0.31701  0.46194  0.71473  Biso   1.000  N
  N26      1.0000 0.29322  0.46194  0.68789  Biso   1.000  N
  N27      1.0000 0.29869  0.43492  0.66623  Biso   1.000  N
  C33      1.0000 0.33776  0.43388  0.70986  Biso   1.000  C
  H17      1.0000 0.35650  0.42700  0.72440  Biso   1.000  H
  C34      1.0000 0.32671  0.41677  0.67947  Biso   1.000  C
  C35      1.0000 0.34071  0.38450  0.66225  Biso   1.000  C
  C36      1.0000 0.37056  0.36763  0.67576  Biso   1.000  C
  H18      1.0000 0.38140  0.37650  0.69610  Biso   1.000  H
  N28      1.0000 0.31701  0.96194  0.21473  Biso   1.000  N
  N29      1.0000 0.29322  0.96194  0.18789  Biso   1.000  N
  N30      1.0000 0.29869  0.93492  0.16623  Biso   1.000  N
  C37      1.0000 0.33776  0.93388  0.20986  Biso   1.000  C
  H19      1.0000 0.35650  0.92700  0.22440  Biso   1.000  H
  C38      1.0000 0.32671  0.91677  0.17947  Biso   1.000  C
  C39      1.0000 0.34071  0.88450  0.16225  Biso   1.000  C
  C40      1.0000 0.37056  0.86763  0.17576  Biso   1.000  C
  H20      1.0000 0.38140  0.87650  0.19610  Biso   1.000  H
  N31      1.0000 0.81701  0.46194  0.21473  Biso   1.000  N
  N32      1.0000 0.79322  0.46194  0.18789  Biso   1.000  N
  N33      1.0000 0.79869  0.43492  0.16623  Biso   1.000  N
  C41      1.0000 0.83776  0.43388  0.20986  Biso   1.000  C
  H21      1.0000 0.85650  0.42700  0.22440  Biso   1.000  H
  C42      1.0000 0.82671  0.41677  0.17947  Biso   1.000  C
  C43      1.0000 0.84071  0.38450  0.16225  Biso   1.000  C
  C44      1.0000 0.87056  0.36763  0.17576  Biso   1.000  C
  H22      1.0000 0.88140  0.37650  0.19610  Biso   1.000  H
  N34      1.0000 0.81701  0.96194  0.71473  Biso   1.000  N
  N35      1.0000 0.79322  0.96194  0.68789  Biso   1.000  N
  N36      1.0000 0.79869  0.93492  0.66623  Biso   1.000  N
  C45      1.0000 0.83776  0.93388  0.70986  Biso   1.000  C
  H23      1.0000 0.85650  0.92700  0.72440  Biso   1.000  H
  C46      1.0000 0.82671  0.91677  0.67947  Biso   1.000  C
  C47      1.0000 0.84071  0.88450  0.66225  Biso   1.000  C
  C48      1.0000 0.87056  0.86763  0.67576  Biso   1.000  C
  H24      1.0000 0.88140  0.87650  0.69610  Biso   1.000  H
  N37      1.0000 0.68299  0.53806  0.71473  Biso   1.000  N
  N38      1.0000 0.70678  0.53806  0.68789  Biso   1.000  N
  N39      1.0000 0.70131  0.56508  0.66623  Biso   1.000  N
  C49      1.0000 0.66224  0.56612  0.70986  Biso   1.000  C
  H25      1.0000 0.64350  0.57300  0.72440  Biso   1.000  H
  C50      1.0000 0.67329  0.58323  0.67947  Biso   1.000  C
  C51      1.0000 0.65929  0.61550  0.66225  Biso   1.000  C
  C52      1.0000 0.62944  0.63237  0.67576  Biso   1.000  C
  H26      1.0000 0.61860  0.62350  0.69610  Biso   1.000  H
  N40      1.0000 0.68299  0.03806  0.21473  Biso   1.000  N
  N41      1.0000 0.70678  0.03806  0.18789  Biso   1.000  N
  N42      1.0000 0.70131  0.06508  0.16623  Biso   1.000  N
  C53      1.0000 0.66224  0.06612  0.20986  Biso   1.000  C
  H27      1.0000 0.64350  0.07300  0.22440  Biso   1.000  H
  C54      1.0000 0.67329  0.08323  0.17947  Biso   1.000  C
  C55      1.0000 0.65929  0.11550  0.16225  Biso   1.000  C
  C56      1.0000 0.62944  0.13237  0.17576  Biso   1.000  C
  H28      1.0000 0.61860  0.12350  0.19610  Biso   1.000  H
  N43      1.0000 0.18299  0.53806  0.21473  Biso   1.000  N
  N44      1.0000 0.20678  0.53806  0.18789  Biso   1.000  N
  N45      1.0000 0.20131  0.56508  0.16623  Biso   1.000  N
  C57      1.0000 0.16224  0.56612  0.20986  Biso   1.000  C
  H29      1.0000 0.14350  0.57300  0.22440  Biso   1.000  H
  C58      1.0000 0.17329  0.58323  0.17947  Biso   1.000  C
  C59      1.0000 0.15929  0.61550  0.16225  Biso   1.000  C
  C60      1.0000 0.12944  0.63237  0.17576  Biso   1.000  C
  H30      1.0000 0.11860  0.62350  0.19610  Biso   1.000  H
  N46      1.0000 0.18299  0.03806  0.71473  Biso   1.000  N
  N47      1.0000 0.20678  0.03806  0.68789  Biso   1.000  N
  N48      1.0000 0.20131  0.06508  0.66623  Biso   1.000  N
  C61      1.0000 0.16224  0.06612  0.70986  Biso   1.000  C
  H31      1.0000 0.14350  0.07300  0.72440  Biso   1.000  H
  C62      1.0000 0.17329  0.08323  0.67947  Biso   1.000  C
  C63      1.0000 0.15929  0.11550  0.66225  Biso   1.000  C
  C64      1.0000 0.12944  0.13237  0.67576  Biso   1.000  C
  H32      1.0000 0.11860  0.12350  0.69610  Biso   1.000  H
  N49      1.0000 0.28527  0.68299  0.46194  Biso   1.000  N
  N50      1.0000 0.31211  0.70678  0.46194  Biso   1.000  N
  N51      1.0000 0.33377  0.70131  0.43492  Biso   1.000  N
  C65      1.0000 0.29014  0.66224  0.43388  Biso   1.000  C
  H33      1.0000 0.27560  0.64350  0.42700  Biso   1.000  H
  C66      1.0000 0.32053  0.67329  0.41677  Biso   1.000  C
  C67      1.0000 0.33775  0.65929  0.38450  Biso   1.000  C
  C68      1.0000 0.32424  0.62944  0.36763  Biso   1.000  C
  H34      1.0000 0.30390  0.61860  0.37650  Biso   1.000  H
  N52      1.0000 0.28527  0.18299  0.96194  Biso   1.000  N
  N53      1.0000 0.31211  0.20678  0.96194  Biso   1.000  N
  N54      1.0000 0.33377  0.20131  0.93492  Biso   1.000  N
  C69      1.0000 0.29014  0.16224  0.93388  Biso   1.000  C
  H35      1.0000 0.27560  0.14350  0.92700  Biso   1.000  H
  C70      1.0000 0.32053  0.17329  0.91677  Biso   1.000  C
  C71      1.0000 0.33775  0.15929  0.88450  Biso   1.000  C
  C72      1.0000 0.32424  0.12944  0.86763  Biso   1.000  C
  H36      1.0000 0.30390  0.11860  0.87650  Biso   1.000  H
  N55      1.0000 0.78527  0.68299  0.96194  Biso   1.000  N
  N56      1.0000 0.81211  0.70678  0.96194  Biso   1.000  N
  N57      1.0000 0.83377  0.70131  0.93492  Biso   1.000  N
  C73      1.0000 0.79014  0.66224  0.93388  Biso   1.000  C
  H37      1.0000 0.77560  0.64350  0.92700  Biso   1.000  H
  C74      1.0000 0.82053  0.67329  0.91677  Biso   1.000  C
  C75      1.0000 0.83775  0.65929  0.88450  Biso   1.000  C
  C76      1.0000 0.82424  0.62944  0.86763  Biso   1.000  C
  H38      1.0000 0.80390  0.61860  0.87650  Biso   1.000  H
  N58      1.0000 0.78527  0.18299  0.46194  Biso   1.000  N
  N59      1.0000 0.81211  0.20678  0.46194  Biso   1.000  N
  N60      1.0000 0.83377  0.20131  0.43492  Biso   1.000  N
  C77      1.0000 0.79014  0.16224  0.43388  Biso   1.000  C
  H39      1.0000 0.77560  0.14350  0.42700  Biso   1.000  H
  C78      1.0000 0.82053  0.17329  0.41677  Biso   1.000  C
  C79      1.0000 0.83775  0.15929  0.38450  Biso   1.000  C
  C80      1.0000 0.82424  0.12944  0.36763  Biso   1.000  C
  H40      1.0000 0.80390  0.11860  0.37650  Biso   1.000  H
  N61      1.0000 0.28527  0.31701  0.53806  Biso   1.000  N
  N62      1.0000 0.31211  0.29322  0.53806  Biso   1.000  N
  N63      1.0000 0.33377  0.29869  0.56508  Biso   1.000  N
  C81      1.0000 0.29014  0.33776  0.56612  Biso   1.000  C
  H41      1.0000 0.27560  0.35650  0.57300  Biso   1.000  H
  C82      1.0000 0.32053  0.32671  0.58323  Biso   1.000  C
  C83      1.0000 0.33775  0.34071  0.61550  Biso   1.000  C
  C84      1.0000 0.32424  0.37056  0.63237  Biso   1.000  C
  H42      1.0000 0.30390  0.38140  0.62350  Biso   1.000  H
  N64      1.0000 0.28527  0.81701  0.03806  Biso   1.000  N
  N65      1.0000 0.31211  0.79322  0.03806  Biso   1.000  N
  N66      1.0000 0.33377  0.79869  0.06508  Biso   1.000  N
  C85      1.0000 0.29014  0.83776  0.06612  Biso   1.000  C
  H43      1.0000 0.27560  0.85650  0.07300  Biso   1.000  H
  C86      1.0000 0.32053  0.82671  0.08323  Biso   1.000  C
  C87      1.0000 0.33775  0.84071  0.11550  Biso   1.000  C
  C88      1.0000 0.32424  0.87056  0.13237  Biso   1.000  C
  H44      1.0000 0.30390  0.88140  0.12350  Biso   1.000  H
  N67      1.0000 0.78527  0.31701  0.03806  Biso   1.000  N
  N68      1.0000 0.81211  0.29322  0.03806  Biso   1.000  N
  N69      1.0000 0.83377  0.29869  0.06508  Biso   1.000  N
  C89      1.0000 0.79014  0.33776  0.06612  Biso   1.000  C
  H45      1.0000 0.77560  0.35650  0.07300  Biso   1.000  H
  C90      1.0000 0.82053  0.32671  0.08323  Biso   1.000  C
  C91      1.0000 0.83775  0.34071  0.11550  Biso   1.000  C
  C92      1.0000 0.82424  0.37056  0.13237  Biso   1.000  C
  H46      1.0000 0.80390  0.38140  0.12350  Biso   1.000  H
  N70      1.0000 0.78527  0.81701  0.53806  Biso   1.000  N
  N71      1.0000 0.81211  0.79322  0.53806  Biso   1.000  N
  N72      1.0000 0.83377  0.79869  0.56508  Biso   1.000  N
  C93      1.0000 0.79014  0.83776  0.56612  Biso   1.000  C
  H47      1.0000 0.77560  0.85650  0.57300  Biso   1.000  H
  C94      1.0000 0.82053  0.82671  0.58323  Biso   1.000  C
  C95      1.0000 0.83775  0.84071  0.61550  Biso   1.000  C
  C96      1.0000 0.82424  0.87056  0.63237  Biso   1.000  C
  H48      1.0000 0.80390  0.88140  0.62350  Biso   1.000  H
  N73      1.0000 0.71473  0.31701  0.46194  Biso   1.000  N
  N74      1.0000 0.68789  0.29322  0.46194  Biso   1.000  N
  N75      1.0000 0.66623  0.29869  0.43492  Biso   1.000  N
  C97      1.0000 0.70986  0.33776  0.43388  Biso   1.000  C
  H49      1.0000 0.72440  0.35650  0.42700  Biso   1.000  H
  C98      1.0000 0.67947  0.32671  0.41677  Biso   1.000  C
  C99      1.0000 0.66225  0.34071  0.38450  Biso   1.000  C
  C100     1.0000 0.67576  0.37056  0.36763  Biso   1.000  C
  H50      1.0000 0.69610  0.38140  0.37650  Biso   1.000  H
  N76      1.0000 0.71473  0.81701  0.96194  Biso   1.000  N
  N77      1.0000 0.68789  0.79322  0.96194  Biso   1.000  N
  N78      1.0000 0.66623  0.79869  0.93492  Biso   1.000  N
  C101     1.0000 0.70986  0.83776  0.93388  Biso   1.000  C
  H51      1.0000 0.72440  0.85650  0.92700  Biso   1.000  H
  C102     1.0000 0.67947  0.82671  0.91677  Biso   1.000  C
  C103     1.0000 0.66225  0.84071  0.88450  Biso   1.000  C
  C104     1.0000 0.67576  0.87056  0.86763  Biso   1.000  C
  H52      1.0000 0.69610  0.88140  0.87650  Biso   1.000  H
  N79      1.0000 0.21473  0.31701  0.96194  Biso   1.000  N
  N80      1.0000 0.18789  0.29322  0.96194  Biso   1.000  N
  N81      1.0000 0.16623  0.29869  0.93492  Biso   1.000  N
  C105     1.0000 0.20986  0.33776  0.93388  Biso   1.000  C
  H53      1.0000 0.22440  0.35650  0.92700  Biso   1.000  H
  C106     1.0000 0.17947  0.32671  0.91677  Biso   1.000  C
  C107     1.0000 0.16225  0.34071  0.88450  Biso   1.000  C
  C108     1.0000 0.17576  0.37056  0.86763  Biso   1.000  C
  H54      1.0000 0.19610  0.38140  0.87650  Biso   1.000  H
  N82      1.0000 0.21473  0.81701  0.46194  Biso   1.000  N
  N83      1.0000 0.18789  0.79322  0.46194  Biso   1.000  N
  N84      1.0000 0.16623  0.79869  0.43492  Biso   1.000  N
  C109     1.0000 0.20986  0.83776  0.43388  Biso   1.000  C
  H55      1.0000 0.22440  0.85650  0.42700  Biso   1.000  H
  C110     1.0000 0.17947  0.82671  0.41677  Biso   1.000  C
  C111     1.0000 0.16225  0.84071  0.38450  Biso   1.000  C
  C112     1.0000 0.17576  0.87056  0.36763  Biso   1.000  C
  H56      1.0000 0.19610  0.88140  0.37650  Biso   1.000  H
  N85      1.0000 0.71473  0.68299  0.53806  Biso   1.000  N
  N86      1.0000 0.68789  0.70678  0.53806  Biso   1.000  N
  N87      1.0000 0.66623  0.70131  0.56508  Biso   1.000  N
  C113     1.0000 0.70986  0.66224  0.56612  Biso   1.000  C
  H57      1.0000 0.72440  0.64350  0.57300  Biso   1.000  H
  C114     1.0000 0.67947  0.67329  0.58323  Biso   1.000  C
  C115     1.0000 0.66225  0.65929  0.61550  Biso   1.000  C
  C116     1.0000 0.67576  0.62944  0.63237  Biso   1.000  C
  H58      1.0000 0.69610  0.61860  0.62350  Biso   1.000  H
  N88      1.0000 0.71473  0.18299  0.03806  Biso   1.000  N
  N89      1.0000 0.68789  0.20678  0.03806  Biso   1.000  N
  N90      1.0000 0.66623  0.20131  0.06508  Biso   1.000  N
  C117     1.0000 0.70986  0.16224  0.06612  Biso   1.000  C
  H59      1.0000 0.72440  0.14350  0.07300  Biso   1.000  H
  C118     1.0000 0.67947  0.17329  0.08323  Biso   1.000  C
  C119     1.0000 0.66225  0.15929  0.11550  Biso   1.000  C
  C120     1.0000 0.67576  0.12944  0.13237  Biso   1.000  C
  H60      1.0000 0.69610  0.11860  0.12350  Biso   1.000  H
  N91      1.0000 0.21473  0.68299  0.03806  Biso   1.000  N
  N92      1.0000 0.18789  0.70678  0.03806  Biso   1.000  N
  N93      1.0000 0.16623  0.70131  0.06508  Biso   1.000  N
  C121     1.0000 0.20986  0.66224  0.06612  Biso   1.000  C
  H61      1.0000 0.22440  0.64350  0.07300  Biso   1.000  H
  C122     1.0000 0.17947  0.67329  0.08323  Biso   1.000  C
  C123     1.0000 0.16225  0.65929  0.11550  Biso   1.000  C
  C124     1.0000 0.17576  0.62944  0.13237  Biso   1.000  C
  H62      1.0000 0.19610  0.61860  0.12350  Biso   1.000  H
  N94      1.0000 0.21473  0.18299  0.53806  Biso   1.000  N
  N95      1.0000 0.18789  0.20678  0.53806  Biso   1.000  N
  N96      1.0000 0.16623  0.20131  0.56508  Biso   1.000  N
  C125     1.0000 0.20986  0.16224  0.56612  Biso   1.000  C
  H63      1.0000 0.22440  0.14350  0.57300  Biso   1.000  H
  C126     1.0000 0.17947  0.17329  0.58323  Biso   1.000  C
  C127     1.0000 0.16225  0.15929  0.61550  Biso   1.000  C
  C128     1.0000 0.17576  0.12944  0.63237  Biso   1.000  C
  H64      1.0000 0.19610  0.11860  0.62350  Biso   1.000  H
  N97      1.0000 0.46194  0.28527  0.68299  Biso   1.000  N
  N98      1.0000 0.46194  0.31211  0.70678  Biso   1.000  N
  N99      1.0000 0.43492  0.33377  0.70131  Biso   1.000  N
  C129     1.0000 0.43388  0.29014  0.66224  Biso   1.000  C
  H65      1.0000 0.42700  0.27560  0.64350  Biso   1.000  H
  C130     1.0000 0.41677  0.32053  0.67329  Biso   1.000  C
  C131     1.0000 0.38450  0.33775  0.65929  Biso   1.000  C
  C132     1.0000 0.36763  0.32424  0.62944  Biso   1.000  C
  H66      1.0000 0.37650  0.30390  0.61860  Biso   1.000  H
  N100     1.0000 0.46194  0.78527  0.18299  Biso   1.000  N
  N101     1.0000 0.46194  0.81211  0.20678  Biso   1.000  N
  N102     1.0000 0.43492  0.83377  0.20131  Biso   1.000  N
  C133     1.0000 0.43388  0.79014  0.16224  Biso   1.000  C
  H67      1.0000 0.42700  0.77560  0.14350  Biso   1.000  H
  C134     1.0000 0.41677  0.82053  0.17329  Biso   1.000  C
  C135     1.0000 0.38450  0.83775  0.15929  Biso   1.000  C
  C136     1.0000 0.36763  0.82424  0.12944  Biso   1.000  C
  H68      1.0000 0.37650  0.80390  0.11860  Biso   1.000  H
  N103     1.0000 0.96194  0.28527  0.18299  Biso   1.000  N
  N104     1.0000 0.96194  0.31211  0.20678  Biso   1.000  N
  N105     1.0000 0.93492  0.33377  0.20131  Biso   1.000  N
  C137     1.0000 0.93388  0.29014  0.16224  Biso   1.000  C
  H69      1.0000 0.92700  0.27560  0.14350  Biso   1.000  H
  C138     1.0000 0.91677  0.32053  0.17329  Biso   1.000  C
  C139     1.0000 0.88450  0.33775  0.15929  Biso   1.000  C
  C140     1.0000 0.86763  0.32424  0.12944  Biso   1.000  C
  H70      1.0000 0.87650  0.30390  0.11860  Biso   1.000  H
  N106     1.0000 0.96194  0.78527  0.68299  Biso   1.000  N
  N107     1.0000 0.96194  0.81211  0.70678  Biso   1.000  N
  N108     1.0000 0.93492  0.83377  0.70131  Biso   1.000  N
  C141     1.0000 0.93388  0.79014  0.66224  Biso   1.000  C
  H71      1.0000 0.92700  0.77560  0.64350  Biso   1.000  H
  C142     1.0000 0.91677  0.82053  0.67329  Biso   1.000  C
  C143     1.0000 0.88450  0.83775  0.65929  Biso   1.000  C
  C144     1.0000 0.86763  0.82424  0.62944  Biso   1.000  C
  H72      1.0000 0.87650  0.80390  0.61860  Biso   1.000  H
  N109     1.0000 0.53806  0.28527  0.31701  Biso   1.000  N
  N110     1.0000 0.53806  0.31211  0.29322  Biso   1.000  N
  N111     1.0000 0.56508  0.33377  0.29869  Biso   1.000  N
  C145     1.0000 0.56612  0.29014  0.33776  Biso   1.000  C
  H73      1.0000 0.57300  0.27560  0.35650  Biso   1.000  H
  C146     1.0000 0.58323  0.32053  0.32671  Biso   1.000  C
  C147     1.0000 0.61550  0.33775  0.34071  Biso   1.000  C
  C148     1.0000 0.63237  0.32424  0.37056  Biso   1.000  C
  H74      1.0000 0.62350  0.30390  0.38140  Biso   1.000  H
  N112     1.0000 0.53806  0.78527  0.81701  Biso   1.000  N
  N113     1.0000 0.53806  0.81211  0.79322  Biso   1.000  N
  N114     1.0000 0.56508  0.83377  0.79869  Biso   1.000  N
  C149     1.0000 0.56612  0.79014  0.83776  Biso   1.000  C
  H75      1.0000 0.57300  0.77560  0.85650  Biso   1.000  H
  C150     1.0000 0.58323  0.82053  0.82671  Biso   1.000  C
  C151     1.0000 0.61550  0.83775  0.84071  Biso   1.000  C
  C152     1.0000 0.63237  0.82424  0.87056  Biso   1.000  C
  H76      1.0000 0.62350  0.80390  0.88140  Biso   1.000  H
  N115     1.0000 0.03806  0.28527  0.81701  Biso   1.000  N
  N116     1.0000 0.03806  0.31211  0.79322  Biso   1.000  N
  N117     1.0000 0.06508  0.33377  0.79869  Biso   1.000  N
  C153     1.0000 0.06612  0.29014  0.83776  Biso   1.000  C
  H77      1.0000 0.07300  0.27560  0.85650  Biso   1.000  H
  C154     1.0000 0.08323  0.32053  0.82671  Biso   1.000  C
  C155     1.0000 0.11550  0.33775  0.84071  Biso   1.000  C
  C156     1.0000 0.13237  0.32424  0.87056  Biso   1.000  C
  H78      1.0000 0.12350  0.30390  0.88140  Biso   1.000  H
  N118     1.0000 0.03806  0.78527  0.31701  Biso   1.000  N
  N119     1.0000 0.03806  0.81211  0.29322  Biso   1.000  N
  N120     1.0000 0.06508  0.83377  0.29869  Biso   1.000  N
  C157     1.0000 0.06612  0.79014  0.33776  Biso   1.000  C
  H79      1.0000 0.07300  0.77560  0.35650  Biso   1.000  H
  C158     1.0000 0.08323  0.82053  0.32671  Biso   1.000  C
  C159     1.0000 0.11550  0.83775  0.34071  Biso   1.000  C
  C160     1.0000 0.13237  0.82424  0.37056  Biso   1.000  C
  H80      1.0000 0.12350  0.80390  0.38140  Biso   1.000  H
  N121     1.0000 0.46194  0.71473  0.31701  Biso   1.000  N
  N122     1.0000 0.46194  0.68789  0.29322  Biso   1.000  N
  N123     1.0000 0.43492  0.66623  0.29869  Biso   1.000  N
  C161     1.0000 0.43388  0.70986  0.33776  Biso   1.000  C
  H81      1.0000 0.42700  0.72440  0.35650  Biso   1.000  H
  C162     1.0000 0.41677  0.67947  0.32671  Biso   1.000  C
  C163     1.0000 0.38450  0.66225  0.34071  Biso   1.000  C
  C164     1.0000 0.36763  0.67576  0.37056  Biso   1.000  C
  H82      1.0000 0.37650  0.69610  0.38140  Biso   1.000  H
  N124     1.0000 0.46194  0.21473  0.81701  Biso   1.000  N
  N125     1.0000 0.46194  0.18789  0.79322  Biso   1.000  N
  N126     1.0000 0.43492  0.16623  0.79869  Biso   1.000  N
  C165     1.0000 0.43388  0.20986  0.83776  Biso   1.000  C
  H83      1.0000 0.42700  0.22440  0.85650  Biso   1.000  H
  C166     1.0000 0.41677  0.17947  0.82671  Biso   1.000  C
  C167     1.0000 0.38450  0.16225  0.84071  Biso   1.000  C
  C168     1.0000 0.36763  0.17576  0.87056  Biso   1.000  C
  H84      1.0000 0.37650  0.19610  0.88140  Biso   1.000  H
  N127     1.0000 0.96194  0.71473  0.81701  Biso   1.000  N
  N128     1.0000 0.96194  0.68789  0.79322  Biso   1.000  N
  N129     1.0000 0.93492  0.66623  0.79869  Biso   1.000  N
  C169     1.0000 0.93388  0.70986  0.83776  Biso   1.000  C
  H85      1.0000 0.92700  0.72440  0.85650  Biso   1.000  H
  C170     1.0000 0.91677  0.67947  0.82671  Biso   1.000  C
  C171     1.0000 0.88450  0.66225  0.84071  Biso   1.000  C
  C172     1.0000 0.86763  0.67576  0.87056  Biso   1.000  C
  H86      1.0000 0.87650  0.69610  0.88140  Biso   1.000  H
  N130     1.0000 0.96194  0.21473  0.31701  Biso   1.000  N
  N131     1.0000 0.96194  0.18789  0.29322  Biso   1.000  N
  N132     1.0000 0.93492  0.16623  0.29869  Biso   1.000  N
  C173     1.0000 0.93388  0.20986  0.33776  Biso   1.000  C
  H87      1.0000 0.92700  0.22440  0.35650  Biso   1.000  H
  C174     1.0000 0.91677  0.17947  0.32671  Biso   1.000  C
  C175     1.0000 0.88450  0.16225  0.34071  Biso   1.000  C
  C176     1.0000 0.86763  0.17576  0.37056  Biso   1.000  C
  H88      1.0000 0.87650  0.19610  0.38140  Biso   1.000  H
  N133     1.0000 0.53806  0.71473  0.68299  Biso   1.000  N
  N134     1.0000 0.53806  0.68789  0.70678  Biso   1.000  N
  N135     1.0000 0.56508  0.66623  0.70131  Biso   1.000  N
  C177     1.0000 0.56612  0.70986  0.66224  Biso   1.000  C
  H89      1.0000 0.57300  0.72440  0.64350  Biso   1.000  H
  C178     1.0000 0.58323  0.67947  0.67329  Biso   1.000  C
  C179     1.0000 0.61550  0.66225  0.65929  Biso   1.000  C
  C180     1.0000 0.63237  0.67576  0.62944  Biso   1.000  C
  H90      1.0000 0.62350  0.69610  0.61860  Biso   1.000  H
  N136     1.0000 0.53806  0.21473  0.18299  Biso   1.000  N
  N137     1.0000 0.53806  0.18789  0.20678  Biso   1.000  N
  N138     1.0000 0.56508  0.16623  0.20131  Biso   1.000  N
  C181     1.0000 0.56612  0.20986  0.16224  Biso   1.000  C
  H91      1.0000 0.57300  0.22440  0.14350  Biso   1.000  H
  C182     1.0000 0.58323  0.17947  0.17329  Biso   1.000  C
  C183     1.0000 0.61550  0.16225  0.15929  Biso   1.000  C
  C184     1.0000 0.63237  0.17576  0.12944  Biso   1.000  C
  H92      1.0000 0.62350  0.19610  0.11860  Biso   1.000  H
  N139     1.0000 0.03806  0.71473  0.18299  Biso   1.000  N
  N140     1.0000 0.03806  0.68789  0.20678  Biso   1.000  N
  N141     1.0000 0.06508  0.66623  0.20131  Biso   1.000  N
  C185     1.0000 0.06612  0.70986  0.16224  Biso   1.000  C
  H93      1.0000 0.07300  0.72440  0.14350  Biso   1.000  H
  C186     1.0000 0.08323  0.67947  0.17329  Biso   1.000  C
  C187     1.0000 0.11550  0.66225  0.15929  Biso   1.000  C
  C188     1.0000 0.13237  0.67576  0.12944  Biso   1.000  C
  H94      1.0000 0.12350  0.69610  0.11860  Biso   1.000  H
  N142     1.0000 0.03806  0.21473  0.68299  Biso   1.000  N
  N143     1.0000 0.03806  0.18789  0.70678  Biso   1.000  N
  N144     1.0000 0.06508  0.16623  0.70131  Biso   1.000  N
  C189     1.0000 0.06612  0.20986  0.66224  Biso   1.000  C
  H95      1.0000 0.07300  0.22440  0.64350  Biso   1.000  H
  C190     1.0000 0.08323  0.17947  0.67329  Biso   1.000  C
  C191     1.0000 0.11550  0.16225  0.65929  Biso   1.000  C
  C192     1.0000 0.13237  0.17576  0.62944  Biso   1.000  C
  H96      1.0000 0.12350  0.19610  0.61860  Biso   1.000  H
  N145     1.0000 0.96194  0.18299  0.21473  Biso   1.000  N
  N146     1.0000 0.96194  0.20678  0.18789  Biso   1.000  N
  N147     1.0000 0.93492  0.20131  0.16623  Biso   1.000  N
  C193     1.0000 0.93388  0.16224  0.20986  Biso   1.000  C
  H97      1.0000 0.92700  0.14350  0.22440  Biso   1.000  H
  C194     1.0000 0.91677  0.17329  0.17947  Biso   1.000  C
  C195     1.0000 0.88450  0.15929  0.16225  Biso   1.000  C
  C196     1.0000 0.86763  0.12944  0.17576  Biso   1.000  C
  H98      1.0000 0.87650  0.11860  0.19610  Biso   1.000  H
  N148     1.0000 0.96194  0.68299  0.71473  Biso   1.000  N
  N149     1.0000 0.96194  0.70678  0.68789  Biso   1.000  N
  N150     1.0000 0.93492  0.70131  0.66623  Biso   1.000  N
  C197     1.0000 0.93388  0.66224  0.70986  Biso   1.000  C
  H99      1.0000 0.92700  0.64350  0.72440  Biso   1.000  H
  C198     1.0000 0.91677  0.67329  0.67947  Biso   1.000  C
  C199     1.0000 0.88450  0.65929  0.66225  Biso   1.000  C
  C200     1.0000 0.86763  0.62944  0.67576  Biso   1.000  C
  H100     1.0000 0.87650  0.61860  0.69610  Biso   1.000  H
  N151     1.0000 0.46194  0.18299  0.71473  Biso   1.000  N
  N152     1.0000 0.46194  0.20678  0.68789  Biso   1.000  N
  N153     1.0000 0.43492  0.20131  0.66623  Biso   1.000  N
  C201     1.0000 0.43388  0.16224  0.70986  Biso   1.000  C
  H101     1.0000 0.42700  0.14350  0.72440  Biso   1.000  H
  C202     1.0000 0.41677  0.17329  0.67947  Biso   1.000  C
  C203     1.0000 0.38450  0.15929  0.66225  Biso   1.000  C
  C204     1.0000 0.36763  0.12944  0.67576  Biso   1.000  C
  H102     1.0000 0.37650  0.11860  0.69610  Biso   1.000  H
  N154     1.0000 0.46194  0.68299  0.21473  Biso   1.000  N
  N155     1.0000 0.46194  0.70678  0.18789  Biso   1.000  N
  N156     1.0000 0.43492  0.70131  0.16623  Biso   1.000  N
  C205     1.0000 0.43388  0.66224  0.20986  Biso   1.000  C
  H103     1.0000 0.42700  0.64350  0.22440  Biso   1.000  H
  C206     1.0000 0.41677  0.67329  0.17947  Biso   1.000  C
  C207     1.0000 0.38450  0.65929  0.16225  Biso   1.000  C
  C208     1.0000 0.36763  0.62944  0.17576  Biso   1.000  C
  H104     1.0000 0.37650  0.61860  0.19610  Biso   1.000  H
  N157     1.0000 0.03806  0.81701  0.21473  Biso   1.000  N
  N158     1.0000 0.03806  0.79322  0.18789  Biso   1.000  N
  N159     1.0000 0.06508  0.79869  0.16623  Biso   1.000  N
  C209     1.0000 0.06612  0.83776  0.20986  Biso   1.000  C
  H105     1.0000 0.07300  0.85650  0.22440  Biso   1.000  H
  C210     1.0000 0.08323  0.82671  0.17947  Biso   1.000  C
  C211     1.0000 0.11550  0.84071  0.16225  Biso   1.000  C
  C212     1.0000 0.13237  0.87056  0.17576  Biso   1.000  C
  H106     1.0000 0.12350  0.88140  0.19610  Biso   1.000  H
  N160     1.0000 0.03806  0.31701  0.71473  Biso   1.000  N
  N161     1.0000 0.03806  0.29322  0.68789  Biso   1.000  N
  N162     1.0000 0.06508  0.29869  0.66623  Biso   1.000  N
  C213     1.0000 0.06612  0.33776  0.70986  Biso   1.000  C
  H107     1.0000 0.07300  0.35650  0.72440  Biso   1.000  H
  C214     1.0000 0.08323  0.32671  0.67947  Biso   1.000  C
  C215     1.0000 0.11550  0.34071  0.66225  Biso   1.000  C
  C216     1.0000 0.13237  0.37056  0.67576  Biso   1.000  C
  H108     1.0000 0.12350  0.38140  0.69610  Biso   1.000  H
  N163     1.0000 0.53806  0.81701  0.71473  Biso   1.000  N
  N164     1.0000 0.53806  0.79322  0.68789  Biso   1.000  N
  N165     1.0000 0.56508  0.79869  0.66623  Biso   1.000  N
  C217     1.0000 0.56612  0.83776  0.70986  Biso   1.000  C
  H109     1.0000 0.57300  0.85650  0.72440  Biso   1.000  H
  C218     1.0000 0.58323  0.82671  0.67947  Biso   1.000  C
  C219     1.0000 0.61550  0.84071  0.66225  Biso   1.000  C
  C220     1.0000 0.63237  0.87056  0.67576  Biso   1.000  C
  H110     1.0000 0.62350  0.88140  0.69610  Biso   1.000  H
  N166     1.0000 0.53806  0.31701  0.21473  Biso   1.000  N
  N167     1.0000 0.53806  0.29322  0.18789  Biso   1.000  N
  N168     1.0000 0.56508  0.29869  0.16623  Biso   1.000  N
  C221     1.0000 0.56612  0.33776  0.20986  Biso   1.000  C
  H111     1.0000 0.57300  0.35650  0.22440  Biso   1.000  H
  C222     1.0000 0.58323  0.32671  0.17947  Biso   1.000  C
  C223     1.0000 0.61550  0.34071  0.16225  Biso   1.000  C
  C224     1.0000 0.63237  0.37056  0.17576  Biso   1.000  C
  H112     1.0000 0.62350  0.38140  0.19610  Biso   1.000  H
  N169     1.0000 0.96194  0.81701  0.78527  Biso   1.000  N
  N170     1.0000 0.96194  0.79322  0.81211  Biso   1.000  N
  N171     1.0000 0.93492  0.79869  0.83377  Biso   1.000  N
  C225     1.0000 0.93388  0.83776  0.79014  Biso   1.000  C
  H113     1.0000 0.92700  0.85650  0.77560  Biso   1.000  H
  C226     1.0000 0.91677  0.82671  0.82053  Biso   1.000  C
  C227     1.0000 0.88450  0.84071  0.83775  Biso   1.000  C
  C228     1.0000 0.86763  0.87056  0.82424  Biso   1.000  C
  H114     1.0000 0.87650  0.88140  0.80390  Biso   1.000  H
  N172     1.0000 0.96194  0.31701  0.28527  Biso   1.000  N
  N173     1.0000 0.96194  0.29322  0.31211  Biso   1.000  N
  N174     1.0000 0.93492  0.29869  0.33377  Biso   1.000  N
  C229     1.0000 0.93388  0.33776  0.29014  Biso   1.000  C
  H115     1.0000 0.92700  0.35650  0.27560  Biso   1.000  H
  C230     1.0000 0.91677  0.32671  0.32053  Biso   1.000  C
  C231     1.0000 0.88450  0.34071  0.33775  Biso   1.000  C
  C232     1.0000 0.86763  0.37056  0.32424  Biso   1.000  C
  H116     1.0000 0.87650  0.38140  0.30390  Biso   1.000  H
  N175     1.0000 0.46194  0.81701  0.28527  Biso   1.000  N
  N176     1.0000 0.46194  0.79322  0.31211  Biso   1.000  N
  N177     1.0000 0.43492  0.79869  0.33377  Biso   1.000  N
  C233     1.0000 0.43388  0.83776  0.29014  Biso   1.000  C
  H117     1.0000 0.42700  0.85650  0.27560  Biso   1.000  H
  C234     1.0000 0.41677  0.82671  0.32053  Biso   1.000  C
  C235     1.0000 0.38450  0.84071  0.33775  Biso   1.000  C
  C236     1.0000 0.36763  0.87056  0.32424  Biso   1.000  C
  H118     1.0000 0.37650  0.88140  0.30390  Biso   1.000  H
  N178     1.0000 0.46194  0.31701  0.78527  Biso   1.000  N
  N179     1.0000 0.46194  0.29322  0.81211  Biso   1.000  N
  N180     1.0000 0.43492  0.29869  0.83377  Biso   1.000  N
  C237     1.0000 0.43388  0.33776  0.79014  Biso   1.000  C
  H119     1.0000 0.42700  0.35650  0.77560  Biso   1.000  H
  C238     1.0000 0.41677  0.32671  0.82053  Biso   1.000  C
  C239     1.0000 0.38450  0.34071  0.83775  Biso   1.000  C
  C240     1.0000 0.36763  0.37056  0.82424  Biso   1.000  C
  H120     1.0000 0.37650  0.38140  0.80390  Biso   1.000  H
  N181     1.0000 0.03806  0.18299  0.78527  Biso   1.000  N
  N182     1.0000 0.03806  0.20678  0.81211  Biso   1.000  N
  N183     1.0000 0.06508  0.20131  0.83377  Biso   1.000  N
  C241     1.0000 0.06612  0.16224  0.79014  Biso   1.000  C
  H121     1.0000 0.07300  0.14350  0.77560  Biso   1.000  H
  C242     1.0000 0.08323  0.17329  0.82053  Biso   1.000  C
  C243     1.0000 0.11550  0.15929  0.83775  Biso   1.000  C
  C244     1.0000 0.13237  0.12944  0.82424  Biso   1.000  C
  H122     1.0000 0.12350  0.11860  0.80390  Biso   1.000  H
  N184     1.0000 0.03806  0.68299  0.28527  Biso   1.000  N
  N185     1.0000 0.03806  0.70678  0.31211  Biso   1.000  N
  N186     1.0000 0.06508  0.70131  0.33377  Biso   1.000  N
  C245     1.0000 0.06612  0.66224  0.29014  Biso   1.000  C
  H123     1.0000 0.07300  0.64350  0.27560  Biso   1.000  H
  C246     1.0000 0.08323  0.67329  0.32053  Biso   1.000  C
  C247     1.0000 0.11550  0.65929  0.33775  Biso   1.000  C
  C248     1.0000 0.13237  0.62944  0.32424  Biso   1.000  C
  H124     1.0000 0.12350  0.61860  0.30390  Biso   1.000  H
  N187     1.0000 0.53806  0.18299  0.28527  Biso   1.000  N
  N188     1.0000 0.53806  0.20678  0.31211  Biso   1.000  N
  N189     1.0000 0.56508  0.20131  0.33377  Biso   1.000  N
  C249     1.0000 0.56612  0.16224  0.29014  Biso   1.000  C
  H125     1.0000 0.57300  0.14350  0.27560  Biso   1.000  H
  C250     1.0000 0.58323  0.17329  0.32053  Biso   1.000  C
  C251     1.0000 0.61550  0.15929  0.33775  Biso   1.000  C
  C252     1.0000 0.63237  0.12944  0.32424  Biso   1.000  C
  H126     1.0000 0.62350  0.11860  0.30390  Biso   1.000  H
  N190     1.0000 0.53806  0.68299  0.78527  Biso   1.000  N
  N191     1.0000 0.53806  0.70678  0.81211  Biso   1.000  N
  N192     1.0000 0.56508  0.70131  0.83377  Biso   1.000  N
  C253     1.0000 0.56612  0.66224  0.79014  Biso   1.000  C
  H127     1.0000 0.57300  0.64350  0.77560  Biso   1.000  H
  C254     1.0000 0.58323  0.67329  0.82053  Biso   1.000  C
  C255     1.0000 0.61550  0.65929  0.83775  Biso   1.000  C
  C256     1.0000 0.63237  0.62944  0.82424  Biso   1.000  C
  H128     1.0000 0.62350  0.61860  0.80390  Biso   1.000  H
  N193     1.0000 0.18299  0.78527  0.03806  Biso   1.000  N
  N194     1.0000 0.20678  0.81211  0.03806  Biso   1.000  N
  N195     1.0000 0.20131  0.83377  0.06508  Biso   1.000  N
  C257     1.0000 0.16224  0.79014  0.06612  Biso   1.000  C
  H129     1.0000 0.14350  0.77560  0.07300  Biso   1.000  H
  C258     1.0000 0.17329  0.82053  0.08323  Biso   1.000  C
  C259     1.0000 0.15929  0.83775  0.11550  Biso   1.000  C
  C260     1.0000 0.12944  0.82424  0.13237  Biso   1.000  C
  H130     1.0000 0.11860  0.80390  0.12350  Biso   1.000  H
  N196     1.0000 0.18299  0.28527  0.53806  Biso   1.000  N
  N197     1.0000 0.20678  0.31211  0.53806  Biso   1.000  N
  N198     1.0000 0.20131  0.33377  0.56508  Biso   1.000  N
  C261     1.0000 0.16224  0.29014  0.56612  Biso   1.000  C
  H131     1.0000 0.14350  0.27560  0.57300  Biso   1.000  H
  C262     1.0000 0.17329  0.32053  0.58323  Biso   1.000  C
  C263     1.0000 0.15929  0.33775  0.61550  Biso   1.000  C
  C264     1.0000 0.12944  0.32424  0.63237  Biso   1.000  C
  H132     1.0000 0.11860  0.30390  0.62350  Biso   1.000  H
  N199     1.0000 0.68299  0.78527  0.53806  Biso   1.000  N
  N200     1.0000 0.70678  0.81211  0.53806  Biso   1.000  N
  N201     1.0000 0.70131  0.83377  0.56508  Biso   1.000  N
  C265     1.0000 0.66224  0.79014  0.56612  Biso   1.000  C
  H133     1.0000 0.64350  0.77560  0.57300  Biso   1.000  H
  C266     1.0000 0.67329  0.82053  0.58323  Biso   1.000  C
  C267     1.0000 0.65929  0.83775  0.61550  Biso   1.000  C
  C268     1.0000 0.62944  0.82424  0.63237  Biso   1.000  C
  H134     1.0000 0.61860  0.80390  0.62350  Biso   1.000  H
  N202     1.0000 0.68299  0.28527  0.03806  Biso   1.000  N
  N203     1.0000 0.70678  0.31211  0.03806  Biso   1.000  N
  N204     1.0000 0.70131  0.33377  0.06508  Biso   1.000  N
  C269     1.0000 0.66224  0.29014  0.06612  Biso   1.000  C
  H135     1.0000 0.64350  0.27560  0.07300  Biso   1.000  H
  C270     1.0000 0.67329  0.32053  0.08323  Biso   1.000  C
  C271     1.0000 0.65929  0.33775  0.11550  Biso   1.000  C
  C272     1.0000 0.62944  0.32424  0.13237  Biso   1.000  C
  H136     1.0000 0.61860  0.30390  0.12350  Biso   1.000  H
  N205     1.0000 0.81701  0.78527  0.96194  Biso   1.000  N
  N206     1.0000 0.79322  0.81211  0.96194  Biso   1.000  N
  N207     1.0000 0.79869  0.83377  0.93492  Biso   1.000  N
  C273     1.0000 0.83776  0.79014  0.93388  Biso   1.000  C
  H137     1.0000 0.85650  0.77560  0.92700  Biso   1.000  H
  C274     1.0000 0.82671  0.82053  0.91677  Biso   1.000  C
  C275     1.0000 0.84071  0.83775  0.88450  Biso   1.000  C
  C276     1.0000 0.87056  0.82424  0.86763  Biso   1.000  C
  H138     1.0000 0.88140  0.80390  0.87650  Biso   1.000  H
  N208     1.0000 0.81701  0.28527  0.46194  Biso   1.000  N
  N209     1.0000 0.79322  0.31211  0.46194  Biso   1.000  N
  N210     1.0000 0.79869  0.33377  0.43492  Biso   1.000  N
  C277     1.0000 0.83776  0.29014  0.43388  Biso   1.000  C
  H139     1.0000 0.85650  0.27560  0.42700  Biso   1.000  H
  C278     1.0000 0.82671  0.32053  0.41677  Biso   1.000  C
  C279     1.0000 0.84071  0.33775  0.38450  Biso   1.000  C
  C280     1.0000 0.87056  0.32424  0.36763  Biso   1.000  C
  H140     1.0000 0.88140  0.30390  0.37650  Biso   1.000  H
  N211     1.0000 0.31701  0.78527  0.46194  Biso   1.000  N
  N212     1.0000 0.29322  0.81211  0.46194  Biso   1.000  N
  N213     1.0000 0.29869  0.83377  0.43492  Biso   1.000  N
  C281     1.0000 0.33776  0.79014  0.43388  Biso   1.000  C
  H141     1.0000 0.35650  0.77560  0.42700  Biso   1.000  H
  C282     1.0000 0.32671  0.82053  0.41677  Biso   1.000  C
  C283     1.0000 0.34071  0.83775  0.38450  Biso   1.000  C
  C284     1.0000 0.37056  0.82424  0.36763  Biso   1.000  C
  H142     1.0000 0.38140  0.80390  0.37650  Biso   1.000  H
  N214     1.0000 0.31701  0.28527  0.96194  Biso   1.000  N
  N215     1.0000 0.29322  0.31211  0.96194  Biso   1.000  N
  N216     1.0000 0.29869  0.33377  0.93492  Biso   1.000  N
  C285     1.0000 0.33776  0.29014  0.93388  Biso   1.000  C
  H143     1.0000 0.35650  0.27560  0.92700  Biso   1.000  H
  C286     1.0000 0.32671  0.32053  0.91677  Biso   1.000  C
  C287     1.0000 0.34071  0.33775  0.88450  Biso   1.000  C
  C288     1.0000 0.37056  0.32424  0.86763  Biso   1.000  C
  H144     1.0000 0.38140  0.30390  0.87650  Biso   1.000  H
  N217     1.0000 0.81701  0.21473  0.03806  Biso   1.000  N
  N218     1.0000 0.79322  0.18789  0.03806  Biso   1.000  N
  N219     1.0000 0.79869  0.16623  0.06508  Biso   1.000  N
  C289     1.0000 0.83776  0.20986  0.06612  Biso   1.000  C
  H145     1.0000 0.85650  0.22440  0.07300  Biso   1.000  H
  C290     1.0000 0.82671  0.17947  0.08323  Biso   1.000  C
  C291     1.0000 0.84071  0.16225  0.11550  Biso   1.000  C
  C292     1.0000 0.87056  0.17576  0.13237  Biso   1.000  C
  H146     1.0000 0.88140  0.19610  0.12350  Biso   1.000  H
  N220     1.0000 0.81701  0.71473  0.53806  Biso   1.000  N
  N221     1.0000 0.79322  0.68789  0.53806  Biso   1.000  N
  N222     1.0000 0.79869  0.66623  0.56508  Biso   1.000  N
  C293     1.0000 0.83776  0.70986  0.56612  Biso   1.000  C
  H147     1.0000 0.85650  0.72440  0.57300  Biso   1.000  H
  C294     1.0000 0.82671  0.67947  0.58323  Biso   1.000  C
  C295     1.0000 0.84071  0.66225  0.61550  Biso   1.000  C
  C296     1.0000 0.87056  0.67576  0.63237  Biso   1.000  C
  H148     1.0000 0.88140  0.69610  0.62350  Biso   1.000  H
  N223     1.0000 0.31701  0.21473  0.53806  Biso   1.000  N
  N224     1.0000 0.29322  0.18789  0.53806  Biso   1.000  N
  N225     1.0000 0.29869  0.16623  0.56508  Biso   1.000  N
  C297     1.0000 0.33776  0.20986  0.56612  Biso   1.000  C
  H149     1.0000 0.35650  0.22440  0.57300  Biso   1.000  H
  C298     1.0000 0.32671  0.17947  0.58323  Biso   1.000  C
  C299     1.0000 0.34071  0.16225  0.61550  Biso   1.000  C
  C300     1.0000 0.37056  0.17576  0.63237  Biso   1.000  C
  H150     1.0000 0.38140  0.19610  0.62350  Biso   1.000  H
  N226     1.0000 0.31701  0.71473  0.03806  Biso   1.000  N
  N227     1.0000 0.29322  0.68789  0.03806  Biso   1.000  N
  N228     1.0000 0.29869  0.66623  0.06508  Biso   1.000  N
  C301     1.0000 0.33776  0.70986  0.06612  Biso   1.000  C
  H151     1.0000 0.35650  0.72440  0.07300  Biso   1.000  H
  C302     1.0000 0.32671  0.67947  0.08323  Biso   1.000  C
  C303     1.0000 0.34071  0.66225  0.11550  Biso   1.000  C
  C304     1.0000 0.37056  0.67576  0.13237  Biso   1.000  C
  H152     1.0000 0.38140  0.69610  0.12350  Biso   1.000  H
  N229     1.0000 0.18299  0.21473  0.96194  Biso   1.000  N
  N230     1.0000 0.20678  0.18789  0.96194  Biso   1.000  N
  N231     1.0000 0.20131  0.16623  0.93492  Biso   1.000  N
  C305     1.0000 0.16224  0.20986  0.93388  Biso   1.000  C
  H153     1.0000 0.14350  0.22440  0.92700  Biso   1.000  H
  C306     1.0000 0.17329  0.17947  0.91677  Biso   1.000  C
  C307     1.0000 0.15929  0.16225  0.88450  Biso   1.000  C
  C308     1.0000 0.12944  0.17576  0.86763  Biso   1.000  C
  H154     1.0000 0.11860  0.19610  0.87650  Biso   1.000  H
  N232     1.0000 0.18299  0.71473  0.46194  Biso   1.000  N
  N233     1.0000 0.20678  0.68789  0.46194  Biso   1.000  N
  N234     1.0000 0.20131  0.66623  0.43492  Biso   1.000  N
  C309     1.0000 0.16224  0.70986  0.43388  Biso   1.000  C
  H155     1.0000 0.14350  0.72440  0.42700  Biso   1.000  H
  C310     1.0000 0.17329  0.67947  0.41677  Biso   1.000  C
  C311     1.0000 0.15929  0.66225  0.38450  Biso   1.000  C
  C312     1.0000 0.12944  0.67576  0.36763  Biso   1.000  C
  H156     1.0000 0.11860  0.69610  0.37650  Biso   1.000  H
  N235     1.0000 0.68299  0.21473  0.46194  Biso   1.000  N
  N236     1.0000 0.70678  0.18789  0.46194  Biso   1.000  N
  N237     1.0000 0.70131  0.16623  0.43492  Biso   1.000  N
  C313     1.0000 0.66224  0.20986  0.43388  Biso   1.000  C
  H157     1.0000 0.64350  0.22440  0.42700  Biso   1.000  H
  C314     1.0000 0.67329  0.17947  0.41677  Biso   1.000  C
  C315     1.0000 0.65929  0.16225  0.38450  Biso   1.000  C
  C316     1.0000 0.62944  0.17576  0.36763  Biso   1.000  C
  H158     1.0000 0.61860  0.19610  0.37650  Biso   1.000  H
  N238     1.0000 0.68299  0.71473  0.96194  Biso   1.000  N
  N239     1.0000 0.70678  0.68789  0.96194  Biso   1.000  N
  N240     1.0000 0.70131  0.66623  0.93492  Biso   1.000  N
  C317     1.0000 0.66224  0.70986  0.93388  Biso   1.000  C
  H159     1.0000 0.64350  0.72440  0.92700  Biso   1.000  H
  C318     1.0000 0.67329  0.67947  0.91677  Biso   1.000  C
  C319     1.0000 0.65929  0.66225  0.88450  Biso   1.000  C
  C320     1.0000 0.62944  0.67576  0.86763  Biso   1.000  C
  H160     1.0000 0.61860  0.69610  0.87650  Biso   1.000  H
  N241     1.0000 0.78527  0.96194  0.81701  Biso   1.000  N
  N242     1.0000 0.81211  0.96194  0.79322  Biso   1.000  N
  N243     1.0000 0.83377  0.93492  0.79869  Biso   1.000  N
  C321     1.0000 0.79014  0.93388  0.83776  Biso   1.000  C
  H161     1.0000 0.77560  0.92700  0.85650  Biso   1.000  H
  C322     1.0000 0.82053  0.91677  0.82671  Biso   1.000  C
  C323     1.0000 0.83775  0.88450  0.84071  Biso   1.000  C
  C324     1.0000 0.82424  0.86763  0.87056  Biso   1.000  C
  H162     1.0000 0.80390  0.87650  0.88140  Biso   1.000  H
  N244     1.0000 0.78527  0.46194  0.31701  Biso   1.000  N
  N245     1.0000 0.81211  0.46194  0.29322  Biso   1.000  N
  N246     1.0000 0.83377  0.43492  0.29869  Biso   1.000  N
  C325     1.0000 0.79014  0.43388  0.33776  Biso   1.000  C
  H163     1.0000 0.77560  0.42700  0.35650  Biso   1.000  H
  C326     1.0000 0.82053  0.41677  0.32671  Biso   1.000  C
  C327     1.0000 0.83775  0.38450  0.34071  Biso   1.000  C
  C328     1.0000 0.82424  0.36763  0.37056  Biso   1.000  C
  H164     1.0000 0.80390  0.37650  0.38140  Biso   1.000  H
  N247     1.0000 0.28527  0.96194  0.31701  Biso   1.000  N
  N248     1.0000 0.31211  0.96194  0.29322  Biso   1.000  N
  N249     1.0000 0.33377  0.93492  0.29869  Biso   1.000  N
  C329     1.0000 0.29014  0.93388  0.33776  Biso   1.000  C
  H165     1.0000 0.27560  0.92700  0.35650  Biso   1.000  H
  C330     1.0000 0.32053  0.91677  0.32671  Biso   1.000  C
  C331     1.0000 0.33775  0.88450  0.34071  Biso   1.000  C
  C332     1.0000 0.32424  0.86763  0.37056  Biso   1.000  C
  H166     1.0000 0.30390  0.87650  0.38140  Biso   1.000  H
  N250     1.0000 0.28527  0.46194  0.81701  Biso   1.000  N
  N251     1.0000 0.31211  0.46194  0.79322  Biso   1.000  N
  N252     1.0000 0.33377  0.43492  0.79869  Biso   1.000  N
  C333     1.0000 0.29014  0.43388  0.83776  Biso   1.000  C
  H167     1.0000 0.27560  0.42700  0.85650  Biso   1.000  H
  C334     1.0000 0.32053  0.41677  0.82671  Biso   1.000  C
  C335     1.0000 0.33775  0.38450  0.84071  Biso   1.000  C
  C336     1.0000 0.32424  0.36763  0.87056  Biso   1.000  C
  H168     1.0000 0.30390  0.37650  0.88140  Biso   1.000  H
  N253     1.0000 0.78527  0.03806  0.18299  Biso   1.000  N
  N254     1.0000 0.81211  0.03806  0.20678  Biso   1.000  N
  N255     1.0000 0.83377  0.06508  0.20131  Biso   1.000  N
  C337     1.0000 0.79014  0.06612  0.16224  Biso   1.000  C
  H169     1.0000 0.77560  0.07300  0.14350  Biso   1.000  H
  C338     1.0000 0.82053  0.08323  0.17329  Biso   1.000  C
  C339     1.0000 0.83775  0.11550  0.15929  Biso   1.000  C
  C340     1.0000 0.82424  0.13237  0.12944  Biso   1.000  C
  H170     1.0000 0.80390  0.12350  0.11860  Biso   1.000  H
  N256     1.0000 0.78527  0.53806  0.68299  Biso   1.000  N
  N257     1.0000 0.81211  0.53806  0.70678  Biso   1.000  N
  N258     1.0000 0.83377  0.56508  0.70131  Biso   1.000  N
  C341     1.0000 0.79014  0.56612  0.66224  Biso   1.000  C
  H171     1.0000 0.77560  0.57300  0.64350  Biso   1.000  H
  C342     1.0000 0.82053  0.58323  0.67329  Biso   1.000  C
  C343     1.0000 0.83775  0.61550  0.65929  Biso   1.000  C
  C344     1.0000 0.82424  0.63237  0.62944  Biso   1.000  C
  H172     1.0000 0.80390  0.62350  0.61860  Biso   1.000  H
  N259     1.0000 0.28527  0.03806  0.68299  Biso   1.000  N
  N260     1.0000 0.31211  0.03806  0.70678  Biso   1.000  N
  N261     1.0000 0.33377  0.06508  0.70131  Biso   1.000  N
  C345     1.0000 0.29014  0.06612  0.66224  Biso   1.000  C
  H173     1.0000 0.27560  0.07300  0.64350  Biso   1.000  H
  C346     1.0000 0.32053  0.08323  0.67329  Biso   1.000  C
  C347     1.0000 0.33775  0.11550  0.65929  Biso   1.000  C
  C348     1.0000 0.32424  0.13237  0.62944  Biso   1.000  C
  H174     1.0000 0.30390  0.12350  0.61860  Biso   1.000  H
  N262     1.0000 0.28527  0.53806  0.18299  Biso   1.000  N
  N263     1.0000 0.31211  0.53806  0.20678  Biso   1.000  N
  N264     1.0000 0.33377  0.56508  0.20131  Biso   1.000  N
  C349     1.0000 0.29014  0.56612  0.16224  Biso   1.000  C
  H175     1.0000 0.27560  0.57300  0.14350  Biso   1.000  H
  C350     1.0000 0.32053  0.58323  0.17329  Biso   1.000  C
  C351     1.0000 0.33775  0.61550  0.15929  Biso   1.000  C
  C352     1.0000 0.32424  0.63237  0.12944  Biso   1.000  C
  H176     1.0000 0.30390  0.62350  0.11860  Biso   1.000  H
  N265     1.0000 0.21473  0.96194  0.18299  Biso   1.000  N
  N266     1.0000 0.18789  0.96194  0.20678  Biso   1.000  N
  N267     1.0000 0.16623  0.93492  0.20131  Biso   1.000  N
  C353     1.0000 0.20986  0.93388  0.16224  Biso   1.000  C
  H177     1.0000 0.22440  0.92700  0.14350  Biso   1.000  H
  C354     1.0000 0.17947  0.91677  0.17329  Biso   1.000  C
  C355     1.0000 0.16225  0.88450  0.15929  Biso   1.000  C
  C356     1.0000 0.17576  0.86763  0.12944  Biso   1.000  C
  H178     1.0000 0.19610  0.87650  0.11860  Biso   1.000  H
  N268     1.0000 0.21473  0.46194  0.68299  Biso   1.000  N
  N269     1.0000 0.18789  0.46194  0.70678  Biso   1.000  N
  N270     1.0000 0.16623  0.43492  0.70131  Biso   1.000  N
  C357     1.0000 0.20986  0.43388  0.66224  Biso   1.000  C
  H179     1.0000 0.22440  0.42700  0.64350  Biso   1.000  H
  C358     1.0000 0.17947  0.41677  0.67329  Biso   1.000  C
  C359     1.0000 0.16225  0.38450  0.65929  Biso   1.000  C
  C360     1.0000 0.17576  0.36763  0.62944  Biso   1.000  C
  H180     1.0000 0.19610  0.37650  0.61860  Biso   1.000  H
  N271     1.0000 0.71473  0.96194  0.68299  Biso   1.000  N
  N272     1.0000 0.68789  0.96194  0.70678  Biso   1.000  N
  N273     1.0000 0.66623  0.93492  0.70131  Biso   1.000  N
  C361     1.0000 0.70986  0.93388  0.66224  Biso   1.000  C
  H181     1.0000 0.72440  0.92700  0.64350  Biso   1.000  H
  C362     1.0000 0.67947  0.91677  0.67329  Biso   1.000  C
  C363     1.0000 0.66225  0.88450  0.65929  Biso   1.000  C
  C364     1.0000 0.67576  0.86763  0.62944  Biso   1.000  C
  H182     1.0000 0.69610  0.87650  0.61860  Biso   1.000  H
  N274     1.0000 0.71473  0.46194  0.18299  Biso   1.000  N
  N275     1.0000 0.68789  0.46194  0.20678  Biso   1.000  N
  N276     1.0000 0.66623  0.43492  0.20131  Biso   1.000  N
  C365     1.0000 0.70986  0.43388  0.16224  Biso   1.000  C
  H183     1.0000 0.72440  0.42700  0.14350  Biso   1.000  H
  C366     1.0000 0.67947  0.41677  0.17329  Biso   1.000  C
  C367     1.0000 0.66225  0.38450  0.15929  Biso   1.000  C
  C368     1.0000 0.67576  0.36763  0.12944  Biso   1.000  C
  H184     1.0000 0.69610  0.37650  0.11860  Biso   1.000  H
  N277     1.0000 0.21473  0.03806  0.81701  Biso   1.000  N
  N278     1.0000 0.18789  0.03806  0.79322  Biso   1.000  N
  N279     1.0000 0.16623  0.06508  0.79869  Biso   1.000  N
  C369     1.0000 0.20986  0.06612  0.83776  Biso   1.000  C
  H185     1.0000 0.22440  0.07300  0.85650  Biso   1.000  H
  C370     1.0000 0.17947  0.08323  0.82671  Biso   1.000  C
  C371     1.0000 0.16225  0.11550  0.84071  Biso   1.000  C
  C372     1.0000 0.17576  0.13237  0.87056  Biso   1.000  C
  H186     1.0000 0.19610  0.12350  0.88140  Biso   1.000  H
  N280     1.0000 0.21473  0.53806  0.31701  Biso   1.000  N
  N281     1.0000 0.18789  0.53806  0.29322  Biso   1.000  N
  N282     1.0000 0.16623  0.56508  0.29869  Biso   1.000  N
  C373     1.0000 0.20986  0.56612  0.33776  Biso   1.000  C
  H187     1.0000 0.22440  0.57300  0.35650  Biso   1.000  H
  C374     1.0000 0.17947  0.58323  0.32671  Biso   1.000  C
  C375     1.0000 0.16225  0.61550  0.34071  Biso   1.000  C
  C376     1.0000 0.17576  0.63237  0.37056  Biso   1.000  C
  H188     1.0000 0.19610  0.62350  0.38140  Biso   1.000  H
  N283     1.0000 0.71473  0.03806  0.31701  Biso   1.000  N
  N284     1.0000 0.68789  0.03806  0.29322  Biso   1.000  N
  N285     1.0000 0.66623  0.06508  0.29869  Biso   1.000  N
  C377     1.0000 0.70986  0.06612  0.33776  Biso   1.000  C
  H189     1.0000 0.72440  0.07300  0.35650  Biso   1.000  H
  C378     1.0000 0.67947  0.08323  0.32671  Biso   1.000  C
  C379     1.0000 0.66225  0.11550  0.34071  Biso   1.000  C
  C380     1.0000 0.67576  0.13237  0.37056  Biso   1.000  C
  H190     1.0000 0.69610  0.12350  0.38140  Biso   1.000  H
  N286     1.0000 0.71473  0.53806  0.81701  Biso   1.000  N
  N287     1.0000 0.68789  0.53806  0.79322  Biso   1.000  N
  N288     1.0000 0.66623  0.56508  0.79869  Biso   1.000  N
  C381     1.0000 0.70986  0.56612  0.83776  Biso   1.000  C
  H191     1.0000 0.72440  0.57300  0.85650  Biso   1.000  H
  C382     1.0000 0.67947  0.58323  0.82671  Biso   1.000  C
  C383     1.0000 0.66225  0.61550  0.84071  Biso   1.000  C
  C384     1.0000 0.67576  0.63237  0.87056  Biso   1.000  C
  H192     1.0000 0.69610  0.62350  0.88140  Biso   1.000  H
  N289     1.0000 0.31701  0.53806  0.71473  Biso   1.000  N
  N290     1.0000 0.29322  0.53806  0.68789  Biso   1.000  N
  N291     1.0000 0.29869  0.56508  0.66623  Biso   1.000  N
  C385     1.0000 0.33776  0.56612  0.70986  Biso   1.000  C
  H193     1.0000 0.35650  0.57300  0.72440  Biso   1.000  H
  C386     1.0000 0.32671  0.58323  0.67947  Biso   1.000  C
  C387     1.0000 0.34071  0.61550  0.66225  Biso   1.000  C
  C388     1.0000 0.37056  0.63237  0.67576  Biso   1.000  C
  H194     1.0000 0.38140  0.62350  0.69610  Biso   1.000  H
  N292     1.0000 0.31701  0.03806  0.21473  Biso   1.000  N
  N293     1.0000 0.29322  0.03806  0.18789  Biso   1.000  N
  N294     1.0000 0.29869  0.06508  0.16623  Biso   1.000  N
  C389     1.0000 0.33776  0.06612  0.20986  Biso   1.000  C
  H195     1.0000 0.35650  0.07300  0.22440  Biso   1.000  H
  C390     1.0000 0.32671  0.08323  0.17947  Biso   1.000  C
  C391     1.0000 0.34071  0.11550  0.16225  Biso   1.000  C
  C392     1.0000 0.37056  0.13237  0.17576  Biso   1.000  C
  H196     1.0000 0.38140  0.12350  0.19610  Biso   1.000  H
  N295     1.0000 0.81701  0.53806  0.21473  Biso   1.000  N
  N296     1.0000 0.79322  0.53806  0.18789  Biso   1.000  N
  N297     1.0000 0.79869  0.56508  0.16623  Biso   1.000  N
  C393     1.0000 0.83776  0.56612  0.20986  Biso   1.000  C
  H197     1.0000 0.85650  0.57300  0.22440  Biso   1.000  H
  C394     1.0000 0.82671  0.58323  0.17947  Biso   1.000  C
  C395     1.0000 0.84071  0.61550  0.16225  Biso   1.000  C
  C396     1.0000 0.87056  0.63237  0.17576  Biso   1.000  C
  H198     1.0000 0.88140  0.62350  0.19610  Biso   1.000  H
  N298     1.0000 0.81701  0.03806  0.71473  Biso   1.000  N
  N299     1.0000 0.79322  0.03806  0.68789  Biso   1.000  N
  N300     1.0000 0.79869  0.06508  0.66623  Biso   1.000  N
  C397     1.0000 0.83776  0.06612  0.70986  Biso   1.000  C
  H199     1.0000 0.85650  0.07300  0.72440  Biso   1.000  H
  C398     1.0000 0.82671  0.08323  0.67947  Biso   1.000  C
  C399     1.0000 0.84071  0.11550  0.66225  Biso   1.000  C
  C400     1.0000 0.87056  0.13237  0.67576  Biso   1.000  C
  H200     1.0000 0.88140  0.12350  0.69610  Biso   1.000  H
  N301     1.0000 0.68299  0.46194  0.71473  Biso   1.000  N
  N302     1.0000 0.70678  0.46194  0.68789  Biso   1.000  N
  N303     1.0000 0.70131  0.43492  0.66623  Biso   1.000  N
  C401     1.0000 0.66224  0.43388  0.70986  Biso   1.000  C
  H201     1.0000 0.64350  0.42700  0.72440  Biso   1.000  H
  C402     1.0000 0.67329  0.41677  0.67947  Biso   1.000  C
  C403     1.0000 0.65929  0.38450  0.66225  Biso   1.000  C
  C404     1.0000 0.62944  0.36763  0.67576  Biso   1.000  C
  H202     1.0000 0.61860  0.37650  0.69610  Biso   1.000  H
  N304     1.0000 0.68299  0.96194  0.21473  Biso   1.000  N
  N305     1.0000 0.70678  0.96194  0.18789  Biso   1.000  N
  N306     1.0000 0.70131  0.93492  0.16623  Biso   1.000  N
  C405     1.0000 0.66224  0.93388  0.20986  Biso   1.000  C
  H203     1.0000 0.64350  0.92700  0.22440  Biso   1.000  H
  C406     1.0000 0.67329  0.91677  0.17947  Biso   1.000  C
  C407     1.0000 0.65929  0.88450  0.16225  Biso   1.000  C
  C408     1.0000 0.62944  0.86763  0.17576  Biso   1.000  C
  H204     1.0000 0.61860  0.87650  0.19610  Biso   1.000  H
  N307     1.0000 0.18299  0.46194  0.21473  Biso   1.000  N
  N308     1.0000 0.20678  0.46194  0.18789  Biso   1.000  N
  N309     1.0000 0.20131  0.43492  0.16623  Biso   1.000  N
  C409     1.0000 0.16224  0.43388  0.20986  Biso   1.000  C
  H205     1.0000 0.14350  0.42700  0.22440  Biso   1.000  H
  C410     1.0000 0.17329  0.41677  0.17947  Biso   1.000  C
  C411     1.0000 0.15929  0.38450  0.16225  Biso   1.000  C
  C412     1.0000 0.12944  0.36763  0.17576  Biso   1.000  C
  H206     1.0000 0.11860  0.37650  0.19610  Biso   1.000  H
  N310     1.0000 0.18299  0.96194  0.71473  Biso   1.000  N
  N311     1.0000 0.20678  0.96194  0.68789  Biso   1.000  N
  N312     1.0000 0.20131  0.93492  0.66623  Biso   1.000  N
  C413     1.0000 0.16224  0.93388  0.70986  Biso   1.000  C
  H207     1.0000 0.14350  0.92700  0.72440  Biso   1.000  H
  C414     1.0000 0.17329  0.91677  0.67947  Biso   1.000  C
  C415     1.0000 0.15929  0.88450  0.66225  Biso   1.000  C
  C416     1.0000 0.12944  0.86763  0.67576  Biso   1.000  C
  H208     1.0000 0.11860  0.87650  0.69610  Biso   1.000  H
  N313     1.0000 0.68299  0.53806  0.28527  Biso   1.000  N
  N314     1.0000 0.70678  0.53806  0.31211  Biso   1.000  N
  N315     1.0000 0.70131  0.56508  0.33377  Biso   1.000  N
  C417     1.0000 0.66224  0.56612  0.29014  Biso   1.000  C
  H209     1.0000 0.64350  0.57300  0.27560  Biso   1.000  H
  C418     1.0000 0.67329  0.58323  0.32053  Biso   1.000  C
  C419     1.0000 0.65929  0.61550  0.33775  Biso   1.000  C
  C420     1.0000 0.62944  0.63237  0.32424  Biso   1.000  C
  H210     1.0000 0.61860  0.62350  0.30390  Biso   1.000  H
  N316     1.0000 0.68299  0.03806  0.78527  Biso   1.000  N
  N317     1.0000 0.70678  0.03806  0.81211  Biso   1.000  N
  N318     1.0000 0.70131  0.06508  0.83377  Biso   1.000  N
  C421     1.0000 0.66224  0.06612  0.79014  Biso   1.000  C
  H211     1.0000 0.64350  0.07300  0.77560  Biso   1.000  H
  C422     1.0000 0.67329  0.08323  0.82053  Biso   1.000  C
  C423     1.0000 0.65929  0.11550  0.83775  Biso   1.000  C
  C424     1.0000 0.62944  0.13237  0.82424  Biso   1.000  C
  H212     1.0000 0.61860  0.12350  0.80390  Biso   1.000  H
  N319     1.0000 0.18299  0.53806  0.78527  Biso   1.000  N
  N320     1.0000 0.20678  0.53806  0.81211  Biso   1.000  N
  N321     1.0000 0.20131  0.56508  0.83377  Biso   1.000  N
  C425     1.0000 0.16224  0.56612  0.79014  Biso   1.000  C
  H213     1.0000 0.14350  0.57300  0.77560  Biso   1.000  H
  C426     1.0000 0.17329  0.58323  0.82053  Biso   1.000  C
  C427     1.0000 0.15929  0.61550  0.83775  Biso   1.000  C
  C428     1.0000 0.12944  0.63237  0.82424  Biso   1.000  C
  H214     1.0000 0.11860  0.62350  0.80390  Biso   1.000  H
  N322     1.0000 0.18299  0.03806  0.28527  Biso   1.000  N
  N323     1.0000 0.20678  0.03806  0.31211  Biso   1.000  N
  N324     1.0000 0.20131  0.06508  0.33377  Biso   1.000  N
  C429     1.0000 0.16224  0.06612  0.29014  Biso   1.000  C
  H215     1.0000 0.14350  0.07300  0.27560  Biso   1.000  H
  C430     1.0000 0.17329  0.08323  0.32053  Biso   1.000  C
  C431     1.0000 0.15929  0.11550  0.33775  Biso   1.000  C
  C432     1.0000 0.12944  0.13237  0.32424  Biso   1.000  C
  H216     1.0000 0.11860  0.12350  0.30390  Biso   1.000  H
  N325     1.0000 0.31701  0.46194  0.28527  Biso   1.000  N
  N326     1.0000 0.29322  0.46194  0.31211  Biso   1.000  N
  N327     1.0000 0.29869  0.43492  0.33377  Biso   1.000  N
  C433     1.0000 0.33776  0.43388  0.29014  Biso   1.000  C
  H217     1.0000 0.35650  0.42700  0.27560  Biso   1.000  H
  C434     1.0000 0.32671  0.41677  0.32053  Biso   1.000  C
  C435     1.0000 0.34071  0.38450  0.33775  Biso   1.000  C
  C436     1.0000 0.37056  0.36763  0.32424  Biso   1.000  C
  H218     1.0000 0.38140  0.37650  0.30390  Biso   1.000  H
  N328     1.0000 0.31701  0.96194  0.78527  Biso   1.000  N
  N329     1.0000 0.29322  0.96194  0.81211  Biso   1.000  N
  N330     1.0000 0.29869  0.93492  0.83377  Biso   1.000  N
  C437     1.0000 0.33776  0.93388  0.79014  Biso   1.000  C
  H219     1.0000 0.35650  0.92700  0.77560  Biso   1.000  H
  C438     1.0000 0.32671  0.91677  0.82053  Biso   1.000  C
  C439     1.0000 0.34071  0.88450  0.83775  Biso   1.000  C
  C440     1.0000 0.37056  0.86763  0.82424  Biso   1.000  C
  H220     1.0000 0.38140  0.87650  0.80390  Biso   1.000  H
  N331     1.0000 0.81701  0.46194  0.78527  Biso   1.000  N
  N332     1.0000 0.79322  0.46194  0.81211  Biso   1.000  N
  N333     1.0000 0.79869  0.43492  0.83377  Biso   1.000  N
  C441     1.0000 0.83776  0.43388  0.79014  Biso   1.000  C
  H221     1.0000 0.85650  0.42700  0.77560  Biso   1.000  H
  C442     1.0000 0.82671  0.41677  0.82053  Biso   1.000  C
  C443     1.0000 0.84071  0.38450  0.83775  Biso   1.000  C
  C444     1.0000 0.87056  0.36763  0.82424  Biso   1.000  C
  H222     1.0000 0.88140  0.37650  0.80390  Biso   1.000  H
  N334     1.0000 0.81701  0.96194  0.28527  Biso   1.000  N
  N335     1.0000 0.79322  0.96194  0.31211  Biso   1.000  N
  N336     1.0000 0.79869  0.93492  0.33377  Biso   1.000  N
  C445     1.0000 0.83776  0.93388  0.29014  Biso   1.000  C
  H223     1.0000 0.85650  0.92700  0.27560  Biso   1.000  H
  C446     1.0000 0.82671  0.91677  0.32053  Biso   1.000  C
  C447     1.0000 0.84071  0.88450  0.33775  Biso   1.000  C
  C448     1.0000 0.87056  0.86763  0.32424  Biso   1.000  C
  H224     1.0000 0.88140  0.87650  0.30390  Biso   1.000  H
  N337     1.0000 0.71473  0.31701  0.53806  Biso   1.000  N
  N338     1.0000 0.68789  0.29322  0.53806  Biso   1.000  N
  N339     1.0000 0.66623  0.29869  0.56508  Biso   1.000  N
  C449     1.0000 0.70986  0.33776  0.56612  Biso   1.000  C
  H225     1.0000 0.72440  0.35650  0.57300  Biso   1.000  H
  C450     1.0000 0.67947  0.32671  0.58323  Biso   1.000  C
  C451     1.0000 0.66225  0.34071  0.61550  Biso   1.000  C
  C452     1.0000 0.67576  0.37056  0.63237  Biso   1.000  C
  H226     1.0000 0.69610  0.38140  0.62350  Biso   1.000  H
  N340     1.0000 0.71473  0.81701  0.03806  Biso   1.000  N
  N341     1.0000 0.68789  0.79322  0.03806  Biso   1.000  N
  N342     1.0000 0.66623  0.79869  0.06508  Biso   1.000  N
  C453     1.0000 0.70986  0.83776  0.06612  Biso   1.000  C
  H227     1.0000 0.72440  0.85650  0.07300  Biso   1.000  H
  C454     1.0000 0.67947  0.82671  0.08323  Biso   1.000  C
  C455     1.0000 0.66225  0.84071  0.11550  Biso   1.000  C
  C456     1.0000 0.67576  0.87056  0.13237  Biso   1.000  C
  H228     1.0000 0.69610  0.88140  0.12350  Biso   1.000  H
  N343     1.0000 0.21473  0.31701  0.03806  Biso   1.000  N
  N344     1.0000 0.18789  0.29322  0.03806  Biso   1.000  N
  N345     1.0000 0.16623  0.29869  0.06508  Biso   1.000  N
  C457     1.0000 0.20986  0.33776  0.06612  Biso   1.000  C
  H229     1.0000 0.22440  0.35650  0.07300  Biso   1.000  H
  C458     1.0000 0.17947  0.32671  0.08323  Biso   1.000  C
  C459     1.0000 0.16225  0.34071  0.11550  Biso   1.000  C
  C460     1.0000 0.17576  0.37056  0.13237  Biso   1.000  C
  H230     1.0000 0.19610  0.38140  0.12350  Biso   1.000  H
  N346     1.0000 0.21473  0.81701  0.53806  Biso   1.000  N
  N347     1.0000 0.18789  0.79322  0.53806  Biso   1.000  N
  N348     1.0000 0.16623  0.79869  0.56508  Biso   1.000  N
  C461     1.0000 0.20986  0.83776  0.56612  Biso   1.000  C
  H231     1.0000 0.22440  0.85650  0.57300  Biso   1.000  H
  C462     1.0000 0.17947  0.82671  0.58323  Biso   1.000  C
  C463     1.0000 0.16225  0.84071  0.61550  Biso   1.000  C
  C464     1.0000 0.17576  0.87056  0.63237  Biso   1.000  C
  H232     1.0000 0.19610  0.88140  0.62350  Biso   1.000  H
  N349     1.0000 0.71473  0.68299  0.46194  Biso   1.000  N
  N350     1.0000 0.68789  0.70678  0.46194  Biso   1.000  N
  N351     1.0000 0.66623  0.70131  0.43492  Biso   1.000  N
  C465     1.0000 0.70986  0.66224  0.43388  Biso   1.000  C
  H233     1.0000 0.72440  0.64350  0.42700  Biso   1.000  H
  C466     1.0000 0.67947  0.67329  0.41677  Biso   1.000  C
  C467     1.0000 0.66225  0.65929  0.38450  Biso   1.000  C
  C468     1.0000 0.67576  0.62944  0.36763  Biso   1.000  C
  H234     1.0000 0.69610  0.61860  0.37650  Biso   1.000  H
  N352     1.0000 0.71473  0.18299  0.96194  Biso   1.000  N
  N353     1.0000 0.68789  0.20678  0.96194  Biso   1.000  N
  N354     1.0000 0.66623  0.20131  0.93492  Biso   1.000  N
  C469     1.0000 0.70986  0.16224  0.93388  Biso   1.000  C
  H235     1.0000 0.72440  0.14350  0.92700  Biso   1.000  H
  C470     1.0000 0.67947  0.17329  0.91677  Biso   1.000  C
  C471     1.0000 0.66225  0.15929  0.88450  Biso   1.000  C
  C472     1.0000 0.67576  0.12944  0.86763  Biso   1.000  C
  H236     1.0000 0.69610  0.11860  0.87650  Biso   1.000  H
  N355     1.0000 0.21473  0.68299  0.96194  Biso   1.000  N
  N356     1.0000 0.18789  0.70678  0.96194  Biso   1.000  N
  N357     1.0000 0.16623  0.70131  0.93492  Biso   1.000  N
  C473     1.0000 0.20986  0.66224  0.93388  Biso   1.000  C
  H237     1.0000 0.22440  0.64350  0.92700  Biso   1.000  H
  C474     1.0000 0.17947  0.67329  0.91677  Biso   1.000  C
  C475     1.0000 0.16225  0.65929  0.88450  Biso   1.000  C
  C476     1.0000 0.17576  0.62944  0.86763  Biso   1.000  C
  H238     1.0000 0.19610  0.61860  0.87650  Biso   1.000  H
  N358     1.0000 0.21473  0.18299  0.46194  Biso   1.000  N
  N359     1.0000 0.18789  0.20678  0.46194  Biso   1.000  N
  N360     1.0000 0.16623  0.20131  0.43492  Biso   1.000  N
  C477     1.0000 0.20986  0.16224  0.43388  Biso   1.000  C
  H239     1.0000 0.22440  0.14350  0.42700  Biso   1.000  H
  C478     1.0000 0.17947  0.17329  0.41677  Biso   1.000  C
  C479     1.0000 0.16225  0.15929  0.38450  Biso   1.000  C
  C480     1.0000 0.17576  0.12944  0.36763  Biso   1.000  C
  H240     1.0000 0.19610  0.11860  0.37650  Biso   1.000  H
  N361     1.0000 0.28527  0.68299  0.53806  Biso   1.000  N
  N362     1.0000 0.31211  0.70678  0.53806  Biso   1.000  N
  N363     1.0000 0.33377  0.70131  0.56508  Biso   1.000  N
  C481     1.0000 0.29014  0.66224  0.56612  Biso   1.000  C
  H241     1.0000 0.27560  0.64350  0.57300  Biso   1.000  H
  C482     1.0000 0.32053  0.67329  0.58323  Biso   1.000  C
  C483     1.0000 0.33775  0.65929  0.61550  Biso   1.000  C
  C484     1.0000 0.32424  0.62944  0.63237  Biso   1.000  C
  H242     1.0000 0.30390  0.61860  0.62350  Biso   1.000  H
  N364     1.0000 0.28527  0.18299  0.03806  Biso   1.000  N
  N365     1.0000 0.31211  0.20678  0.03806  Biso   1.000  N
  N366     1.0000 0.33377  0.20131  0.06508  Biso   1.000  N
  C485     1.0000 0.29014  0.16224  0.06612  Biso   1.000  C
  H243     1.0000 0.27560  0.14350  0.07300  Biso   1.000  H
  C486     1.0000 0.32053  0.17329  0.08323  Biso   1.000  C
  C487     1.0000 0.33775  0.15929  0.11550  Biso   1.000  C
  C488     1.0000 0.32424  0.12944  0.13237  Biso   1.000  C
  H244     1.0000 0.30390  0.11860  0.12350  Biso   1.000  H
  N367     1.0000 0.78527  0.68299  0.03806  Biso   1.000  N
  N368     1.0000 0.81211  0.70678  0.03806  Biso   1.000  N
  N369     1.0000 0.83377  0.70131  0.06508  Biso   1.000  N
  C489     1.0000 0.79014  0.66224  0.06612  Biso   1.000  C
  H245     1.0000 0.77560  0.64350  0.07300  Biso   1.000  H
  C490     1.0000 0.82053  0.67329  0.08323  Biso   1.000  C
  C491     1.0000 0.83775  0.65929  0.11550  Biso   1.000  C
  C492     1.0000 0.82424  0.62944  0.13237  Biso   1.000  C
  H246     1.0000 0.80390  0.61860  0.12350  Biso   1.000  H
  N370     1.0000 0.78527  0.18299  0.53806  Biso   1.000  N
  N371     1.0000 0.81211  0.20678  0.53806  Biso   1.000  N
  N372     1.0000 0.83377  0.20131  0.56508  Biso   1.000  N
  C493     1.0000 0.79014  0.16224  0.56612  Biso   1.000  C
  H247     1.0000 0.77560  0.14350  0.57300  Biso   1.000  H
  C494     1.0000 0.82053  0.17329  0.58323  Biso   1.000  C
  C495     1.0000 0.83775  0.15929  0.61550  Biso   1.000  C
  C496     1.0000 0.82424  0.12944  0.63237  Biso   1.000  C
  H248     1.0000 0.80390  0.11860  0.62350  Biso   1.000  H
  N373     1.0000 0.28527  0.31701  0.46194  Biso   1.000  N
  N374     1.0000 0.31211  0.29322  0.46194  Biso   1.000  N
  N375     1.0000 0.33377  0.29869  0.43492  Biso   1.000  N
  C497     1.0000 0.29014  0.33776  0.43388  Biso   1.000  C
  H249     1.0000 0.27560  0.35650  0.42700  Biso   1.000  H
  C498     1.0000 0.32053  0.32671  0.41677  Biso   1.000  C
  C499     1.0000 0.33775  0.34071  0.38450  Biso   1.000  C
  C500     1.0000 0.32424  0.37056  0.36763  Biso   1.000  C
  H250     1.0000 0.30390  0.38140  0.37650  Biso   1.000  H
  N376     1.0000 0.28527  0.81701  0.96194  Biso   1.000  N
  N377     1.0000 0.31211  0.79322  0.96194  Biso   1.000  N
  N378     1.0000 0.33377  0.79869  0.93492  Biso   1.000  N
  C501     1.0000 0.29014  0.83776  0.93388  Biso   1.000  C
  H251     1.0000 0.27560  0.85650  0.92700  Biso   1.000  H
  C502     1.0000 0.32053  0.82671  0.91677  Biso   1.000  C
  C503     1.0000 0.33775  0.84071  0.88450  Biso   1.000  C
  C504     1.0000 0.32424  0.87056  0.86763  Biso   1.000  C
  H252     1.0000 0.30390  0.88140  0.87650  Biso   1.000  H
  N379     1.0000 0.78527  0.31701  0.96194  Biso   1.000  N
  N380     1.0000 0.81211  0.29322  0.96194  Biso   1.000  N
  N381     1.0000 0.83377  0.29869  0.93492  Biso   1.000  N
  C505     1.0000 0.79014  0.33776  0.93388  Biso   1.000  C
  H253     1.0000 0.77560  0.35650  0.92700  Biso   1.000  H
  C506     1.0000 0.82053  0.32671  0.91677  Biso   1.000  C
  C507     1.0000 0.83775  0.34071  0.88450  Biso   1.000  C
  C508     1.0000 0.82424  0.37056  0.86763  Biso   1.000  C
  H254     1.0000 0.80390  0.38140  0.87650  Biso   1.000  H
  N382     1.0000 0.78527  0.81701  0.46194  Biso   1.000  N
  N383     1.0000 0.81211  0.79322  0.46194  Biso   1.000  N
  N384     1.0000 0.83377  0.79869  0.43492  Biso   1.000  N
  C509     1.0000 0.79014  0.83776  0.43388  Biso   1.000  C
  H255     1.0000 0.77560  0.85650  0.42700  Biso   1.000  H
  C510     1.0000 0.82053  0.82671  0.41677  Biso   1.000  C
  C511     1.0000 0.83775  0.84071  0.38450  Biso   1.000  C
  C512     1.0000 0.82424  0.87056  0.36763  Biso   1.000  C
  H256     1.0000 0.80390  0.88140  0.37650  Biso   1.000  H
  N385     1.0000 0.53806  0.71473  0.31701  Biso   1.000  N
  N386     1.0000 0.53806  0.68789  0.29322  Biso   1.000  N
  N387     1.0000 0.56508  0.66623  0.29869  Biso   1.000  N
  C513     1.0000 0.56612  0.70986  0.33776  Biso   1.000  C
  H257     1.0000 0.57300  0.72440  0.35650  Biso   1.000  H
  C514     1.0000 0.58323  0.67947  0.32671  Biso   1.000  C
  C515     1.0000 0.61550  0.66225  0.34071  Biso   1.000  C
  C516     1.0000 0.63237  0.67576  0.37056  Biso   1.000  C
  H258     1.0000 0.62350  0.69610  0.38140  Biso   1.000  H
  N388     1.0000 0.53806  0.21473  0.81701  Biso   1.000  N
  N389     1.0000 0.53806  0.18789  0.79322  Biso   1.000  N
  N390     1.0000 0.56508  0.16623  0.79869  Biso   1.000  N
  C517     1.0000 0.56612  0.20986  0.83776  Biso   1.000  C
  H259     1.0000 0.57300  0.22440  0.85650  Biso   1.000  H
  C518     1.0000 0.58323  0.17947  0.82671  Biso   1.000  C
  C519     1.0000 0.61550  0.16225  0.84071  Biso   1.000  C
  C520     1.0000 0.63237  0.17576  0.87056  Biso   1.000  C
  H260     1.0000 0.62350  0.19610  0.88140  Biso   1.000  H
  N391     1.0000 0.03806  0.71473  0.81701  Biso   1.000  N
  N392     1.0000 0.03806  0.68789  0.79322  Biso   1.000  N
  N393     1.0000 0.06508  0.66623  0.79869  Biso   1.000  N
  C521     1.0000 0.06612  0.70986  0.83776  Biso   1.000  C
  H261     1.0000 0.07300  0.72440  0.85650  Biso   1.000  H
  C522     1.0000 0.08323  0.67947  0.82671  Biso   1.000  C
  C523     1.0000 0.11550  0.66225  0.84071  Biso   1.000  C
  C524     1.0000 0.13237  0.67576  0.87056  Biso   1.000  C
  H262     1.0000 0.12350  0.69610  0.88140  Biso   1.000  H
  N394     1.0000 0.03806  0.21473  0.31701  Biso   1.000  N
  N395     1.0000 0.03806  0.18789  0.29322  Biso   1.000  N
  N396     1.0000 0.06508  0.16623  0.29869  Biso   1.000  N
  C525     1.0000 0.06612  0.20986  0.33776  Biso   1.000  C
  H263     1.0000 0.07300  0.22440  0.35650  Biso   1.000  H
  C526     1.0000 0.08323  0.17947  0.32671  Biso   1.000  C
  C527     1.0000 0.11550  0.16225  0.34071  Biso   1.000  C
  C528     1.0000 0.13237  0.17576  0.37056  Biso   1.000  C
  H264     1.0000 0.12350  0.19610  0.38140  Biso   1.000  H
  N397     1.0000 0.46194  0.71473  0.68299  Biso   1.000  N
  N398     1.0000 0.46194  0.68789  0.70678  Biso   1.000  N
  N399     1.0000 0.43492  0.66623  0.70131  Biso   1.000  N
  C529     1.0000 0.43388  0.70986  0.66224  Biso   1.000  C
  H265     1.0000 0.42700  0.72440  0.64350  Biso   1.000  H
  C530     1.0000 0.41677  0.67947  0.67329  Biso   1.000  C
  C531     1.0000 0.38450  0.66225  0.65929  Biso   1.000  C
  C532     1.0000 0.36763  0.67576  0.62944  Biso   1.000  C
  H266     1.0000 0.37650  0.69610  0.61860  Biso   1.000  H
  N400     1.0000 0.46194  0.21473  0.18299  Biso   1.000  N
  N401     1.0000 0.46194  0.18789  0.20678  Biso   1.000  N
  N402     1.0000 0.43492  0.16623  0.20131  Biso   1.000  N
  C533     1.0000 0.43388  0.20986  0.16224  Biso   1.000  C
  H267     1.0000 0.42700  0.22440  0.14350  Biso   1.000  H
  C534     1.0000 0.41677  0.17947  0.17329  Biso   1.000  C
  C535     1.0000 0.38450  0.16225  0.15929  Biso   1.000  C
  C536     1.0000 0.36763  0.17576  0.12944  Biso   1.000  C
  H268     1.0000 0.37650  0.19610  0.11860  Biso   1.000  H
  N403     1.0000 0.96194  0.71473  0.18299  Biso   1.000  N
  N404     1.0000 0.96194  0.68789  0.20678  Biso   1.000  N
  N405     1.0000 0.93492  0.66623  0.20131  Biso   1.000  N
  C537     1.0000 0.93388  0.70986  0.16224  Biso   1.000  C
  H269     1.0000 0.92700  0.72440  0.14350  Biso   1.000  H
  C538     1.0000 0.91677  0.67947  0.17329  Biso   1.000  C
  C539     1.0000 0.88450  0.66225  0.15929  Biso   1.000  C
  C540     1.0000 0.86763  0.67576  0.12944  Biso   1.000  C
  H270     1.0000 0.87650  0.69610  0.11860  Biso   1.000  H
  N406     1.0000 0.96194  0.21473  0.68299  Biso   1.000  N
  N407     1.0000 0.96194  0.18789  0.70678  Biso   1.000  N
  N408     1.0000 0.93492  0.16623  0.70131  Biso   1.000  N
  C541     1.0000 0.93388  0.20986  0.66224  Biso   1.000  C
  H271     1.0000 0.92700  0.22440  0.64350  Biso   1.000  H
  C542     1.0000 0.91677  0.17947  0.67329  Biso   1.000  C
  C543     1.0000 0.88450  0.16225  0.65929  Biso   1.000  C
  C544     1.0000 0.86763  0.17576  0.62944  Biso   1.000  C
  H272     1.0000 0.87650  0.19610  0.61860  Biso   1.000  H
  N409     1.0000 0.53806  0.28527  0.68299  Biso   1.000  N
  N410     1.0000 0.53806  0.31211  0.70678  Biso   1.000  N
  N411     1.0000 0.56508  0.33377  0.70131  Biso   1.000  N
  C545     1.0000 0.56612  0.29014  0.66224  Biso   1.000  C
  H273     1.0000 0.57300  0.27560  0.64350  Biso   1.000  H
  C546     1.0000 0.58323  0.32053  0.67329  Biso   1.000  C
  C547     1.0000 0.61550  0.33775  0.65929  Biso   1.000  C
  C548     1.0000 0.63237  0.32424  0.62944  Biso   1.000  C
  H274     1.0000 0.62350  0.30390  0.61860  Biso   1.000  H
  N412     1.0000 0.53806  0.78527  0.18299  Biso   1.000  N
  N413     1.0000 0.53806  0.81211  0.20678  Biso   1.000  N
  N414     1.0000 0.56508  0.83377  0.20131  Biso   1.000  N
  C549     1.0000 0.56612  0.79014  0.16224  Biso   1.000  C
  H275     1.0000 0.57300  0.77560  0.14350  Biso   1.000  H
  C550     1.0000 0.58323  0.82053  0.17329  Biso   1.000  C
  C551     1.0000 0.61550  0.83775  0.15929  Biso   1.000  C
  C552     1.0000 0.63237  0.82424  0.12944  Biso   1.000  C
  H276     1.0000 0.62350  0.80390  0.11860  Biso   1.000  H
  N415     1.0000 0.03806  0.28527  0.18299  Biso   1.000  N
  N416     1.0000 0.03806  0.31211  0.20678  Biso   1.000  N
  N417     1.0000 0.06508  0.33377  0.20131  Biso   1.000  N
  C553     1.0000 0.06612  0.29014  0.16224  Biso   1.000  C
  H277     1.0000 0.07300  0.27560  0.14350  Biso   1.000  H
  C554     1.0000 0.08323  0.32053  0.17329  Biso   1.000  C
  C555     1.0000 0.11550  0.33775  0.15929  Biso   1.000  C
  C556     1.0000 0.13237  0.32424  0.12944  Biso   1.000  C
  H278     1.0000 0.12350  0.30390  0.11860  Biso   1.000  H
  N418     1.0000 0.03806  0.78527  0.68299  Biso   1.000  N
  N419     1.0000 0.03806  0.81211  0.70678  Biso   1.000  N
  N420     1.0000 0.06508  0.83377  0.70131  Biso   1.000  N
  C557     1.0000 0.06612  0.79014  0.66224  Biso   1.000  C
  H279     1.0000 0.07300  0.77560  0.64350  Biso   1.000  H
  C558     1.0000 0.08323  0.82053  0.67329  Biso   1.000  C
  C559     1.0000 0.11550  0.83775  0.65929  Biso   1.000  C
  C560     1.0000 0.13237  0.82424  0.62944  Biso   1.000  C
  H280     1.0000 0.12350  0.80390  0.61860  Biso   1.000  H
  N421     1.0000 0.46194  0.28527  0.31701  Biso   1.000  N
  N422     1.0000 0.46194  0.31211  0.29322  Biso   1.000  N
  N423     1.0000 0.43492  0.33377  0.29869  Biso   1.000  N
  C561     1.0000 0.43388  0.29014  0.33776  Biso   1.000  C
  H281     1.0000 0.42700  0.27560  0.35650  Biso   1.000  H
  C562     1.0000 0.41677  0.32053  0.32671  Biso   1.000  C
  C563     1.0000 0.38450  0.33775  0.34071  Biso   1.000  C
  C564     1.0000 0.36763  0.32424  0.37056  Biso   1.000  C
  H282     1.0000 0.37650  0.30390  0.38140  Biso   1.000  H
  N424     1.0000 0.46194  0.78527  0.81701  Biso   1.000  N
  N425     1.0000 0.46194  0.81211  0.79322  Biso   1.000  N
  N426     1.0000 0.43492  0.83377  0.79869  Biso   1.000  N
  C565     1.0000 0.43388  0.79014  0.83776  Biso   1.000  C
  H283     1.0000 0.42700  0.77560  0.85650  Biso   1.000  H
  C566     1.0000 0.41677  0.82053  0.82671  Biso   1.000  C
  C567     1.0000 0.38450  0.83775  0.84071  Biso   1.000  C
  C568     1.0000 0.36763  0.82424  0.87056  Biso   1.000  C
  H284     1.0000 0.37650  0.80390  0.88140  Biso   1.000  H
  N427     1.0000 0.96194  0.28527  0.81701  Biso   1.000  N
  N428     1.0000 0.96194  0.31211  0.79322  Biso   1.000  N
  N429     1.0000 0.93492  0.33377  0.79869  Biso   1.000  N
  C569     1.0000 0.93388  0.29014  0.83776  Biso   1.000  C
  H285     1.0000 0.92700  0.27560  0.85650  Biso   1.000  H
  C570     1.0000 0.91677  0.32053  0.82671  Biso   1.000  C
  C571     1.0000 0.88450  0.33775  0.84071  Biso   1.000  C
  C572     1.0000 0.86763  0.32424  0.87056  Biso   1.000  C
  H286     1.0000 0.87650  0.30390  0.88140  Biso   1.000  H
  N430     1.0000 0.96194  0.78527  0.31701  Biso   1.000  N
  N431     1.0000 0.96194  0.81211  0.29322  Biso   1.000  N
  N432     1.0000 0.93492  0.83377  0.29869  Biso   1.000  N
  C573     1.0000 0.93388  0.79014  0.33776  Biso   1.000  C
  H287     1.0000 0.92700  0.77560  0.35650  Biso   1.000  H
  C574     1.0000 0.91677  0.82053  0.32671  Biso   1.000  C
  C575     1.0000 0.88450  0.83775  0.34071  Biso   1.000  C
  C576     1.0000 0.86763  0.82424  0.37056  Biso   1.000  C
  H288     1.0000 0.87650  0.80390  0.38140  Biso   1.000  H
  N433     1.0000 0.03806  0.81701  0.78527  Biso   1.000  N
  N434     1.0000 0.03806  0.79322  0.81211  Biso   1.000  N
  N435     1.0000 0.06508  0.79869  0.83377  Biso   1.000  N
  C577     1.0000 0.06612  0.83776  0.79014  Biso   1.000  C
  H289     1.0000 0.07300  0.85650  0.77560  Biso   1.000  H
  C578     1.0000 0.08323  0.82671  0.82053  Biso   1.000  C
  C579     1.0000 0.11550  0.84071  0.83775  Biso   1.000  C
  C580     1.0000 0.13237  0.87056  0.82424  Biso   1.000  C
  H290     1.0000 0.12350  0.88140  0.80390  Biso   1.000  H
  N436     1.0000 0.03806  0.31701  0.28527  Biso   1.000  N
  N437     1.0000 0.03806  0.29322  0.31211  Biso   1.000  N
  N438     1.0000 0.06508  0.29869  0.33377  Biso   1.000  N
  C581     1.0000 0.06612  0.33776  0.29014  Biso   1.000  C
  H291     1.0000 0.07300  0.35650  0.27560  Biso   1.000  H
  C582     1.0000 0.08323  0.32671  0.32053  Biso   1.000  C
  C583     1.0000 0.11550  0.34071  0.33775  Biso   1.000  C
  C584     1.0000 0.13237  0.37056  0.32424  Biso   1.000  C
  H292     1.0000 0.12350  0.38140  0.30390  Biso   1.000  H
  N439     1.0000 0.53806  0.81701  0.28527  Biso   1.000  N
  N440     1.0000 0.53806  0.79322  0.31211  Biso   1.000  N
  N441     1.0000 0.56508  0.79869  0.33377  Biso   1.000  N
  C585     1.0000 0.56612  0.83776  0.29014  Biso   1.000  C
  H293     1.0000 0.57300  0.85650  0.27560  Biso   1.000  H
  C586     1.0000 0.58323  0.82671  0.32053  Biso   1.000  C
  C587     1.0000 0.61550  0.84071  0.33775  Biso   1.000  C
  C588     1.0000 0.63237  0.87056  0.32424  Biso   1.000  C
  H294     1.0000 0.62350  0.88140  0.30390  Biso   1.000  H
  N442     1.0000 0.53806  0.31701  0.78527  Biso   1.000  N
  N443     1.0000 0.53806  0.29322  0.81211  Biso   1.000  N
  N444     1.0000 0.56508  0.29869  0.83377  Biso   1.000  N
  C589     1.0000 0.56612  0.33776  0.79014  Biso   1.000  C
  H295     1.0000 0.57300  0.35650  0.77560  Biso   1.000  H
  C590     1.0000 0.58323  0.32671  0.82053  Biso   1.000  C
  C591     1.0000 0.61550  0.34071  0.83775  Biso   1.000  C
  C592     1.0000 0.63237  0.37056  0.82424  Biso   1.000  C
  H296     1.0000 0.62350  0.38140  0.80390  Biso   1.000  H
  N445     1.0000 0.96194  0.18299  0.78527  Biso   1.000  N
  N446     1.0000 0.96194  0.20678  0.81211  Biso   1.000  N
  N447     1.0000 0.93492  0.20131  0.83377  Biso   1.000  N
  C593     1.0000 0.93388  0.16224  0.79014  Biso   1.000  C
  H297     1.0000 0.92700  0.14350  0.77560  Biso   1.000  H
  C594     1.0000 0.91677  0.17329  0.82053  Biso   1.000  C
  C595     1.0000 0.88450  0.15929  0.83775  Biso   1.000  C
  C596     1.0000 0.86763  0.12944  0.82424  Biso   1.000  C
  H298     1.0000 0.87650  0.11860  0.80390  Biso   1.000  H
  N448     1.0000 0.96194  0.68299  0.28527  Biso   1.000  N
  N449     1.0000 0.96194  0.70678  0.31211  Biso   1.000  N
  N450     1.0000 0.93492  0.70131  0.33377  Biso   1.000  N
  C597     1.0000 0.93388  0.66224  0.29014  Biso   1.000  C
  H299     1.0000 0.92700  0.64350  0.27560  Biso   1.000  H
  C598     1.0000 0.91677  0.67329  0.32053  Biso   1.000  C
  C599     1.0000 0.88450  0.65929  0.33775  Biso   1.000  C
  C600     1.0000 0.86763  0.62944  0.32424  Biso   1.000  C
  H300     1.0000 0.87650  0.61860  0.30390  Biso   1.000  H
  N451     1.0000 0.46194  0.18299  0.28527  Biso   1.000  N
  N452     1.0000 0.46194  0.20678  0.31211  Biso   1.000  N
  N453     1.0000 0.43492  0.20131  0.33377  Biso   1.000  N
  C601     1.0000 0.43388  0.16224  0.29014  Biso   1.000  C
  H301     1.0000 0.42700  0.14350  0.27560  Biso   1.000  H
  C602     1.0000 0.41677  0.17329  0.32053  Biso   1.000  C
  C603     1.0000 0.38450  0.15929  0.33775  Biso   1.000  C
  C604     1.0000 0.36763  0.12944  0.32424  Biso   1.000  C
  H302     1.0000 0.37650  0.11860  0.30390  Biso   1.000  H
  N454     1.0000 0.46194  0.68299  0.78527  Biso   1.000  N
  N455     1.0000 0.46194  0.70678  0.81211  Biso   1.000  N
  N456     1.0000 0.43492  0.70131  0.83377  Biso   1.000  N
  C605     1.0000 0.43388  0.66224  0.79014  Biso   1.000  C
  H303     1.0000 0.42700  0.64350  0.77560  Biso   1.000  H
  C606     1.0000 0.41677  0.67329  0.82053  Biso   1.000  C
  C607     1.0000 0.38450  0.65929  0.83775  Biso   1.000  C
  C608     1.0000 0.36763  0.62944  0.82424  Biso   1.000  C
  H304     1.0000 0.37650  0.61860  0.80390  Biso   1.000  H
  N457     1.0000 0.03806  0.18299  0.21473  Biso   1.000  N
  N458     1.0000 0.03806  0.20678  0.18789  Biso   1.000  N
  N459     1.0000 0.06508  0.20131  0.16623  Biso   1.000  N
  C609     1.0000 0.06612  0.16224  0.20986  Biso   1.000  C
  H305     1.0000 0.07300  0.14350  0.22440  Biso   1.000  H
  C610     1.0000 0.08323  0.17329  0.17947  Biso   1.000  C
  C611     1.0000 0.11550  0.15929  0.16225  Biso   1.000  C
  C612     1.0000 0.13237  0.12944  0.17576  Biso   1.000  C
  H306     1.0000 0.12350  0.11860  0.19610  Biso   1.000  H
  N460     1.0000 0.03806  0.68299  0.71473  Biso   1.000  N
  N461     1.0000 0.03806  0.70678  0.68789  Biso   1.000  N
  N462     1.0000 0.06508  0.70131  0.66623  Biso   1.000  N
  C613     1.0000 0.06612  0.66224  0.70986  Biso   1.000  C
  H307     1.0000 0.07300  0.64350  0.72440  Biso   1.000  H
  C614     1.0000 0.08323  0.67329  0.67947  Biso   1.000  C
  C615     1.0000 0.11550  0.65929  0.66225  Biso   1.000  C
  C616     1.0000 0.13237  0.62944  0.67576  Biso   1.000  C
  H308     1.0000 0.12350  0.61860  0.69610  Biso   1.000  H
  N463     1.0000 0.53806  0.18299  0.71473  Biso   1.000  N
  N464     1.0000 0.53806  0.20678  0.68789  Biso   1.000  N
  N465     1.0000 0.56508  0.20131  0.66623  Biso   1.000  N
  C617     1.0000 0.56612  0.16224  0.70986  Biso   1.000  C
  H309     1.0000 0.57300  0.14350  0.72440  Biso   1.000  H
  C618     1.0000 0.58323  0.17329  0.67947  Biso   1.000  C
  C619     1.0000 0.61550  0.15929  0.66225  Biso   1.000  C
  C620     1.0000 0.63237  0.12944  0.67576  Biso   1.000  C
  H310     1.0000 0.62350  0.11860  0.69610  Biso   1.000  H
  N466     1.0000 0.53806  0.68299  0.21473  Biso   1.000  N
  N467     1.0000 0.53806  0.70678  0.18789  Biso   1.000  N
  N468     1.0000 0.56508  0.70131  0.16623  Biso   1.000  N
  C621     1.0000 0.56612  0.66224  0.20986  Biso   1.000  C
  H311     1.0000 0.57300  0.64350  0.22440  Biso   1.000  H
  C622     1.0000 0.58323  0.67329  0.17947  Biso   1.000  C
  C623     1.0000 0.61550  0.65929  0.16225  Biso   1.000  C
  C624     1.0000 0.63237  0.62944  0.17576  Biso   1.000  C
  H312     1.0000 0.62350  0.61860  0.19610  Biso   1.000  H
  N469     1.0000 0.96194  0.81701  0.21473  Biso   1.000  N
  N470     1.0000 0.96194  0.79322  0.18789  Biso   1.000  N
  N471     1.0000 0.93492  0.79869  0.16623  Biso   1.000  N
  C625     1.0000 0.93388  0.83776  0.20986  Biso   1.000  C
  H313     1.0000 0.92700  0.85650  0.22440  Biso   1.000  H
  C626     1.0000 0.91677  0.82671  0.17947  Biso   1.000  C
  C627     1.0000 0.88450  0.84071  0.16225  Biso   1.000  C
  C628     1.0000 0.86763  0.87056  0.17576  Biso   1.000  C
  H314     1.0000 0.87650  0.88140  0.19610  Biso   1.000  H
  N472     1.0000 0.96194  0.31701  0.71473  Biso   1.000  N
  N473     1.0000 0.96194  0.29322  0.68789  Biso   1.000  N
  N474     1.0000 0.93492  0.29869  0.66623  Biso   1.000  N
  C629     1.0000 0.93388  0.33776  0.70986  Biso   1.000  C
  H315     1.0000 0.92700  0.35650  0.72440  Biso   1.000  H
  C630     1.0000 0.91677  0.32671  0.67947  Biso   1.000  C
  C631     1.0000 0.88450  0.34071  0.66225  Biso   1.000  C
  C632     1.0000 0.86763  0.37056  0.67576  Biso   1.000  C
  H316     1.0000 0.87650  0.38140  0.69610  Biso   1.000  H
  N475     1.0000 0.46194  0.81701  0.71473  Biso   1.000  N
  N476     1.0000 0.46194  0.79322  0.68789  Biso   1.000  N
  N477     1.0000 0.43492  0.79869  0.66623  Biso   1.000  N
  C633     1.0000 0.43388  0.83776  0.70986  Biso   1.000  C
  H317     1.0000 0.42700  0.85650  0.72440  Biso   1.000  H
  C634     1.0000 0.41677  0.82671  0.67947  Biso   1.000  C
  C635     1.0000 0.38450  0.84071  0.66225  Biso   1.000  C
  C636     1.0000 0.36763  0.87056  0.67576  Biso   1.000  C
  H318     1.0000 0.37650  0.88140  0.69610  Biso   1.000  H
  N478     1.0000 0.46194  0.31701  0.21473  Biso   1.000  N
  N479     1.0000 0.46194  0.29322  0.18789  Biso   1.000  N
  N480     1.0000 0.43492  0.29869  0.16623  Biso   1.000  N
  C637     1.0000 0.43388  0.33776  0.20986  Biso   1.000  C
  H319     1.0000 0.42700  0.35650  0.22440  Biso   1.000  H
  C638     1.0000 0.41677  0.32671  0.17947  Biso   1.000  C
  C639     1.0000 0.38450  0.34071  0.16225  Biso   1.000  C
  C640     1.0000 0.36763  0.37056  0.17576  Biso   1.000  C
  H320     1.0000 0.37650  0.38140  0.19610  Biso   1.000  H
  N481     1.0000 0.81701  0.21473  0.96194  Biso   1.000  N
  N482     1.0000 0.79322  0.18789  0.96194  Biso   1.000  N
  N483     1.0000 0.79869  0.16623  0.93492  Biso   1.000  N
  C641     1.0000 0.83776  0.20986  0.93388  Biso   1.000  C
  H321     1.0000 0.85650  0.22440  0.92700  Biso   1.000  H
  C642     1.0000 0.82671  0.17947  0.91677  Biso   1.000  C
  C643     1.0000 0.84071  0.16225  0.88450  Biso   1.000  C
  C644     1.0000 0.87056  0.17576  0.86763  Biso   1.000  C
  H322     1.0000 0.88140  0.19610  0.87650  Biso   1.000  H
  N484     1.0000 0.81701  0.71473  0.46194  Biso   1.000  N
  N485     1.0000 0.79322  0.68789  0.46194  Biso   1.000  N
  N486     1.0000 0.79869  0.66623  0.43492  Biso   1.000  N
  C645     1.0000 0.83776  0.70986  0.43388  Biso   1.000  C
  H323     1.0000 0.85650  0.72440  0.42700  Biso   1.000  H
  C646     1.0000 0.82671  0.67947  0.41677  Biso   1.000  C
  C647     1.0000 0.84071  0.66225  0.38450  Biso   1.000  C
  C648     1.0000 0.87056  0.67576  0.36763  Biso   1.000  C
  H324     1.0000 0.88140  0.69610  0.37650  Biso   1.000  H
  N487     1.0000 0.31701  0.21473  0.46194  Biso   1.000  N
  N488     1.0000 0.29322  0.18789  0.46194  Biso   1.000  N
  N489     1.0000 0.29869  0.16623  0.43492  Biso   1.000  N
  C649     1.0000 0.33776  0.20986  0.43388  Biso   1.000  C
  H325     1.0000 0.35650  0.22440  0.42700  Biso   1.000  H
  C650     1.0000 0.32671  0.17947  0.41677  Biso   1.000  C
  C651     1.0000 0.34071  0.16225  0.38450  Biso   1.000  C
  C652     1.0000 0.37056  0.17576  0.36763  Biso   1.000  C
  H326     1.0000 0.38140  0.19610  0.37650  Biso   1.000  H
  N490     1.0000 0.31701  0.71473  0.96194  Biso   1.000  N
  N491     1.0000 0.29322  0.68789  0.96194  Biso   1.000  N
  N492     1.0000 0.29869  0.66623  0.93492  Biso   1.000  N
  C653     1.0000 0.33776  0.70986  0.93388  Biso   1.000  C
  H327     1.0000 0.35650  0.72440  0.92700  Biso   1.000  H
  C654     1.0000 0.32671  0.67947  0.91677  Biso   1.000  C
  C655     1.0000 0.34071  0.66225  0.88450  Biso   1.000  C
  C656     1.0000 0.37056  0.67576  0.86763  Biso   1.000  C
  H328     1.0000 0.38140  0.69610  0.87650  Biso   1.000  H
  N493     1.0000 0.18299  0.21473  0.03806  Biso   1.000  N
  N494     1.0000 0.20678  0.18789  0.03806  Biso   1.000  N
  N495     1.0000 0.20131  0.16623  0.06508  Biso   1.000  N
  C657     1.0000 0.16224  0.20986  0.06612  Biso   1.000  C
  H329     1.0000 0.14350  0.22440  0.07300  Biso   1.000  H
  C658     1.0000 0.17329  0.17947  0.08323  Biso   1.000  C
  C659     1.0000 0.15929  0.16225  0.11550  Biso   1.000  C
  C660     1.0000 0.12944  0.17576  0.13237  Biso   1.000  C
  H330     1.0000 0.11860  0.19610  0.12350  Biso   1.000  H
  N496     1.0000 0.18299  0.71473  0.53806  Biso   1.000  N
  N497     1.0000 0.20678  0.68789  0.53806  Biso   1.000  N
  N498     1.0000 0.20131  0.66623  0.56508  Biso   1.000  N
  C661     1.0000 0.16224  0.70986  0.56612  Biso   1.000  C
  H331     1.0000 0.14350  0.72440  0.57300  Biso   1.000  H
  C662     1.0000 0.17329  0.67947  0.58323  Biso   1.000  C
  C663     1.0000 0.15929  0.66225  0.61550  Biso   1.000  C
  C664     1.0000 0.12944  0.67576  0.63237  Biso   1.000  C
  H332     1.0000 0.11860  0.69610  0.62350  Biso   1.000  H
  N499     1.0000 0.68299  0.21473  0.53806  Biso   1.000  N
  N500     1.0000 0.70678  0.18789  0.53806  Biso   1.000  N
  N501     1.0000 0.70131  0.16623  0.56508  Biso   1.000  N
  C665     1.0000 0.66224  0.20986  0.56612  Biso   1.000  C
  H333     1.0000 0.64350  0.22440  0.57300  Biso   1.000  H
  C666     1.0000 0.67329  0.17947  0.58323  Biso   1.000  C
  C667     1.0000 0.65929  0.16225  0.61550  Biso   1.000  C
  C668     1.0000 0.62944  0.17576  0.63237  Biso   1.000  C
  H334     1.0000 0.61860  0.19610  0.62350  Biso   1.000  H
  N502     1.0000 0.68299  0.71473  0.03806  Biso   1.000  N
  N503     1.0000 0.70678  0.68789  0.03806  Biso   1.000  N
  N504     1.0000 0.70131  0.66623  0.06508  Biso   1.000  N
  C669     1.0000 0.66224  0.70986  0.06612  Biso   1.000  C
  H335     1.0000 0.64350  0.72440  0.07300  Biso   1.000  H
  C670     1.0000 0.67329  0.67947  0.08323  Biso   1.000  C
  C671     1.0000 0.65929  0.66225  0.11550  Biso   1.000  C
  C672     1.0000 0.62944  0.67576  0.13237  Biso   1.000  C
  H336     1.0000 0.61860  0.69610  0.12350  Biso   1.000  H
  N505     1.0000 0.18299  0.78527  0.96194  Biso   1.000  N
  N506     1.0000 0.20678  0.81211  0.96194  Biso   1.000  N
  N507     1.0000 0.20131  0.83377  0.93492  Biso   1.000  N
  C673     1.0000 0.16224  0.79014  0.93388  Biso   1.000  C
  H337     1.0000 0.14350  0.77560  0.92700  Biso   1.000  H
  C674     1.0000 0.17329  0.82053  0.91677  Biso   1.000  C
  C675     1.0000 0.15929  0.83775  0.88450  Biso   1.000  C
  C676     1.0000 0.12944  0.82424  0.86763  Biso   1.000  C
  H338     1.0000 0.11860  0.80390  0.87650  Biso   1.000  H
  N508     1.0000 0.18299  0.28527  0.46194  Biso   1.000  N
  N509     1.0000 0.20678  0.31211  0.46194  Biso   1.000  N
  N510     1.0000 0.20131  0.33377  0.43492  Biso   1.000  N
  C677     1.0000 0.16224  0.29014  0.43388  Biso   1.000  C
  H339     1.0000 0.14350  0.27560  0.42700  Biso   1.000  H
  C678     1.0000 0.17329  0.32053  0.41677  Biso   1.000  C
  C679     1.0000 0.15929  0.33775  0.38450  Biso   1.000  C
  C680     1.0000 0.12944  0.32424  0.36763  Biso   1.000  C
  H340     1.0000 0.11860  0.30390  0.37650  Biso   1.000  H
  N511     1.0000 0.68299  0.78527  0.46194  Biso   1.000  N
  N512     1.0000 0.70678  0.81211  0.46194  Biso   1.000  N
  N513     1.0000 0.70131  0.83377  0.43492  Biso   1.000  N
  C681     1.0000 0.66224  0.79014  0.43388  Biso   1.000  C
  H341     1.0000 0.64350  0.77560  0.42700  Biso   1.000  H
  C682     1.0000 0.67329  0.82053  0.41677  Biso   1.000  C
  C683     1.0000 0.65929  0.83775  0.38450  Biso   1.000  C
  C684     1.0000 0.62944  0.82424  0.36763  Biso   1.000  C
  H342     1.0000 0.61860  0.80390  0.37650  Biso   1.000  H
  N514     1.0000 0.68299  0.28527  0.96194  Biso   1.000  N
  N515     1.0000 0.70678  0.31211  0.96194  Biso   1.000  N
  N516     1.0000 0.70131  0.33377  0.93492  Biso   1.000  N
  C685     1.0000 0.66224  0.29014  0.93388  Biso   1.000  C
  H343     1.0000 0.64350  0.27560  0.92700  Biso   1.000  H
  C686     1.0000 0.67329  0.32053  0.91677  Biso   1.000  C
  C687     1.0000 0.65929  0.33775  0.88450  Biso   1.000  C
  C688     1.0000 0.62944  0.32424  0.86763  Biso   1.000  C
  H344     1.0000 0.61860  0.30390  0.87650  Biso   1.000  H
  N517     1.0000 0.81701  0.78527  0.03806  Biso   1.000  N
  N518     1.0000 0.79322  0.81211  0.03806  Biso   1.000  N
  N519     1.0000 0.79869  0.83377  0.06508  Biso   1.000  N
  C689     1.0000 0.83776  0.79014  0.06612  Biso   1.000  C
  H345     1.0000 0.85650  0.77560  0.07300  Biso   1.000  H
  C690     1.0000 0.82671  0.82053  0.08323  Biso   1.000  C
  C691     1.0000 0.84071  0.83775  0.11550  Biso   1.000  C
  C692     1.0000 0.87056  0.82424  0.13237  Biso   1.000  C
  H346     1.0000 0.88140  0.80390  0.12350  Biso   1.000  H
  N520     1.0000 0.81701  0.28527  0.53806  Biso   1.000  N
  N521     1.0000 0.79322  0.31211  0.53806  Biso   1.000  N
  N522     1.0000 0.79869  0.33377  0.56508  Biso   1.000  N
  C693     1.0000 0.83776  0.29014  0.56612  Biso   1.000  C
  H347     1.0000 0.85650  0.27560  0.57300  Biso   1.000  H
  C694     1.0000 0.82671  0.32053  0.58323  Biso   1.000  C
  C695     1.0000 0.84071  0.33775  0.61550  Biso   1.000  C
  C696     1.0000 0.87056  0.32424  0.63237  Biso   1.000  C
  H348     1.0000 0.88140  0.30390  0.62350  Biso   1.000  H
  N523     1.0000 0.31701  0.78527  0.53806  Biso   1.000  N
  N524     1.0000 0.29322  0.81211  0.53806  Biso   1.000  N
  N525     1.0000 0.29869  0.83377  0.56508  Biso   1.000  N
  C697     1.0000 0.33776  0.79014  0.56612  Biso   1.000  C
  H349     1.0000 0.35650  0.77560  0.57300  Biso   1.000  H
  C698     1.0000 0.32671  0.82053  0.58323  Biso   1.000  C
  C699     1.0000 0.34071  0.83775  0.61550  Biso   1.000  C
  C700     1.0000 0.37056  0.82424  0.63237  Biso   1.000  C
  H350     1.0000 0.38140  0.80390  0.62350  Biso   1.000  H
  N526     1.0000 0.31701  0.28527  0.03806  Biso   1.000  N
  N527     1.0000 0.29322  0.31211  0.03806  Biso   1.000  N
  N528     1.0000 0.29869  0.33377  0.06508  Biso   1.000  N
  C701     1.0000 0.33776  0.29014  0.06612  Biso   1.000  C
  H351     1.0000 0.35650  0.27560  0.07300  Biso   1.000  H
  C702     1.0000 0.32671  0.32053  0.08323  Biso   1.000  C
  C703     1.0000 0.34071  0.33775  0.11550  Biso   1.000  C
  C704     1.0000 0.37056  0.32424  0.13237  Biso   1.000  C
  H352     1.0000 0.38140  0.30390  0.12350  Biso   1.000  H
  N529     1.0000 0.21473  0.03806  0.18299  Biso   1.000  N
  N530     1.0000 0.18789  0.03806  0.20678  Biso   1.000  N
  N531     1.0000 0.16623  0.06508  0.20131  Biso   1.000  N
  C705     1.0000 0.20986  0.06612  0.16224  Biso   1.000  C
  H353     1.0000 0.22440  0.07300  0.14350  Biso   1.000  H
  C706     1.0000 0.17947  0.08323  0.17329  Biso   1.000  C
  C707     1.0000 0.16225  0.11550  0.15929  Biso   1.000  C
  C708     1.0000 0.17576  0.13237  0.12944  Biso   1.000  C
  H354     1.0000 0.19610  0.12350  0.11860  Biso   1.000  H
  N532     1.0000 0.21473  0.53806  0.68299  Biso   1.000  N
  N533     1.0000 0.18789  0.53806  0.70678  Biso   1.000  N
  N534     1.0000 0.16623  0.56508  0.70131  Biso   1.000  N
  C709     1.0000 0.20986  0.56612  0.66224  Biso   1.000  C
  H355     1.0000 0.22440  0.57300  0.64350  Biso   1.000  H
  C710     1.0000 0.17947  0.58323  0.67329  Biso   1.000  C
  C711     1.0000 0.16225  0.61550  0.65929  Biso   1.000  C
  C712     1.0000 0.17576  0.63237  0.62944  Biso   1.000  C
  H356     1.0000 0.19610  0.62350  0.61860  Biso   1.000  H
  N535     1.0000 0.71473  0.03806  0.68299  Biso   1.000  N
  N536     1.0000 0.68789  0.03806  0.70678  Biso   1.000  N
  N537     1.0000 0.66623  0.06508  0.70131  Biso   1.000  N
  C713     1.0000 0.70986  0.06612  0.66224  Biso   1.000  C
  H357     1.0000 0.72440  0.07300  0.64350  Biso   1.000  H
  C714     1.0000 0.67947  0.08323  0.67329  Biso   1.000  C
  C715     1.0000 0.66225  0.11550  0.65929  Biso   1.000  C
  C716     1.0000 0.67576  0.13237  0.62944  Biso   1.000  C
  H358     1.0000 0.69610  0.12350  0.61860  Biso   1.000  H
  N538     1.0000 0.71473  0.53806  0.18299  Biso   1.000  N
  N539     1.0000 0.68789  0.53806  0.20678  Biso   1.000  N
  N540     1.0000 0.66623  0.56508  0.20131  Biso   1.000  N
  C717     1.0000 0.70986  0.56612  0.16224  Biso   1.000  C
  H359     1.0000 0.72440  0.57300  0.14350  Biso   1.000  H
  C718     1.0000 0.67947  0.58323  0.17329  Biso   1.000  C
  C719     1.0000 0.66225  0.61550  0.15929  Biso   1.000  C
  C720     1.0000 0.67576  0.63237  0.12944  Biso   1.000  C
  H360     1.0000 0.69610  0.62350  0.11860  Biso   1.000  H
  N541     1.0000 0.21473  0.96194  0.81701  Biso   1.000  N
  N542     1.0000 0.18789  0.96194  0.79322  Biso   1.000  N
  N543     1.0000 0.16623  0.93492  0.79869  Biso   1.000  N
  C721     1.0000 0.20986  0.93388  0.83776  Biso   1.000  C
  H361     1.0000 0.22440  0.92700  0.85650  Biso   1.000  H
  C722     1.0000 0.17947  0.91677  0.82671  Biso   1.000  C
  C723     1.0000 0.16225  0.88450  0.84071  Biso   1.000  C
  C724     1.0000 0.17576  0.86763  0.87056  Biso   1.000  C
  H362     1.0000 0.19610  0.87650  0.88140  Biso   1.000  H
  N544     1.0000 0.21473  0.46194  0.31701  Biso   1.000  N
  N545     1.0000 0.18789  0.46194  0.29322  Biso   1.000  N
  N546     1.0000 0.16623  0.43492  0.29869  Biso   1.000  N
  C725     1.0000 0.20986  0.43388  0.33776  Biso   1.000  C
  H363     1.0000 0.22440  0.42700  0.35650  Biso   1.000  H
  C726     1.0000 0.17947  0.41677  0.32671  Biso   1.000  C
  C727     1.0000 0.16225  0.38450  0.34071  Biso   1.000  C
  C728     1.0000 0.17576  0.36763  0.37056  Biso   1.000  C
  H364     1.0000 0.19610  0.37650  0.38140  Biso   1.000  H
  N547     1.0000 0.71473  0.96194  0.31701  Biso   1.000  N
  N548     1.0000 0.68789  0.96194  0.29322  Biso   1.000  N
  N549     1.0000 0.66623  0.93492  0.29869  Biso   1.000  N
  C729     1.0000 0.70986  0.93388  0.33776  Biso   1.000  C
  H365     1.0000 0.72440  0.92700  0.35650  Biso   1.000  H
  C730     1.0000 0.67947  0.91677  0.32671  Biso   1.000  C
  C731     1.0000 0.66225  0.88450  0.34071  Biso   1.000  C
  C732     1.0000 0.67576  0.86763  0.37056  Biso   1.000  C
  H366     1.0000 0.69610  0.87650  0.38140  Biso   1.000  H
  N550     1.0000 0.71473  0.46194  0.81701  Biso   1.000  N
  N551     1.0000 0.68789  0.46194  0.79322  Biso   1.000  N
  N552     1.0000 0.66623  0.43492  0.79869  Biso   1.000  N
  C733     1.0000 0.70986  0.43388  0.83776  Biso   1.000  C
  H367     1.0000 0.72440  0.42700  0.85650  Biso   1.000  H
  C734     1.0000 0.67947  0.41677  0.82671  Biso   1.000  C
  C735     1.0000 0.66225  0.38450  0.84071  Biso   1.000  C
  C736     1.0000 0.67576  0.36763  0.87056  Biso   1.000  C
  H368     1.0000 0.69610  0.37650  0.88140  Biso   1.000  H
  N553     1.0000 0.78527  0.03806  0.81701  Biso   1.000  N
  N554     1.0000 0.81211  0.03806  0.79322  Biso   1.000  N
  N555     1.0000 0.83377  0.06508  0.79869  Biso   1.000  N
  C737     1.0000 0.79014  0.06612  0.83776  Biso   1.000  C
  H369     1.0000 0.77560  0.07300  0.85650  Biso   1.000  H
  C738     1.0000 0.82053  0.08323  0.82671  Biso   1.000  C
  C739     1.0000 0.83775  0.11550  0.84071  Biso   1.000  C
  C740     1.0000 0.82424  0.13237  0.87056  Biso   1.000  C
  H370     1.0000 0.80390  0.12350  0.88140  Biso   1.000  H
  N556     1.0000 0.78527  0.53806  0.31701  Biso   1.000  N
  N557     1.0000 0.81211  0.53806  0.29322  Biso   1.000  N
  N558     1.0000 0.83377  0.56508  0.29869  Biso   1.000  N
  C741     1.0000 0.79014  0.56612  0.33776  Biso   1.000  C
  H371     1.0000 0.77560  0.57300  0.35650  Biso   1.000  H
  C742     1.0000 0.82053  0.58323  0.32671  Biso   1.000  C
  C743     1.0000 0.83775  0.61550  0.34071  Biso   1.000  C
  C744     1.0000 0.82424  0.63237  0.37056  Biso   1.000  C
  H372     1.0000 0.80390  0.62350  0.38140  Biso   1.000  H
  N559     1.0000 0.28527  0.03806  0.31701  Biso   1.000  N
  N560     1.0000 0.31211  0.03806  0.29322  Biso   1.000  N
  N561     1.0000 0.33377  0.06508  0.29869  Biso   1.000  N
  C745     1.0000 0.29014  0.06612  0.33776  Biso   1.000  C
  H373     1.0000 0.27560  0.07300  0.35650  Biso   1.000  H
  C746     1.0000 0.32053  0.08323  0.32671  Biso   1.000  C
  C747     1.0000 0.33775  0.11550  0.34071  Biso   1.000  C
  C748     1.0000 0.32424  0.13237  0.37056  Biso   1.000  C
  H374     1.0000 0.30390  0.12350  0.38140  Biso   1.000  H
  N562     1.0000 0.28527  0.53806  0.81701  Biso   1.000  N
  N563     1.0000 0.31211  0.53806  0.79322  Biso   1.000  N
  N564     1.0000 0.33377  0.56508  0.79869  Biso   1.000  N
  C749     1.0000 0.29014  0.56612  0.83776  Biso   1.000  C
  H375     1.0000 0.27560  0.57300  0.85650  Biso   1.000  H
  C750     1.0000 0.32053  0.58323  0.82671  Biso   1.000  C
  C751     1.0000 0.33775  0.61550  0.84071  Biso   1.000  C
  C752     1.0000 0.32424  0.63237  0.87056  Biso   1.000  C
  H376     1.0000 0.30390  0.62350  0.88140  Biso   1.000  H
  N565     1.0000 0.78527  0.96194  0.18299  Biso   1.000  N
  N566     1.0000 0.81211  0.96194  0.20678  Biso   1.000  N
  N567     1.0000 0.83377  0.93492  0.20131  Biso   1.000  N
  C753     1.0000 0.79014  0.93388  0.16224  Biso   1.000  C
  H377     1.0000 0.77560  0.92700  0.14350  Biso   1.000  H
  C754     1.0000 0.82053  0.91677  0.17329  Biso   1.000  C
  C755     1.0000 0.83775  0.88450  0.15929  Biso   1.000  C
  C756     1.0000 0.82424  0.86763  0.12944  Biso   1.000  C
  H378     1.0000 0.80390  0.87650  0.11860  Biso   1.000  H
  N568     1.0000 0.78527  0.46194  0.68299  Biso   1.000  N
  N569     1.0000 0.81211  0.46194  0.70678  Biso   1.000  N
  N570     1.0000 0.83377  0.43492  0.70131  Biso   1.000  N
  C757     1.0000 0.79014  0.43388  0.66224  Biso   1.000  C
  H379     1.0000 0.77560  0.42700  0.64350  Biso   1.000  H
  C758     1.0000 0.82053  0.41677  0.67329  Biso   1.000  C
  C759     1.0000 0.83775  0.38450  0.65929  Biso   1.000  C
  C760     1.0000 0.82424  0.36763  0.62944  Biso   1.000  C
  H380     1.0000 0.80390  0.37650  0.61860  Biso   1.000  H
  N571     1.0000 0.28527  0.96194  0.68299  Biso   1.000  N
  N572     1.0000 0.31211  0.96194  0.70678  Biso   1.000  N
  N573     1.0000 0.33377  0.93492  0.70131  Biso   1.000  N
  C761     1.0000 0.29014  0.93388  0.66224  Biso   1.000  C
  H381     1.0000 0.27560  0.92700  0.64350  Biso   1.000  H
  C762     1.0000 0.32053  0.91677  0.67329  Biso   1.000  C
  C763     1.0000 0.33775  0.88450  0.65929  Biso   1.000  C
  C764     1.0000 0.32424  0.86763  0.62944  Biso   1.000  C
  H382     1.0000 0.30390  0.87650  0.61860  Biso   1.000  H
  N574     1.0000 0.28527  0.46194  0.18299  Biso   1.000  N
  N575     1.0000 0.31211  0.46194  0.20678  Biso   1.000  N
  N576     1.0000 0.33377  0.43492  0.20131  Biso   1.000  N
  C765     1.0000 0.29014  0.43388  0.16224  Biso   1.000  C
  H383     1.0000 0.27560  0.42700  0.14350  Biso   1.000  H
  C766     1.0000 0.32053  0.41677  0.17329  Biso   1.000  C
  C767     1.0000 0.33775  0.38450  0.15929  Biso   1.000  C
  C768     1.0000 0.32424  0.36763  0.12944  Biso   1.000  C
  H384     1.0000 0.30390  0.37650  0.11860  Biso   1.000  H
  Co1      1.0000 0.74601  0.50000  0.31708  Biso   1.000  Co
  Co2      1.0000 0.74601  0.00000  0.81708  Biso   1.000  Co
  Co3      1.0000 0.24601  0.50000  0.81708  Biso   1.000  Co
  Co4      1.0000 0.24601  0.00000  0.31708  Biso   1.000  Co
  Co5      1.0000 0.25399  0.50000  0.31708  Biso   1.000  Co
  Co6      1.0000 0.25399  0.00000  0.81708  Biso   1.000  Co
  Co7      1.0000 0.75399  0.50000  0.81708  Biso   1.000  Co
  Co8      1.0000 0.75399  0.00000  0.31708  Biso   1.000  Co
  Co9      1.0000 0.25399  0.50000  0.68292  Biso   1.000  Co
  Co10     1.0000 0.25399  0.00000  0.18292  Biso   1.000  Co
  Co11     1.0000 0.75399  0.50000  0.18292  Biso   1.000  Co
  Co12     1.0000 0.75399  0.00000  0.68292  Biso   1.000  Co
  Co13     1.0000 0.74601  0.50000  0.68292  Biso   1.000  Co
  Co14     1.0000 0.74601  0.00000  0.18292  Biso   1.000  Co
  Co15     1.0000 0.24601  0.50000  0.18292  Biso   1.000  Co
  Co16     1.0000 0.24601  0.00000  0.68292  Biso   1.000  Co
  Co17     1.0000 0.31708  0.74601  0.50000  Biso   1.000  Co
  Co18     1.0000 0.31708  0.24601  0.00000  Biso   1.000  Co
  Co19     1.0000 0.81708  0.74601  0.00000  Biso   1.000  Co
  Co20     1.0000 0.81708  0.24601  0.50000  Biso   1.000  Co
  Co21     1.0000 0.31708  0.25399  0.50000  Biso   1.000  Co
  Co22     1.0000 0.31708  0.75399  0.00000  Biso   1.000  Co
  Co23     1.0000 0.81708  0.25399  0.00000  Biso   1.000  Co
  Co24     1.0000 0.81708  0.75399  0.50000  Biso   1.000  Co
  Co25     1.0000 0.68292  0.25399  0.50000  Biso   1.000  Co
  Co26     1.0000 0.68292  0.75399  0.00000  Biso   1.000  Co
  Co27     1.0000 0.18292  0.25399  0.00000  Biso   1.000  Co
  Co28     1.0000 0.18292  0.75399  0.50000  Biso   1.000  Co
  Co29     1.0000 0.68292  0.74601  0.50000  Biso   1.000  Co
  Co30     1.0000 0.68292  0.24601  0.00000  Biso   1.000  Co
  Co31     1.0000 0.18292  0.74601  0.00000  Biso   1.000  Co
  Co32     1.0000 0.18292  0.24601  0.50000  Biso   1.000  Co
  Co33     1.0000 0.50000  0.31708  0.74601  Biso   1.000  Co
  Co34     1.0000 0.50000  0.81708  0.24601  Biso   1.000  Co
  Co35     1.0000 0.00000  0.31708  0.24601  Biso   1.000  Co
  Co36     1.0000 0.00000  0.81708  0.74601  Biso   1.000  Co
  Co37     1.0000 0.50000  0.31708  0.25399  Biso   1.000  Co
  Co38     1.0000 0.50000  0.81708  0.75399  Biso   1.000  Co
  Co39     1.0000 0.00000  0.31708  0.75399  Biso   1.000  Co
  Co40     1.0000 0.00000  0.81708  0.25399  Biso   1.000  Co
  Co41     1.0000 0.50000  0.68292  0.25399  Biso   1.000  Co
  Co42     1.0000 0.50000  0.18292  0.75399  Biso   1.000  Co
  Co43     1.0000 0.00000  0.68292  0.75399  Biso   1.000  Co
  Co44     1.0000 0.00000  0.18292  0.25399  Biso   1.000  Co
  Co45     1.0000 0.50000  0.68292  0.74601  Biso   1.000  Co
  Co46     1.0000 0.50000  0.18292  0.24601  Biso   1.000  Co
  Co47     1.0000 0.00000  0.68292  0.24601  Biso   1.000  Co
  Co48     1.0000 0.00000  0.18292  0.74601  Biso   1.000  Co
  Co49     1.0000 0.00000  0.24601  0.18292  Biso   1.000  Co
  Co50     1.0000 0.00000  0.74601  0.68292  Biso   1.000  Co
  Co51     1.0000 0.50000  0.24601  0.68292  Biso   1.000  Co
  Co52     1.0000 0.50000  0.74601  0.18292  Biso   1.000  Co
  Co53     1.0000 0.00000  0.75399  0.18292  Biso   1.000  Co
  Co54     1.0000 0.00000  0.25399  0.68292  Biso   1.000  Co
  Co55     1.0000 0.50000  0.75399  0.68292  Biso   1.000  Co
  Co56     1.0000 0.50000  0.25399  0.18292  Biso   1.000  Co
  Co57     1.0000 0.00000  0.75399  0.81708  Biso   1.000  Co
  Co58     1.0000 0.00000  0.25399  0.31708  Biso   1.000  Co
  Co59     1.0000 0.50000  0.75399  0.31708  Biso   1.000  Co
  Co60     1.0000 0.50000  0.25399  0.81708  Biso   1.000  Co
  Co61     1.0000 0.00000  0.24601  0.81708  Biso   1.000  Co
  Co62     1.0000 0.00000  0.74601  0.31708  Biso   1.000  Co
  Co63     1.0000 0.50000  0.24601  0.31708  Biso   1.000  Co
  Co64     1.0000 0.50000  0.74601  0.81708  Biso   1.000  Co
  Co65     1.0000 0.24601  0.81708  0.00000  Biso   1.000  Co
  Co66     1.0000 0.24601  0.31708  0.50000  Biso   1.000  Co
  Co67     1.0000 0.74601  0.81708  0.50000  Biso   1.000  Co
  Co68     1.0000 0.74601  0.31708  0.00000  Biso   1.000  Co
  Co69     1.0000 0.75399  0.81708  0.00000  Biso   1.000  Co
  Co70     1.0000 0.75399  0.31708  0.50000  Biso   1.000  Co
  Co71     1.0000 0.25399  0.81708  0.50000  Biso   1.000  Co
  Co72     1.0000 0.25399  0.31708  0.00000  Biso   1.000  Co
  Co73     1.0000 0.75399  0.18292  0.00000  Biso   1.000  Co
  Co74     1.0000 0.75399  0.68292  0.50000  Biso   1.000  Co
  Co75     1.0000 0.25399  0.18292  0.50000  Biso   1.000  Co
  Co76     1.0000 0.25399  0.68292  0.00000  Biso   1.000  Co
  Co77     1.0000 0.24601  0.18292  0.00000  Biso   1.000  Co
  Co78     1.0000 0.24601  0.68292  0.50000  Biso   1.000  Co
  Co79     1.0000 0.74601  0.18292  0.50000  Biso   1.000  Co
  Co80     1.0000 0.74601  0.68292  0.00000  Biso   1.000  Co
  Co81     1.0000 0.81708  0.00000  0.75399  Biso   1.000  Co
  Co82     1.0000 0.81708  0.50000  0.25399  Biso   1.000  Co
  Co83     1.0000 0.31708  0.00000  0.25399  Biso   1.000  Co
  Co84     1.0000 0.31708  0.50000  0.75399  Biso   1.000  Co
  Co85     1.0000 0.81708  0.00000  0.24601  Biso   1.000  Co
  Co86     1.0000 0.81708  0.50000  0.74601  Biso   1.000  Co
  Co87     1.0000 0.31708  0.00000  0.74601  Biso   1.000  Co
  Co88     1.0000 0.31708  0.50000  0.24601  Biso   1.000  Co
  Co89     1.0000 0.18292  0.00000  0.24601  Biso   1.000  Co
  Co90     1.0000 0.18292  0.50000  0.74601  Biso   1.000  Co
  Co91     1.0000 0.68292  0.00000  0.74601  Biso   1.000  Co
  Co92     1.0000 0.68292  0.50000  0.24601  Biso   1.000  Co
  Co93     1.0000 0.18292  0.00000  0.75399  Biso   1.000  Co
  Co94     1.0000 0.18292  0.50000  0.25399  Biso   1.000  Co
  Co95     1.0000 0.68292  0.00000  0.25399  Biso   1.000  Co
  Co96     1.0000 0.68292  0.50000  0.75399  Biso   1.000  Co
  Cl1      1.0000 0.75000  0.50000  0.25000  Biso   1.000  Cl
  Cl2      1.0000 0.25000  0.50000  0.25000  Biso   1.000  Cl
  Cl3      1.0000 0.25000  0.50000  0.75000  Biso   1.000  Cl
  Cl4      1.0000 0.75000  0.50000  0.75000  Biso   1.000  Cl
  Cl5      1.0000 0.25000  0.75000  0.50000  Biso   1.000  Cl
  Cl6      1.0000 0.25000  0.25000  0.50000  Biso   1.000  Cl
  Cl7      1.0000 0.75000  0.25000  0.50000  Biso   1.000  Cl
  Cl8      1.0000 0.75000  0.75000  0.50000  Biso   1.000  Cl
  Cl9      1.0000 0.50000  0.25000  0.75000  Biso   1.000  Cl
  Cl10     1.0000 0.50000  0.25000  0.25000  Biso   1.000  Cl
  Cl11     1.0000 0.50000  0.75000  0.25000  Biso   1.000  Cl
  Cl12     1.0000 0.50000  0.75000  0.75000  Biso   1.000  Cl
  Cl13     1.0000 0.00000  0.25000  0.25000  Biso   1.000  Cl
  Cl14     1.0000 0.00000  0.75000  0.25000  Biso   1.000  Cl
  Cl15     1.0000 0.00000  0.75000  0.75000  Biso   1.000  Cl
  Cl16     1.0000 0.00000  0.25000  0.75000  Biso   1.000  Cl
  Cl17     1.0000 0.25000  0.75000  0.00000  Biso   1.000  Cl
  Cl18     1.0000 0.75000  0.75000  0.00000  Biso   1.000  Cl
  Cl19     1.0000 0.75000  0.25000  0.00000  Biso   1.000  Cl
  Cl20     1.0000 0.25000  0.25000  0.00000  Biso   1.000  Cl
  Cl21     1.0000 0.75000  0.00000  0.75000  Biso   1.000  Cl
  Cl22     1.0000 0.75000  0.00000  0.25000  Biso   1.000  Cl
  Cl23     1.0000 0.25000  0.00000  0.25000  Biso   1.000  Cl
  Cl24     1.0000 0.25000  0.00000  0.75000  Biso   1.000  Cl
