data_image0
_cell_length_a       35.1044
_cell_length_b       35.1044
_cell_length_c       11.7352
_cell_angle_alpha    90
_cell_angle_beta     90
_cell_angle_gamma    90

_symmetry_space_group_name_H-M    "P 1"
_symmetry_int_tables_number       1

loop_
  _symmetry_equiv_pos_as_xyz
  'x, y, z'

loop_
  _atom_site_label
  _atom_site_occupancy
  _atom_site_fract_x
  _atom_site_fract_y
  _atom_site_fract_z
  _atom_site_thermal_displace_type
  _atom_site_B_iso_or_equiv
  _atom_site_type_symbol
  C1       1.0000 0.88030  0.60310  0.99900  Biso   1.000  C
  C2       1.0000 0.89470  0.60470  0.88700  Biso   1.000  C
  H1       1.0000 0.88480  0.58860  0.83090  Biso   1.000  H
  C3       1.0000 0.92380  0.63030  0.85900  Biso   1.000  C
  H2       1.0000 0.93340  0.63220  0.78580  Biso   1.000  H
  C4       1.0000 0.93810  0.65350  0.95100  Biso   1.000  C
  H3       1.0000 0.95800  0.67050  0.93810  Biso   1.000  H
  C5       1.0000 0.92190  0.65030  0.05900  Biso   1.000  C
  C6       1.0000 0.89340  0.62470  0.08500  Biso   1.000  C
  H4       1.0000 0.88380  0.62250  0.15820  Biso   1.000  H
  C7       1.0000 0.94510  0.71300  0.13800  Biso   1.000  C
  H5       1.0000 0.94360  0.72720  0.07170  Biso   1.000  H
  C8       1.0000 0.94160  0.66790  0.25700  Biso   1.000  C
  H6       1.0000 0.93720  0.64420  0.28960  Biso   1.000  H
  C9       1.0000 0.81840  0.57170  0.96100  Biso   1.000  C
  H7       1.0000 0.81380  0.58240  0.88950  Biso   1.000  H
  C10      1.0000 0.84520  0.55710  0.12000  Biso   1.000  C
  H8       1.0000 0.86230  0.55680  0.18100  Biso   1.000  H
  C11      1.0000 0.83830  0.66430  0.66600  Biso   1.000  C
  C12      1.0000 0.83620  0.62950  0.60640  Biso   1.000  C
  H9       1.0000 0.85730  0.61940  0.56910  Biso   1.000  H
  C13      1.0000 0.80260  0.61170  0.60600  Biso   1.000  C
  C14      1.0000 0.77200  0.62610  0.66100  Biso   1.000  C
  H10      1.0000 0.74850  0.61420  0.65470  Biso   1.000  H
  C15      1.0000 0.77580  0.65930  0.72700  Biso   1.000  C
  H11      1.0000 0.75640  0.66720  0.77580  Biso   1.000  H
  C16      1.0000 0.80960  0.68010  0.71800  Biso   1.000  C
  H12      1.0000 0.81150  0.70450  0.74800  Biso   1.000  H
  C17      1.0000 0.88930  0.70900  0.72900  Biso   1.000  C
  H13      1.0000 0.87900  0.71350  0.80080  Biso   1.000  H
  C18      1.0000 0.89640  0.68870  0.55900  Biso   1.000  C
  H14      1.0000 0.89190  0.67540  0.49220  Biso   1.000  H
  C19      1.0000 0.80910  0.56970  0.43500  Biso   1.000  C
  H15      1.0000 0.82270  0.58650  0.38950  Biso   1.000  H
  C20      1.0000 0.78030  0.54460  0.57300  Biso   1.000  C
  H16      1.0000 0.77030  0.54040  0.64570  Biso   1.000  H
  Cu1      1.0000 0.96905  0.70842  0.47260  Biso   1.000  Cu
  Cu2      1.0000 0.78627  0.51152  0.24410  Biso   1.000  Cu
  N1       1.0000 0.93610  0.67580  0.14540  Biso   1.000  N
  N2       1.0000 0.95380  0.69740  0.31180  Biso   1.000  N
  N3       1.0000 0.95620  0.72660  0.23500  Biso   1.000  N
  N4       1.0000 0.84940  0.57810  0.02120  Biso   1.000  N
  N5       1.0000 0.81310  0.53750  0.11510  Biso   1.000  N
  N6       1.0000 0.79450  0.54790  0.01430  Biso   1.000  N
  N7       1.0000 0.79850  0.57730  0.54290  Biso   1.000  N
  N8       1.0000 0.79810  0.53630  0.40360  Biso   1.000  N
  N9       1.0000 0.77840  0.52030  0.49250  Biso   1.000  N
  N10      1.0000 0.87440  0.68590  0.65120  Biso   1.000  N
  N11      1.0000 0.92510  0.71210  0.57320  Biso   1.000  N
  N12      1.0000 0.92150  0.72480  0.68800  Biso   1.000  N
  C21      1.0000 0.38030  0.10310  0.49900  Biso   1.000  C
  C22      1.0000 0.39470  0.10470  0.38700  Biso   1.000  C
  H17      1.0000 0.38480  0.08860  0.33090  Biso   1.000  H
  C23      1.0000 0.42380  0.13030  0.35900  Biso   1.000  C
  H18      1.0000 0.43340  0.13220  0.28580  Biso   1.000  H
  C24      1.0000 0.43810  0.15350  0.45100  Biso   1.000  C
  H19      1.0000 0.45800  0.17050  0.43810  Biso   1.000  H
  C25      1.0000 0.42190  0.15030  0.55900  Biso   1.000  C
  C26      1.0000 0.39340  0.12470  0.58500  Biso   1.000  C
  H20      1.0000 0.38380  0.12250  0.65820  Biso   1.000  H
  C27      1.0000 0.44510  0.21300  0.63800  Biso   1.000  C
  H21      1.0000 0.44360  0.22720  0.57170  Biso   1.000  H
  C28      1.0000 0.44160  0.16790  0.75700  Biso   1.000  C
  H22      1.0000 0.43720  0.14420  0.78960  Biso   1.000  H
  C29      1.0000 0.31840  0.07170  0.46100  Biso   1.000  C
  H23      1.0000 0.31380  0.08240  0.38950  Biso   1.000  H
  C30      1.0000 0.34520  0.05710  0.62000  Biso   1.000  C
  H24      1.0000 0.36230  0.05680  0.68100  Biso   1.000  H
  C31      1.0000 0.33830  0.16430  0.16600  Biso   1.000  C
  C32      1.0000 0.33620  0.12950  0.10640  Biso   1.000  C
  H25      1.0000 0.35730  0.11940  0.06910  Biso   1.000  H
  C33      1.0000 0.30260  0.11170  0.10600  Biso   1.000  C
  C34      1.0000 0.27200  0.12610  0.16100  Biso   1.000  C
  H26      1.0000 0.24850  0.11420  0.15470  Biso   1.000  H
  C35      1.0000 0.27580  0.15930  0.22700  Biso   1.000  C
  H27      1.0000 0.25640  0.16720  0.27580  Biso   1.000  H
  C36      1.0000 0.30960  0.18010  0.21800  Biso   1.000  C
  H28      1.0000 0.31150  0.20450  0.24800  Biso   1.000  H
  C37      1.0000 0.38930  0.20900  0.22900  Biso   1.000  C
  H29      1.0000 0.37900  0.21350  0.30080  Biso   1.000  H
  C38      1.0000 0.39640  0.18870  0.05900  Biso   1.000  C
  H30      1.0000 0.39190  0.17540  0.99220  Biso   1.000  H
  C39      1.0000 0.30910  0.06970  0.93500  Biso   1.000  C
  H31      1.0000 0.32270  0.08650  0.88950  Biso   1.000  H
  C40      1.0000 0.28030  0.04460  0.07300  Biso   1.000  C
  H32      1.0000 0.27030  0.04040  0.14570  Biso   1.000  H
  Cu3      1.0000 0.46905  0.20842  0.97260  Biso   1.000  Cu
  Cu4      1.0000 0.28627  0.01152  0.74410  Biso   1.000  Cu
  N13      1.0000 0.43610  0.17580  0.64540  Biso   1.000  N
  N14      1.0000 0.45380  0.19740  0.81180  Biso   1.000  N
  N15      1.0000 0.45620  0.22660  0.73500  Biso   1.000  N
  N16      1.0000 0.34940  0.07810  0.52120  Biso   1.000  N
  N17      1.0000 0.31310  0.03750  0.61510  Biso   1.000  N
  N18      1.0000 0.29450  0.04790  0.51430  Biso   1.000  N
  N19      1.0000 0.29850  0.07730  0.04290  Biso   1.000  N
  N20      1.0000 0.29810  0.03630  0.90360  Biso   1.000  N
  N21      1.0000 0.27840  0.02030  0.99250  Biso   1.000  N
  N22      1.0000 0.37440  0.18590  0.15120  Biso   1.000  N
  N23      1.0000 0.42510  0.21210  0.07320  Biso   1.000  N
  N24      1.0000 0.42150  0.22480  0.18800  Biso   1.000  N
  C41      1.0000 0.61970  0.39690  0.49900  Biso   1.000  C
  C42      1.0000 0.60530  0.39530  0.38700  Biso   1.000  C
  H33      1.0000 0.61520  0.41140  0.33090  Biso   1.000  H
  C43      1.0000 0.57620  0.36970  0.35900  Biso   1.000  C
  H34      1.0000 0.56660  0.36780  0.28580  Biso   1.000  H
  C44      1.0000 0.56190  0.34650  0.45100  Biso   1.000  C
  H35      1.0000 0.54200  0.32950  0.43810  Biso   1.000  H
  C45      1.0000 0.57810  0.34970  0.55900  Biso   1.000  C
  C46      1.0000 0.60660  0.37530  0.58500  Biso   1.000  C
  H36      1.0000 0.61620  0.37750  0.65820  Biso   1.000  H
  C47      1.0000 0.55490  0.28700  0.63800  Biso   1.000  C
  H37      1.0000 0.55640  0.27280  0.57170  Biso   1.000  H
  C48      1.0000 0.55840  0.33210  0.75700  Biso   1.000  C
  H38      1.0000 0.56280  0.35580  0.78960  Biso   1.000  H
  C49      1.0000 0.68160  0.42830  0.46100  Biso   1.000  C
  H39      1.0000 0.68620  0.41760  0.38950  Biso   1.000  H
  C50      1.0000 0.65480  0.44290  0.62000  Biso   1.000  C
  H40      1.0000 0.63770  0.44320  0.68100  Biso   1.000  H
  C51      1.0000 0.66170  0.33570  0.16600  Biso   1.000  C
  C52      1.0000 0.66380  0.37050  0.10640  Biso   1.000  C
  H41      1.0000 0.64270  0.38060  0.06910  Biso   1.000  H
  C53      1.0000 0.69740  0.38830  0.10600  Biso   1.000  C
  C54      1.0000 0.72800  0.37390  0.16100  Biso   1.000  C
  H42      1.0000 0.75150  0.38580  0.15470  Biso   1.000  H
  C55      1.0000 0.72420  0.34070  0.22700  Biso   1.000  C
  H43      1.0000 0.74360  0.33280  0.27580  Biso   1.000  H
  C56      1.0000 0.69040  0.31990  0.21800  Biso   1.000  C
  H44      1.0000 0.68850  0.29550  0.24800  Biso   1.000  H
  C57      1.0000 0.61070  0.29100  0.22900  Biso   1.000  C
  H45      1.0000 0.62100  0.28650  0.30080  Biso   1.000  H
  C58      1.0000 0.60360  0.31130  0.05900  Biso   1.000  C
  H46      1.0000 0.60810  0.32460  0.99220  Biso   1.000  H
  C59      1.0000 0.69090  0.43030  0.93500  Biso   1.000  C
  H47      1.0000 0.67730  0.41350  0.88950  Biso   1.000  H
  C60      1.0000 0.71970  0.45540  0.07300  Biso   1.000  C
  H48      1.0000 0.72970  0.45960  0.14570  Biso   1.000  H
  Cu5      1.0000 0.53095  0.29158  0.97260  Biso   1.000  Cu
  Cu6      1.0000 0.71373  0.48848  0.74410  Biso   1.000  Cu
  N25      1.0000 0.56390  0.32420  0.64540  Biso   1.000  N
  N26      1.0000 0.54620  0.30260  0.81180  Biso   1.000  N
  N27      1.0000 0.54380  0.27340  0.73500  Biso   1.000  N
  N28      1.0000 0.65060  0.42190  0.52120  Biso   1.000  N
  N29      1.0000 0.68690  0.46250  0.61510  Biso   1.000  N
  N30      1.0000 0.70550  0.45210  0.51430  Biso   1.000  N
  N31      1.0000 0.70150  0.42270  0.04290  Biso   1.000  N
  N32      1.0000 0.70190  0.46370  0.90360  Biso   1.000  N
  N33      1.0000 0.72160  0.47970  0.99250  Biso   1.000  N
  N34      1.0000 0.62560  0.31410  0.15120  Biso   1.000  N
  N35      1.0000 0.57490  0.28790  0.07320  Biso   1.000  N
  N36      1.0000 0.57850  0.27520  0.18800  Biso   1.000  N
  C61      1.0000 0.11970  0.89690  0.99900  Biso   1.000  C
  C62      1.0000 0.10530  0.89530  0.88700  Biso   1.000  C
  H49      1.0000 0.11520  0.91140  0.83090  Biso   1.000  H
  C63      1.0000 0.07620  0.86970  0.85900  Biso   1.000  C
  H50      1.0000 0.06660  0.86780  0.78580  Biso   1.000  H
  C64      1.0000 0.06190  0.84650  0.95100  Biso   1.000  C
  H51      1.0000 0.04200  0.82950  0.93810  Biso   1.000  H
  C65      1.0000 0.07810  0.84970  0.05900  Biso   1.000  C
  C66      1.0000 0.10660  0.87530  0.08500  Biso   1.000  C
  H52      1.0000 0.11620  0.87750  0.15820  Biso   1.000  H
  C67      1.0000 0.05490  0.78700  0.13800  Biso   1.000  C
  H53      1.0000 0.05640  0.77280  0.07170  Biso   1.000  H
  C68      1.0000 0.05840  0.83210  0.25700  Biso   1.000  C
  H54      1.0000 0.06280  0.85580  0.28960  Biso   1.000  H
  C69      1.0000 0.18160  0.92830  0.96100  Biso   1.000  C
  H55      1.0000 0.18620  0.91760  0.88950  Biso   1.000  H
  C70      1.0000 0.15480  0.94290  0.12000  Biso   1.000  C
  H56      1.0000 0.13770  0.94320  0.18100  Biso   1.000  H
  C71      1.0000 0.16170  0.83570  0.66600  Biso   1.000  C
  C72      1.0000 0.16380  0.87050  0.60640  Biso   1.000  C
  H57      1.0000 0.14270  0.88060  0.56910  Biso   1.000  H
  C73      1.0000 0.19740  0.88830  0.60600  Biso   1.000  C
  C74      1.0000 0.22800  0.87390  0.66100  Biso   1.000  C
  H58      1.0000 0.25150  0.88580  0.65470  Biso   1.000  H
  C75      1.0000 0.22420  0.84070  0.72700  Biso   1.000  C
  H59      1.0000 0.24360  0.83280  0.77580  Biso   1.000  H
  C76      1.0000 0.19040  0.81990  0.71800  Biso   1.000  C
  H60      1.0000 0.18850  0.79550  0.74800  Biso   1.000  H
  C77      1.0000 0.11070  0.79100  0.72900  Biso   1.000  C
  H61      1.0000 0.12100  0.78650  0.80080  Biso   1.000  H
  C78      1.0000 0.10360  0.81130  0.55900  Biso   1.000  C
  H62      1.0000 0.10810  0.82460  0.49220  Biso   1.000  H
  C79      1.0000 0.19090  0.93030  0.43500  Biso   1.000  C
  H63      1.0000 0.17730  0.91350  0.38950  Biso   1.000  H
  C80      1.0000 0.21970  0.95540  0.57300  Biso   1.000  C
  H64      1.0000 0.22970  0.95960  0.64570  Biso   1.000  H
  Cu7      1.0000 0.03095  0.79158  0.47260  Biso   1.000  Cu
  Cu8      1.0000 0.21373  0.98848  0.24410  Biso   1.000  Cu
  N37      1.0000 0.06390  0.82420  0.14540  Biso   1.000  N
  N38      1.0000 0.04620  0.80260  0.31180  Biso   1.000  N
  N39      1.0000 0.04380  0.77340  0.23500  Biso   1.000  N
  N40      1.0000 0.15060  0.92190  0.02120  Biso   1.000  N
  N41      1.0000 0.18690  0.96250  0.11510  Biso   1.000  N
  N42      1.0000 0.20550  0.95210  0.01430  Biso   1.000  N
  N43      1.0000 0.20150  0.92270  0.54290  Biso   1.000  N
  N44      1.0000 0.20190  0.96370  0.40360  Biso   1.000  N
  N45      1.0000 0.22160  0.97970  0.49250  Biso   1.000  N
  N46      1.0000 0.12560  0.81410  0.65120  Biso   1.000  N
  N47      1.0000 0.07490  0.78790  0.57320  Biso   1.000  N
  N48      1.0000 0.07850  0.77520  0.68800  Biso   1.000  N
  C81      1.0000 0.14690  0.13030  0.24900  Biso   1.000  C
  C82      1.0000 0.14530  0.14470  0.13700  Biso   1.000  C
  H65      1.0000 0.16140  0.13480  0.08090  Biso   1.000  H
  C83      1.0000 0.11970  0.17380  0.10900  Biso   1.000  C
  H66      1.0000 0.11780  0.18340  0.03580  Biso   1.000  H
  C84      1.0000 0.09650  0.18810  0.20100  Biso   1.000  C
  H67      1.0000 0.07950  0.20800  0.18810  Biso   1.000  H
  C85      1.0000 0.09970  0.17190  0.30900  Biso   1.000  C
  C86      1.0000 0.12530  0.14340  0.33500  Biso   1.000  C
  H68      1.0000 0.12750  0.13380  0.40820  Biso   1.000  H
  C87      1.0000 0.03700  0.19510  0.38800  Biso   1.000  C
  H69      1.0000 0.02280  0.19360  0.32170  Biso   1.000  H
  C88      1.0000 0.08210  0.19160  0.50700  Biso   1.000  C
  H70      1.0000 0.10580  0.18720  0.53960  Biso   1.000  H
  C89      1.0000 0.17830  0.06840  0.21100  Biso   1.000  C
  H71      1.0000 0.16760  0.06380  0.13950  Biso   1.000  H
  C90      1.0000 0.19290  0.09520  0.37000  Biso   1.000  C
  H72      1.0000 0.19320  0.11230  0.43100  Biso   1.000  H
  C91      1.0000 0.08570  0.08830  0.91600  Biso   1.000  C
  C92      1.0000 0.12050  0.08620  0.85640  Biso   1.000  C
  H73      1.0000 0.13060  0.10730  0.81910  Biso   1.000  H
  C93      1.0000 0.13830  0.05260  0.85600  Biso   1.000  C
  C94      1.0000 0.12390  0.02200  0.91100  Biso   1.000  C
  H74      1.0000 0.13580  0.99850  0.90470  Biso   1.000  H
  C95      1.0000 0.09070  0.02580  0.97700  Biso   1.000  C
  H75      1.0000 0.08280  0.00640  0.02580  Biso   1.000  H
  C96      1.0000 0.06990  0.05960  0.96800  Biso   1.000  C
  H76      1.0000 0.04550  0.06150  0.99800  Biso   1.000  H
  C97      1.0000 0.04100  0.13930  0.97900  Biso   1.000  C
  H77      1.0000 0.03650  0.12900  0.05080  Biso   1.000  H
  C98      1.0000 0.06130  0.14640  0.80900  Biso   1.000  C
  H78      1.0000 0.07460  0.14190  0.74220  Biso   1.000  H
  C99      1.0000 0.18030  0.05910  0.68500  Biso   1.000  C
  H79      1.0000 0.16350  0.07270  0.63950  Biso   1.000  H
  C100     1.0000 0.20540  0.03030  0.82300  Biso   1.000  C
  H80      1.0000 0.20960  0.02030  0.89570  Biso   1.000  H
  Cu9      1.0000 0.04158  0.21905  0.72260  Biso   1.000  Cu
  Cu10     1.0000 0.23848  0.03627  0.49410  Biso   1.000  Cu
  N49      1.0000 0.07420  0.18610  0.39540  Biso   1.000  N
  N50      1.0000 0.05260  0.20380  0.56180  Biso   1.000  N
  N51      1.0000 0.02340  0.20620  0.48500  Biso   1.000  N
  N52      1.0000 0.17190  0.09940  0.27120  Biso   1.000  N
  N53      1.0000 0.21250  0.06310  0.36510  Biso   1.000  N
  N54      1.0000 0.20210  0.04450  0.26430  Biso   1.000  N
  N55      1.0000 0.17270  0.04850  0.79290  Biso   1.000  N
  N56      1.0000 0.21370  0.04810  0.65360  Biso   1.000  N
  N57      1.0000 0.22970  0.02840  0.74250  Biso   1.000  N
  N58      1.0000 0.06410  0.12440  0.90120  Biso   1.000  N
  N59      1.0000 0.03790  0.17510  0.82320  Biso   1.000  N
  N60      1.0000 0.02520  0.17150  0.93800  Biso   1.000  N
  C101     1.0000 0.64690  0.63030  0.74900  Biso   1.000  C
  C102     1.0000 0.64530  0.64470  0.63700  Biso   1.000  C
  H81      1.0000 0.66140  0.63480  0.58090  Biso   1.000  H
  C103     1.0000 0.61970  0.67380  0.60900  Biso   1.000  C
  H82      1.0000 0.61780  0.68340  0.53580  Biso   1.000  H
  C104     1.0000 0.59650  0.68810  0.70100  Biso   1.000  C
  H83      1.0000 0.57950  0.70800  0.68810  Biso   1.000  H
  C105     1.0000 0.59970  0.67190  0.80900  Biso   1.000  C
  C106     1.0000 0.62530  0.64340  0.83500  Biso   1.000  C
  H84      1.0000 0.62750  0.63380  0.90820  Biso   1.000  H
  C107     1.0000 0.53700  0.69510  0.88800  Biso   1.000  C
  H85      1.0000 0.52280  0.69360  0.82170  Biso   1.000  H
  C108     1.0000 0.58210  0.69160  0.00700  Biso   1.000  C
  H86      1.0000 0.60580  0.68720  0.03960  Biso   1.000  H
  C109     1.0000 0.67830  0.56840  0.71100  Biso   1.000  C
  H87      1.0000 0.66760  0.56380  0.63950  Biso   1.000  H
  C110     1.0000 0.69290  0.59520  0.87000  Biso   1.000  C
  H88      1.0000 0.69320  0.61230  0.93100  Biso   1.000  H
  C111     1.0000 0.58570  0.58830  0.41600  Biso   1.000  C
  C112     1.0000 0.62050  0.58620  0.35640  Biso   1.000  C
  H89      1.0000 0.63060  0.60730  0.31910  Biso   1.000  H
  C113     1.0000 0.63830  0.55260  0.35600  Biso   1.000  C
  C114     1.0000 0.62390  0.52200  0.41100  Biso   1.000  C
  H90      1.0000 0.63580  0.49850  0.40470  Biso   1.000  H
  C115     1.0000 0.59070  0.52580  0.47700  Biso   1.000  C
  H91      1.0000 0.58280  0.50640  0.52580  Biso   1.000  H
  C116     1.0000 0.56990  0.55960  0.46800  Biso   1.000  C
  H92      1.0000 0.54550  0.56150  0.49800  Biso   1.000  H
  C117     1.0000 0.54100  0.63930  0.47900  Biso   1.000  C
  H93      1.0000 0.53650  0.62900  0.55080  Biso   1.000  H
  C118     1.0000 0.56130  0.64640  0.30900  Biso   1.000  C
  H94      1.0000 0.57460  0.64190  0.24220  Biso   1.000  H
  C119     1.0000 0.68030  0.55910  0.18500  Biso   1.000  C
  H95      1.0000 0.66350  0.57270  0.13950  Biso   1.000  H
  C120     1.0000 0.70540  0.53030  0.32300  Biso   1.000  C
  H96      1.0000 0.70960  0.52030  0.39570  Biso   1.000  H
  Cu11     1.0000 0.54158  0.71905  0.22260  Biso   1.000  Cu
  Cu12     1.0000 0.73848  0.53627  0.99410  Biso   1.000  Cu
  N61      1.0000 0.57420  0.68610  0.89540  Biso   1.000  N
  N62      1.0000 0.55260  0.70380  0.06180  Biso   1.000  N
  N63      1.0000 0.52340  0.70620  0.98500  Biso   1.000  N
  N64      1.0000 0.67190  0.59940  0.77120  Biso   1.000  N
  N65      1.0000 0.71250  0.56310  0.86510  Biso   1.000  N
  N66      1.0000 0.70210  0.54450  0.76430  Biso   1.000  N
  N67      1.0000 0.67270  0.54850  0.29290  Biso   1.000  N
  N68      1.0000 0.71370  0.54810  0.15360  Biso   1.000  N
  N69      1.0000 0.72970  0.52840  0.24250  Biso   1.000  N
  N70      1.0000 0.56410  0.62440  0.40120  Biso   1.000  N
  N71      1.0000 0.53790  0.67510  0.32320  Biso   1.000  N
  N72      1.0000 0.52520  0.67150  0.43800  Biso   1.000  N
  C121     1.0000 0.35310  0.86970  0.74900  Biso   1.000  C
  C122     1.0000 0.35470  0.85530  0.63700  Biso   1.000  C
  H97      1.0000 0.33860  0.86520  0.58090  Biso   1.000  H
  C123     1.0000 0.38030  0.82620  0.60900  Biso   1.000  C
  H98      1.0000 0.38220  0.81660  0.53580  Biso   1.000  H
  C124     1.0000 0.40350  0.81190  0.70100  Biso   1.000  C
  H99      1.0000 0.42050  0.79200  0.68810  Biso   1.000  H
  C125     1.0000 0.40030  0.82810  0.80900  Biso   1.000  C
  C126     1.0000 0.37470  0.85660  0.83500  Biso   1.000  C
  H100     1.0000 0.37250  0.86620  0.90820  Biso   1.000  H
  C127     1.0000 0.46300  0.80490  0.88800  Biso   1.000  C
  H101     1.0000 0.47720  0.80640  0.82170  Biso   1.000  H
  C128     1.0000 0.41790  0.80840  0.00700  Biso   1.000  C
  H102     1.0000 0.39420  0.81280  0.03960  Biso   1.000  H
  C129     1.0000 0.32170  0.93160  0.71100  Biso   1.000  C
  H103     1.0000 0.33240  0.93620  0.63950  Biso   1.000  H
  C130     1.0000 0.30710  0.90480  0.87000  Biso   1.000  C
  H104     1.0000 0.30680  0.88770  0.93100  Biso   1.000  H
  C131     1.0000 0.41430  0.91170  0.41600  Biso   1.000  C
  C132     1.0000 0.37950  0.91380  0.35640  Biso   1.000  C
  H105     1.0000 0.36940  0.89270  0.31910  Biso   1.000  H
  C133     1.0000 0.36170  0.94740  0.35600  Biso   1.000  C
  C134     1.0000 0.37610  0.97800  0.41100  Biso   1.000  C
  H106     1.0000 0.36420  0.00150  0.40470  Biso   1.000  H
  C135     1.0000 0.40930  0.97420  0.47700  Biso   1.000  C
  H107     1.0000 0.41720  0.99360  0.52580  Biso   1.000  H
  C136     1.0000 0.43010  0.94040  0.46800  Biso   1.000  C
  H108     1.0000 0.45450  0.93850  0.49800  Biso   1.000  H
  C137     1.0000 0.45900  0.86070  0.47900  Biso   1.000  C
  H109     1.0000 0.46350  0.87100  0.55080  Biso   1.000  H
  C138     1.0000 0.43870  0.85360  0.30900  Biso   1.000  C
  H110     1.0000 0.42540  0.85810  0.24220  Biso   1.000  H
  C139     1.0000 0.31970  0.94090  0.18500  Biso   1.000  C
  H111     1.0000 0.33650  0.92730  0.13950  Biso   1.000  H
  C140     1.0000 0.29460  0.96970  0.32300  Biso   1.000  C
  H112     1.0000 0.29040  0.97970  0.39570  Biso   1.000  H
  Cu13     1.0000 0.45842  0.78095  0.22260  Biso   1.000  Cu
  Cu14     1.0000 0.26152  0.96373  0.99410  Biso   1.000  Cu
  N73      1.0000 0.42580  0.81390  0.89540  Biso   1.000  N
  N74      1.0000 0.44740  0.79620  0.06180  Biso   1.000  N
  N75      1.0000 0.47660  0.79380  0.98500  Biso   1.000  N
  N76      1.0000 0.32810  0.90060  0.77120  Biso   1.000  N
  N77      1.0000 0.28750  0.93690  0.86510  Biso   1.000  N
  N78      1.0000 0.29790  0.95550  0.76430  Biso   1.000  N
  N79      1.0000 0.32730  0.95150  0.29290  Biso   1.000  N
  N80      1.0000 0.28630  0.95190  0.15360  Biso   1.000  N
  N81      1.0000 0.27030  0.97160  0.24250  Biso   1.000  N
  N82      1.0000 0.43590  0.87560  0.40120  Biso   1.000  N
  N83      1.0000 0.46210  0.82490  0.32320  Biso   1.000  N
  N84      1.0000 0.47480  0.82850  0.43800  Biso   1.000  N
  C141     1.0000 0.85310  0.36970  0.24900  Biso   1.000  C
  C142     1.0000 0.85470  0.35530  0.13700  Biso   1.000  C
  H113     1.0000 0.83860  0.36520  0.08090  Biso   1.000  H
  C143     1.0000 0.88030  0.32620  0.10900  Biso   1.000  C
  H114     1.0000 0.88220  0.31660  0.03580  Biso   1.000  H
  C144     1.0000 0.90350  0.31190  0.20100  Biso   1.000  C
  H115     1.0000 0.92050  0.29200  0.18810  Biso   1.000  H
  C145     1.0000 0.90030  0.32810  0.30900  Biso   1.000  C
  C146     1.0000 0.87470  0.35660  0.33500  Biso   1.000  C
  H116     1.0000 0.87250  0.36620  0.40820  Biso   1.000  H
  C147     1.0000 0.96300  0.30490  0.38800  Biso   1.000  C
  H117     1.0000 0.97720  0.30640  0.32170  Biso   1.000  H
  C148     1.0000 0.91790  0.30840  0.50700  Biso   1.000  C
  H118     1.0000 0.89420  0.31280  0.53960  Biso   1.000  H
  C149     1.0000 0.82170  0.43160  0.21100  Biso   1.000  C
  H119     1.0000 0.83240  0.43620  0.13950  Biso   1.000  H
  C150     1.0000 0.80710  0.40480  0.37000  Biso   1.000  C
  H120     1.0000 0.80680  0.38770  0.43100  Biso   1.000  H
  C151     1.0000 0.91430  0.41170  0.91600  Biso   1.000  C
  C152     1.0000 0.87950  0.41380  0.85640  Biso   1.000  C
  H121     1.0000 0.86940  0.39270  0.81910  Biso   1.000  H
  C153     1.0000 0.86170  0.44740  0.85600  Biso   1.000  C
  C154     1.0000 0.87610  0.47800  0.91100  Biso   1.000  C
  H122     1.0000 0.86420  0.50150  0.90470  Biso   1.000  H
  C155     1.0000 0.90930  0.47420  0.97700  Biso   1.000  C
  H123     1.0000 0.91720  0.49360  0.02580  Biso   1.000  H
  C156     1.0000 0.93010  0.44040  0.96800  Biso   1.000  C
  H124     1.0000 0.95450  0.43850  0.99800  Biso   1.000  H
  C157     1.0000 0.95900  0.36070  0.97900  Biso   1.000  C
  H125     1.0000 0.96350  0.37100  0.05080  Biso   1.000  H
  C158     1.0000 0.93870  0.35360  0.80900  Biso   1.000  C
  H126     1.0000 0.92540  0.35810  0.74220  Biso   1.000  H
  C159     1.0000 0.81970  0.44090  0.68500  Biso   1.000  C
  H127     1.0000 0.83650  0.42730  0.63950  Biso   1.000  H
  C160     1.0000 0.79460  0.46970  0.82300  Biso   1.000  C
  H128     1.0000 0.79040  0.47970  0.89570  Biso   1.000  H
  Cu15     1.0000 0.95842  0.28095  0.72260  Biso   1.000  Cu
  Cu16     1.0000 0.76152  0.46373  0.49410  Biso   1.000  Cu
  N85      1.0000 0.92580  0.31390  0.39540  Biso   1.000  N
  N86      1.0000 0.94740  0.29620  0.56180  Biso   1.000  N
  N87      1.0000 0.97660  0.29380  0.48500  Biso   1.000  N
  N88      1.0000 0.82810  0.40060  0.27120  Biso   1.000  N
  N89      1.0000 0.78750  0.43690  0.36510  Biso   1.000  N
  N90      1.0000 0.79790  0.45550  0.26430  Biso   1.000  N
  N91      1.0000 0.82730  0.45150  0.79290  Biso   1.000  N
  N92      1.0000 0.78630  0.45190  0.65360  Biso   1.000  N
  N93      1.0000 0.77030  0.47160  0.74250  Biso   1.000  N
  N94      1.0000 0.93590  0.37560  0.90120  Biso   1.000  N
  N95      1.0000 0.96210  0.32490  0.82320  Biso   1.000  N
  N96      1.0000 0.97480  0.32850  0.93800  Biso   1.000  N
  C161     1.0000 0.11970  0.39690  0.00100  Biso   1.000  C
  C162     1.0000 0.10530  0.39530  0.11300  Biso   1.000  C
  H129     1.0000 0.11520  0.41140  0.16910  Biso   1.000  H
  C163     1.0000 0.07620  0.36970  0.14100  Biso   1.000  C
  H130     1.0000 0.06660  0.36780  0.21420  Biso   1.000  H
  C164     1.0000 0.06190  0.34650  0.04900  Biso   1.000  C
  H131     1.0000 0.04200  0.32950  0.06190  Biso   1.000  H
  C165     1.0000 0.07810  0.34970  0.94100  Biso   1.000  C
  C166     1.0000 0.10660  0.37530  0.91500  Biso   1.000  C
  H132     1.0000 0.11620  0.37750  0.84180  Biso   1.000  H
  C167     1.0000 0.05490  0.28700  0.86200  Biso   1.000  C
  H133     1.0000 0.05640  0.27280  0.92830  Biso   1.000  H
  C168     1.0000 0.05840  0.33210  0.74300  Biso   1.000  C
  H134     1.0000 0.06280  0.35580  0.71040  Biso   1.000  H
  C169     1.0000 0.18160  0.42830  0.03900  Biso   1.000  C
  H135     1.0000 0.18620  0.41760  0.11050  Biso   1.000  H
  C170     1.0000 0.15480  0.44290  0.88000  Biso   1.000  C
  H136     1.0000 0.13770  0.44320  0.81900  Biso   1.000  H
  C171     1.0000 0.16170  0.33570  0.33400  Biso   1.000  C
  C172     1.0000 0.16380  0.37050  0.39360  Biso   1.000  C
  H137     1.0000 0.14270  0.38060  0.43090  Biso   1.000  H
  C173     1.0000 0.19740  0.38830  0.39400  Biso   1.000  C
  C174     1.0000 0.22800  0.37390  0.33900  Biso   1.000  C
  H138     1.0000 0.25150  0.38580  0.34530  Biso   1.000  H
  C175     1.0000 0.22420  0.34070  0.27300  Biso   1.000  C
  H139     1.0000 0.24360  0.33280  0.22420  Biso   1.000  H
  C176     1.0000 0.19040  0.31990  0.28200  Biso   1.000  C
  H140     1.0000 0.18850  0.29550  0.25200  Biso   1.000  H
  C177     1.0000 0.11070  0.29100  0.27100  Biso   1.000  C
  H141     1.0000 0.12100  0.28650  0.19920  Biso   1.000  H
  C178     1.0000 0.10360  0.31130  0.44100  Biso   1.000  C
  H142     1.0000 0.10810  0.32460  0.50780  Biso   1.000  H
  C179     1.0000 0.19090  0.43030  0.56500  Biso   1.000  C
  H143     1.0000 0.17730  0.41350  0.61050  Biso   1.000  H
  C180     1.0000 0.21970  0.45540  0.42700  Biso   1.000  C
  H144     1.0000 0.22970  0.45960  0.35430  Biso   1.000  H
  Cu17     1.0000 0.03095  0.29158  0.52740  Biso   1.000  Cu
  Cu18     1.0000 0.21373  0.48848  0.75590  Biso   1.000  Cu
  N97      1.0000 0.06390  0.32420  0.85460  Biso   1.000  N
  N98      1.0000 0.04620  0.30260  0.68820  Biso   1.000  N
  N99      1.0000 0.04380  0.27340  0.76500  Biso   1.000  N
  N100     1.0000 0.15060  0.42190  0.97880  Biso   1.000  N
  N101     1.0000 0.18690  0.46250  0.88490  Biso   1.000  N
  N102     1.0000 0.20550  0.45210  0.98570  Biso   1.000  N
  N103     1.0000 0.20150  0.42270  0.45710  Biso   1.000  N
  N104     1.0000 0.20190  0.46370  0.59640  Biso   1.000  N
  N105     1.0000 0.22160  0.47970  0.50750  Biso   1.000  N
  N106     1.0000 0.12560  0.31410  0.34880  Biso   1.000  N
  N107     1.0000 0.07490  0.28790  0.42680  Biso   1.000  N
  N108     1.0000 0.07850  0.27520  0.31200  Biso   1.000  N
  C181     1.0000 0.61970  0.89690  0.50100  Biso   1.000  C
  C182     1.0000 0.60530  0.89530  0.61300  Biso   1.000  C
  H145     1.0000 0.61520  0.91140  0.66910  Biso   1.000  H
  C183     1.0000 0.57620  0.86970  0.64100  Biso   1.000  C
  H146     1.0000 0.56660  0.86780  0.71420  Biso   1.000  H
  C184     1.0000 0.56190  0.84650  0.54900  Biso   1.000  C
  H147     1.0000 0.54200  0.82950  0.56190  Biso   1.000  H
  C185     1.0000 0.57810  0.84970  0.44100  Biso   1.000  C
  C186     1.0000 0.60660  0.87530  0.41500  Biso   1.000  C
  H148     1.0000 0.61620  0.87750  0.34180  Biso   1.000  H
  C187     1.0000 0.55490  0.78700  0.36200  Biso   1.000  C
  H149     1.0000 0.55640  0.77280  0.42830  Biso   1.000  H
  C188     1.0000 0.55840  0.83210  0.24300  Biso   1.000  C
  H150     1.0000 0.56280  0.85580  0.21040  Biso   1.000  H
  C189     1.0000 0.68160  0.92830  0.53900  Biso   1.000  C
  H151     1.0000 0.68620  0.91760  0.61050  Biso   1.000  H
  C190     1.0000 0.65480  0.94290  0.38000  Biso   1.000  C
  H152     1.0000 0.63770  0.94320  0.31900  Biso   1.000  H
  C191     1.0000 0.66170  0.83570  0.83400  Biso   1.000  C
  C192     1.0000 0.66380  0.87050  0.89360  Biso   1.000  C
  H153     1.0000 0.64270  0.88060  0.93090  Biso   1.000  H
  C193     1.0000 0.69740  0.88830  0.89400  Biso   1.000  C
  C194     1.0000 0.72800  0.87390  0.83900  Biso   1.000  C
  H154     1.0000 0.75150  0.88580  0.84530  Biso   1.000  H
  C195     1.0000 0.72420  0.84070  0.77300  Biso   1.000  C
  H155     1.0000 0.74360  0.83280  0.72420  Biso   1.000  H
  C196     1.0000 0.69040  0.81990  0.78200  Biso   1.000  C
  H156     1.0000 0.68850  0.79550  0.75200  Biso   1.000  H
  C197     1.0000 0.61070  0.79100  0.77100  Biso   1.000  C
  H157     1.0000 0.62100  0.78650  0.69920  Biso   1.000  H
  C198     1.0000 0.60360  0.81130  0.94100  Biso   1.000  C
  H158     1.0000 0.60810  0.82460  0.00780  Biso   1.000  H
  C199     1.0000 0.69090  0.93030  0.06500  Biso   1.000  C
  H159     1.0000 0.67730  0.91350  0.11050  Biso   1.000  H
  C200     1.0000 0.71970  0.95540  0.92700  Biso   1.000  C
  H160     1.0000 0.72970  0.95960  0.85430  Biso   1.000  H
  Cu19     1.0000 0.53095  0.79158  0.02740  Biso   1.000  Cu
  Cu20     1.0000 0.71373  0.98848  0.25590  Biso   1.000  Cu
  N109     1.0000 0.56390  0.82420  0.35460  Biso   1.000  N
  N110     1.0000 0.54620  0.80260  0.18820  Biso   1.000  N
  N111     1.0000 0.54380  0.77340  0.26500  Biso   1.000  N
  N112     1.0000 0.65060  0.92190  0.47880  Biso   1.000  N
  N113     1.0000 0.68690  0.96250  0.38490  Biso   1.000  N
  N114     1.0000 0.70550  0.95210  0.48570  Biso   1.000  N
  N115     1.0000 0.70150  0.92270  0.95710  Biso   1.000  N
  N116     1.0000 0.70190  0.96370  0.09640  Biso   1.000  N
  N117     1.0000 0.72160  0.97970  0.00750  Biso   1.000  N
  N118     1.0000 0.62560  0.81410  0.84880  Biso   1.000  N
  N119     1.0000 0.57490  0.78790  0.92680  Biso   1.000  N
  N120     1.0000 0.57850  0.77520  0.81200  Biso   1.000  N
  C201     1.0000 0.38030  0.60310  0.50100  Biso   1.000  C
  C202     1.0000 0.39470  0.60470  0.61300  Biso   1.000  C
  H161     1.0000 0.38480  0.58860  0.66910  Biso   1.000  H
  C203     1.0000 0.42380  0.63030  0.64100  Biso   1.000  C
  H162     1.0000 0.43340  0.63220  0.71420  Biso   1.000  H
  C204     1.0000 0.43810  0.65350  0.54900  Biso   1.000  C
  H163     1.0000 0.45800  0.67050  0.56190  Biso   1.000  H
  C205     1.0000 0.42190  0.65030  0.44100  Biso   1.000  C
  C206     1.0000 0.39340  0.62470  0.41500  Biso   1.000  C
  H164     1.0000 0.38380  0.62250  0.34180  Biso   1.000  H
  C207     1.0000 0.44510  0.71300  0.36200  Biso   1.000  C
  H165     1.0000 0.44360  0.72720  0.42830  Biso   1.000  H
  C208     1.0000 0.44160  0.66790  0.24300  Biso   1.000  C
  H166     1.0000 0.43720  0.64420  0.21040  Biso   1.000  H
  C209     1.0000 0.31840  0.57170  0.53900  Biso   1.000  C
  H167     1.0000 0.31380  0.58240  0.61050  Biso   1.000  H
  C210     1.0000 0.34520  0.55710  0.38000  Biso   1.000  C
  H168     1.0000 0.36230  0.55680  0.31900  Biso   1.000  H
  C211     1.0000 0.33830  0.66430  0.83400  Biso   1.000  C
  C212     1.0000 0.33620  0.62950  0.89360  Biso   1.000  C
  H169     1.0000 0.35730  0.61940  0.93090  Biso   1.000  H
  C213     1.0000 0.30260  0.61170  0.89400  Biso   1.000  C
  C214     1.0000 0.27200  0.62610  0.83900  Biso   1.000  C
  H170     1.0000 0.24850  0.61420  0.84530  Biso   1.000  H
  C215     1.0000 0.27580  0.65930  0.77300  Biso   1.000  C
  H171     1.0000 0.25640  0.66720  0.72420  Biso   1.000  H
  C216     1.0000 0.30960  0.68010  0.78200  Biso   1.000  C
  H172     1.0000 0.31150  0.70450  0.75200  Biso   1.000  H
  C217     1.0000 0.38930  0.70900  0.77100  Biso   1.000  C
  H173     1.0000 0.37900  0.71350  0.69920  Biso   1.000  H
  C218     1.0000 0.39640  0.68870  0.94100  Biso   1.000  C
  H174     1.0000 0.39190  0.67540  0.00780  Biso   1.000  H
  C219     1.0000 0.30910  0.56970  0.06500  Biso   1.000  C
  H175     1.0000 0.32270  0.58650  0.11050  Biso   1.000  H
  C220     1.0000 0.28030  0.54460  0.92700  Biso   1.000  C
  H176     1.0000 0.27030  0.54040  0.85430  Biso   1.000  H
  Cu21     1.0000 0.46905  0.70842  0.02740  Biso   1.000  Cu
  Cu22     1.0000 0.28627  0.51152  0.25590  Biso   1.000  Cu
  N121     1.0000 0.43610  0.67580  0.35460  Biso   1.000  N
  N122     1.0000 0.45380  0.69740  0.18820  Biso   1.000  N
  N123     1.0000 0.45620  0.72660  0.26500  Biso   1.000  N
  N124     1.0000 0.34940  0.57810  0.47880  Biso   1.000  N
  N125     1.0000 0.31310  0.53750  0.38490  Biso   1.000  N
  N126     1.0000 0.29450  0.54790  0.48570  Biso   1.000  N
  N127     1.0000 0.29850  0.57730  0.95710  Biso   1.000  N
  N128     1.0000 0.29810  0.53630  0.09640  Biso   1.000  N
  N129     1.0000 0.27840  0.52030  0.00750  Biso   1.000  N
  N130     1.0000 0.37440  0.68590  0.84880  Biso   1.000  N
  N131     1.0000 0.42510  0.71210  0.92680  Biso   1.000  N
  N132     1.0000 0.42150  0.72480  0.81200  Biso   1.000  N
  C221     1.0000 0.88030  0.10310  0.00100  Biso   1.000  C
  C222     1.0000 0.89470  0.10470  0.11300  Biso   1.000  C
  H177     1.0000 0.88480  0.08860  0.16910  Biso   1.000  H
  C223     1.0000 0.92380  0.13030  0.14100  Biso   1.000  C
  H178     1.0000 0.93340  0.13220  0.21420  Biso   1.000  H
  C224     1.0000 0.93810  0.15350  0.04900  Biso   1.000  C
  H179     1.0000 0.95800  0.17050  0.06190  Biso   1.000  H
  C225     1.0000 0.92190  0.15030  0.94100  Biso   1.000  C
  C226     1.0000 0.89340  0.12470  0.91500  Biso   1.000  C
  H180     1.0000 0.88380  0.12250  0.84180  Biso   1.000  H
  C227     1.0000 0.94510  0.21300  0.86200  Biso   1.000  C
  H181     1.0000 0.94360  0.22720  0.92830  Biso   1.000  H
  C228     1.0000 0.94160  0.16790  0.74300  Biso   1.000  C
  H182     1.0000 0.93720  0.14420  0.71040  Biso   1.000  H
  C229     1.0000 0.81840  0.07170  0.03900  Biso   1.000  C
  H183     1.0000 0.81380  0.08240  0.11050  Biso   1.000  H
  C230     1.0000 0.84520  0.05710  0.88000  Biso   1.000  C
  H184     1.0000 0.86230  0.05680  0.81900  Biso   1.000  H
  C231     1.0000 0.83830  0.16430  0.33400  Biso   1.000  C
  C232     1.0000 0.83620  0.12950  0.39360  Biso   1.000  C
  H185     1.0000 0.85730  0.11940  0.43090  Biso   1.000  H
  C233     1.0000 0.80260  0.11170  0.39400  Biso   1.000  C
  C234     1.0000 0.77200  0.12610  0.33900  Biso   1.000  C
  H186     1.0000 0.74850  0.11420  0.34530  Biso   1.000  H
  C235     1.0000 0.77580  0.15930  0.27300  Biso   1.000  C
  H187     1.0000 0.75640  0.16720  0.22420  Biso   1.000  H
  C236     1.0000 0.80960  0.18010  0.28200  Biso   1.000  C
  H188     1.0000 0.81150  0.20450  0.25200  Biso   1.000  H
  C237     1.0000 0.88930  0.20900  0.27100  Biso   1.000  C
  H189     1.0000 0.87900  0.21350  0.19920  Biso   1.000  H
  C238     1.0000 0.89640  0.18870  0.44100  Biso   1.000  C
  H190     1.0000 0.89190  0.17540  0.50780  Biso   1.000  H
  C239     1.0000 0.80910  0.06970  0.56500  Biso   1.000  C
  H191     1.0000 0.82270  0.08650  0.61050  Biso   1.000  H
  C240     1.0000 0.78030  0.04460  0.42700  Biso   1.000  C
  H192     1.0000 0.77030  0.04040  0.35430  Biso   1.000  H
  Cu23     1.0000 0.96905  0.20842  0.52740  Biso   1.000  Cu
  Cu24     1.0000 0.78627  0.01152  0.75590  Biso   1.000  Cu
  N133     1.0000 0.93610  0.17580  0.85460  Biso   1.000  N
  N134     1.0000 0.95380  0.19740  0.68820  Biso   1.000  N
  N135     1.0000 0.95620  0.22660  0.76500  Biso   1.000  N
  N136     1.0000 0.84940  0.07810  0.97880  Biso   1.000  N
  N137     1.0000 0.81310  0.03750  0.88490  Biso   1.000  N
  N138     1.0000 0.79450  0.04790  0.98570  Biso   1.000  N
  N139     1.0000 0.79850  0.07730  0.45710  Biso   1.000  N
  N140     1.0000 0.79810  0.03630  0.59640  Biso   1.000  N
  N141     1.0000 0.77840  0.02030  0.50750  Biso   1.000  N
  N142     1.0000 0.87440  0.18590  0.34880  Biso   1.000  N
  N143     1.0000 0.92510  0.21210  0.42680  Biso   1.000  N
  N144     1.0000 0.92150  0.22480  0.31200  Biso   1.000  N
  C241     1.0000 0.85310  0.86970  0.75100  Biso   1.000  C
  C242     1.0000 0.85470  0.85530  0.86300  Biso   1.000  C
  H193     1.0000 0.83860  0.86520  0.91910  Biso   1.000  H
  C243     1.0000 0.88030  0.82620  0.89100  Biso   1.000  C
  H194     1.0000 0.88220  0.81660  0.96420  Biso   1.000  H
  C244     1.0000 0.90350  0.81190  0.79900  Biso   1.000  C
  H195     1.0000 0.92050  0.79200  0.81190  Biso   1.000  H
  C245     1.0000 0.90030  0.82810  0.69100  Biso   1.000  C
  C246     1.0000 0.87470  0.85660  0.66500  Biso   1.000  C
  H196     1.0000 0.87250  0.86620  0.59180  Biso   1.000  H
  C247     1.0000 0.96300  0.80490  0.61200  Biso   1.000  C
  H197     1.0000 0.97720  0.80640  0.67830  Biso   1.000  H
  C248     1.0000 0.91790  0.80840  0.49300  Biso   1.000  C
  H198     1.0000 0.89420  0.81280  0.46040  Biso   1.000  H
  C249     1.0000 0.82170  0.93160  0.78900  Biso   1.000  C
  H199     1.0000 0.83240  0.93620  0.86050  Biso   1.000  H
  C250     1.0000 0.80710  0.90480  0.63000  Biso   1.000  C
  H200     1.0000 0.80680  0.88770  0.56900  Biso   1.000  H
  C251     1.0000 0.91430  0.91170  0.08400  Biso   1.000  C
  C252     1.0000 0.87950  0.91380  0.14360  Biso   1.000  C
  H201     1.0000 0.86940  0.89270  0.18090  Biso   1.000  H
  C253     1.0000 0.86170  0.94740  0.14400  Biso   1.000  C
  C254     1.0000 0.87610  0.97800  0.08900  Biso   1.000  C
  H202     1.0000 0.86420  0.00150  0.09530  Biso   1.000  H
  C255     1.0000 0.90930  0.97420  0.02300  Biso   1.000  C
  H203     1.0000 0.91720  0.99360  0.97420  Biso   1.000  H
  C256     1.0000 0.93010  0.94040  0.03200  Biso   1.000  C
  H204     1.0000 0.95450  0.93850  0.00200  Biso   1.000  H
  C257     1.0000 0.95900  0.86070  0.02100  Biso   1.000  C
  H205     1.0000 0.96350  0.87100  0.94920  Biso   1.000  H
  C258     1.0000 0.93870  0.85360  0.19100  Biso   1.000  C
  H206     1.0000 0.92540  0.85810  0.25780  Biso   1.000  H
  C259     1.0000 0.81970  0.94090  0.31500  Biso   1.000  C
  H207     1.0000 0.83650  0.92730  0.36050  Biso   1.000  H
  C260     1.0000 0.79460  0.96970  0.17700  Biso   1.000  C
  H208     1.0000 0.79040  0.97970  0.10430  Biso   1.000  H
  Cu25     1.0000 0.95842  0.78095  0.27740  Biso   1.000  Cu
  Cu26     1.0000 0.76152  0.96373  0.50590  Biso   1.000  Cu
  N145     1.0000 0.92580  0.81390  0.60460  Biso   1.000  N
  N146     1.0000 0.94740  0.79620  0.43820  Biso   1.000  N
  N147     1.0000 0.97660  0.79380  0.51500  Biso   1.000  N
  N148     1.0000 0.82810  0.90060  0.72880  Biso   1.000  N
  N149     1.0000 0.78750  0.93690  0.63490  Biso   1.000  N
  N150     1.0000 0.79790  0.95550  0.73570  Biso   1.000  N
  N151     1.0000 0.82730  0.95150  0.20710  Biso   1.000  N
  N152     1.0000 0.78630  0.95190  0.34640  Biso   1.000  N
  N153     1.0000 0.77030  0.97160  0.25750  Biso   1.000  N
  N154     1.0000 0.93590  0.87560  0.09880  Biso   1.000  N
  N155     1.0000 0.96210  0.82490  0.17680  Biso   1.000  N
  N156     1.0000 0.97480  0.82850  0.06200  Biso   1.000  N
  C261     1.0000 0.35310  0.36970  0.25100  Biso   1.000  C
  C262     1.0000 0.35470  0.35530  0.36300  Biso   1.000  C
  H209     1.0000 0.33860  0.36520  0.41910  Biso   1.000  H
  C263     1.0000 0.38030  0.32620  0.39100  Biso   1.000  C
  H210     1.0000 0.38220  0.31660  0.46420  Biso   1.000  H
  C264     1.0000 0.40350  0.31190  0.29900  Biso   1.000  C
  H211     1.0000 0.42050  0.29200  0.31190  Biso   1.000  H
  C265     1.0000 0.40030  0.32810  0.19100  Biso   1.000  C
  C266     1.0000 0.37470  0.35660  0.16500  Biso   1.000  C
  H212     1.0000 0.37250  0.36620  0.09180  Biso   1.000  H
  C267     1.0000 0.46300  0.30490  0.11200  Biso   1.000  C
  H213     1.0000 0.47720  0.30640  0.17830  Biso   1.000  H
  C268     1.0000 0.41790  0.30840  0.99300  Biso   1.000  C
  H214     1.0000 0.39420  0.31280  0.96040  Biso   1.000  H
  C269     1.0000 0.32170  0.43160  0.28900  Biso   1.000  C
  H215     1.0000 0.33240  0.43620  0.36050  Biso   1.000  H
  C270     1.0000 0.30710  0.40480  0.13000  Biso   1.000  C
  H216     1.0000 0.30680  0.38770  0.06900  Biso   1.000  H
  C271     1.0000 0.41430  0.41170  0.58400  Biso   1.000  C
  C272     1.0000 0.37950  0.41380  0.64360  Biso   1.000  C
  H217     1.0000 0.36940  0.39270  0.68090  Biso   1.000  H
  C273     1.0000 0.36170  0.44740  0.64400  Biso   1.000  C
  C274     1.0000 0.37610  0.47800  0.58900  Biso   1.000  C
  H218     1.0000 0.36420  0.50150  0.59530  Biso   1.000  H
  C275     1.0000 0.40930  0.47420  0.52300  Biso   1.000  C
  H219     1.0000 0.41720  0.49360  0.47420  Biso   1.000  H
  C276     1.0000 0.43010  0.44040  0.53200  Biso   1.000  C
  H220     1.0000 0.45450  0.43850  0.50200  Biso   1.000  H
  C277     1.0000 0.45900  0.36070  0.52100  Biso   1.000  C
  H221     1.0000 0.46350  0.37100  0.44920  Biso   1.000  H
  C278     1.0000 0.43870  0.35360  0.69100  Biso   1.000  C
  H222     1.0000 0.42540  0.35810  0.75780  Biso   1.000  H
  C279     1.0000 0.31970  0.44090  0.81500  Biso   1.000  C
  H223     1.0000 0.33650  0.42730  0.86050  Biso   1.000  H
  C280     1.0000 0.29460  0.46970  0.67700  Biso   1.000  C
  H224     1.0000 0.29040  0.47970  0.60430  Biso   1.000  H
  Cu27     1.0000 0.45842  0.28095  0.77740  Biso   1.000  Cu
  Cu28     1.0000 0.26152  0.46373  0.00590  Biso   1.000  Cu
  N157     1.0000 0.42580  0.31390  0.10460  Biso   1.000  N
  N158     1.0000 0.44740  0.29620  0.93820  Biso   1.000  N
  N159     1.0000 0.47660  0.29380  0.01500  Biso   1.000  N
  N160     1.0000 0.32810  0.40060  0.22880  Biso   1.000  N
  N161     1.0000 0.28750  0.43690  0.13490  Biso   1.000  N
  N162     1.0000 0.29790  0.45550  0.23570  Biso   1.000  N
  N163     1.0000 0.32730  0.45150  0.70710  Biso   1.000  N
  N164     1.0000 0.28630  0.45190  0.84640  Biso   1.000  N
  N165     1.0000 0.27030  0.47160  0.75750  Biso   1.000  N
  N166     1.0000 0.43590  0.37560  0.59880  Biso   1.000  N
  N167     1.0000 0.46210  0.32490  0.67680  Biso   1.000  N
  N168     1.0000 0.47480  0.32850  0.56200  Biso   1.000  N
  C281     1.0000 0.64690  0.13030  0.25100  Biso   1.000  C
  C282     1.0000 0.64530  0.14470  0.36300  Biso   1.000  C
  H225     1.0000 0.66140  0.13480  0.41910  Biso   1.000  H
  C283     1.0000 0.61970  0.17380  0.39100  Biso   1.000  C
  H226     1.0000 0.61780  0.18340  0.46420  Biso   1.000  H
  C284     1.0000 0.59650  0.18810  0.29900  Biso   1.000  C
  H227     1.0000 0.57950  0.20800  0.31190  Biso   1.000  H
  C285     1.0000 0.59970  0.17190  0.19100  Biso   1.000  C
  C286     1.0000 0.62530  0.14340  0.16500  Biso   1.000  C
  H228     1.0000 0.62750  0.13380  0.09180  Biso   1.000  H
  C287     1.0000 0.53700  0.19510  0.11200  Biso   1.000  C
  H229     1.0000 0.52280  0.19360  0.17830  Biso   1.000  H
  C288     1.0000 0.58210  0.19160  0.99300  Biso   1.000  C
  H230     1.0000 0.60580  0.18720  0.96040  Biso   1.000  H
  C289     1.0000 0.67830  0.06840  0.28900  Biso   1.000  C
  H231     1.0000 0.66760  0.06380  0.36050  Biso   1.000  H
  C290     1.0000 0.69290  0.09520  0.13000  Biso   1.000  C
  H232     1.0000 0.69320  0.11230  0.06900  Biso   1.000  H
  C291     1.0000 0.58570  0.08830  0.58400  Biso   1.000  C
  C292     1.0000 0.62050  0.08620  0.64360  Biso   1.000  C
  H233     1.0000 0.63060  0.10730  0.68090  Biso   1.000  H
  C293     1.0000 0.63830  0.05260  0.64400  Biso   1.000  C
  C294     1.0000 0.62390  0.02200  0.58900  Biso   1.000  C
  H234     1.0000 0.63580  0.99850  0.59530  Biso   1.000  H
  C295     1.0000 0.59070  0.02580  0.52300  Biso   1.000  C
  H235     1.0000 0.58280  0.00640  0.47420  Biso   1.000  H
  C296     1.0000 0.56990  0.05960  0.53200  Biso   1.000  C
  H236     1.0000 0.54550  0.06150  0.50200  Biso   1.000  H
  C297     1.0000 0.54100  0.13930  0.52100  Biso   1.000  C
  H237     1.0000 0.53650  0.12900  0.44920  Biso   1.000  H
  C298     1.0000 0.56130  0.14640  0.69100  Biso   1.000  C
  H238     1.0000 0.57460  0.14190  0.75780  Biso   1.000  H
  C299     1.0000 0.68030  0.05910  0.81500  Biso   1.000  C
  H239     1.0000 0.66350  0.07270  0.86050  Biso   1.000  H
  C300     1.0000 0.70540  0.03030  0.67700  Biso   1.000  C
  H240     1.0000 0.70960  0.02030  0.60430  Biso   1.000  H
  Cu29     1.0000 0.54158  0.21905  0.77740  Biso   1.000  Cu
  Cu30     1.0000 0.73848  0.03627  0.00590  Biso   1.000  Cu
  N169     1.0000 0.57420  0.18610  0.10460  Biso   1.000  N
  N170     1.0000 0.55260  0.20380  0.93820  Biso   1.000  N
  N171     1.0000 0.52340  0.20620  0.01500  Biso   1.000  N
  N172     1.0000 0.67190  0.09940  0.22880  Biso   1.000  N
  N173     1.0000 0.71250  0.06310  0.13490  Biso   1.000  N
  N174     1.0000 0.70210  0.04450  0.23570  Biso   1.000  N
  N175     1.0000 0.67270  0.04850  0.70710  Biso   1.000  N
  N176     1.0000 0.71370  0.04810  0.84640  Biso   1.000  N
  N177     1.0000 0.72970  0.02840  0.75750  Biso   1.000  N
  N178     1.0000 0.56410  0.12440  0.59880  Biso   1.000  N
  N179     1.0000 0.53790  0.17510  0.67680  Biso   1.000  N
  N180     1.0000 0.52520  0.17150  0.56200  Biso   1.000  N
  C301     1.0000 0.14690  0.63030  0.75100  Biso   1.000  C
  C302     1.0000 0.14530  0.64470  0.86300  Biso   1.000  C
  H241     1.0000 0.16140  0.63480  0.91910  Biso   1.000  H
  C303     1.0000 0.11970  0.67380  0.89100  Biso   1.000  C
  H242     1.0000 0.11780  0.68340  0.96420  Biso   1.000  H
  C304     1.0000 0.09650  0.68810  0.79900  Biso   1.000  C
  H243     1.0000 0.07950  0.70800  0.81190  Biso   1.000  H
  C305     1.0000 0.09970  0.67190  0.69100  Biso   1.000  C
  C306     1.0000 0.12530  0.64340  0.66500  Biso   1.000  C
  H244     1.0000 0.12750  0.63380  0.59180  Biso   1.000  H
  C307     1.0000 0.03700  0.69510  0.61200  Biso   1.000  C
  H245     1.0000 0.02280  0.69360  0.67830  Biso   1.000  H
  C308     1.0000 0.08210  0.69160  0.49300  Biso   1.000  C
  H246     1.0000 0.10580  0.68720  0.46040  Biso   1.000  H
  C309     1.0000 0.17830  0.56840  0.78900  Biso   1.000  C
  H247     1.0000 0.16760  0.56380  0.86050  Biso   1.000  H
  C310     1.0000 0.19290  0.59520  0.63000  Biso   1.000  C
  H248     1.0000 0.19320  0.61230  0.56900  Biso   1.000  H
  C311     1.0000 0.08570  0.58830  0.08400  Biso   1.000  C
  C312     1.0000 0.12050  0.58620  0.14360  Biso   1.000  C
  H249     1.0000 0.13060  0.60730  0.18090  Biso   1.000  H
  C313     1.0000 0.13830  0.55260  0.14400  Biso   1.000  C
  C314     1.0000 0.12390  0.52200  0.08900  Biso   1.000  C
  H250     1.0000 0.13580  0.49850  0.09530  Biso   1.000  H
  C315     1.0000 0.09070  0.52580  0.02300  Biso   1.000  C
  H251     1.0000 0.08280  0.50640  0.97420  Biso   1.000  H
  C316     1.0000 0.06990  0.55960  0.03200  Biso   1.000  C
  H252     1.0000 0.04550  0.56150  0.00200  Biso   1.000  H
  C317     1.0000 0.04100  0.63930  0.02100  Biso   1.000  C
  H253     1.0000 0.03650  0.62900  0.94920  Biso   1.000  H
  C318     1.0000 0.06130  0.64640  0.19100  Biso   1.000  C
  H254     1.0000 0.07460  0.64190  0.25780  Biso   1.000  H
  C319     1.0000 0.18030  0.55910  0.31500  Biso   1.000  C
  H255     1.0000 0.16350  0.57270  0.36050  Biso   1.000  H
  C320     1.0000 0.20540  0.53030  0.17700  Biso   1.000  C
  H256     1.0000 0.20960  0.52030  0.10430  Biso   1.000  H
  Cu31     1.0000 0.04158  0.71905  0.27740  Biso   1.000  Cu
  Cu32     1.0000 0.23848  0.53627  0.50590  Biso   1.000  Cu
  N181     1.0000 0.07420  0.68610  0.60460  Biso   1.000  N
  N182     1.0000 0.05260  0.70380  0.43820  Biso   1.000  N
  N183     1.0000 0.02340  0.70620  0.51500  Biso   1.000  N
  N184     1.0000 0.17190  0.59940  0.72880  Biso   1.000  N
  N185     1.0000 0.21250  0.56310  0.63490  Biso   1.000  N
  N186     1.0000 0.20210  0.54450  0.73570  Biso   1.000  N
  N187     1.0000 0.17270  0.54850  0.20710  Biso   1.000  N
  N188     1.0000 0.21370  0.54810  0.34640  Biso   1.000  N
  N189     1.0000 0.22970  0.52840  0.25750  Biso   1.000  N
  N190     1.0000 0.06410  0.62440  0.09880  Biso   1.000  N
  N191     1.0000 0.03790  0.67510  0.17680  Biso   1.000  N
  N192     1.0000 0.02520  0.67150  0.06200  Biso   1.000  N
