data_image0
_cell_length_a       75.033
_cell_length_b       29.38
_cell_length_c       29.569
_cell_angle_alpha    90
_cell_angle_beta     90
_cell_angle_gamma    90

_symmetry_space_group_name_H-M    "P 1"
_symmetry_int_tables_number       1

loop_
  _symmetry_equiv_pos_as_xyz
  'x, y, z'

loop_
  _atom_site_label
  _atom_site_occupancy
  _atom_site_fract_x
  _atom_site_fract_y
  _atom_site_fract_z
  _atom_site_thermal_displace_type
  _atom_site_B_iso_or_equiv
  _atom_site_type_symbol
  C1       1.0000 0.92972  0.12710  0.12830  Biso   1.000  C
  H1       1.0000 0.93310  0.12030  0.09800  Biso   1.000  H
  C2       1.0000 0.86523  0.40760  0.23590  Biso   1.000  C
  H2       1.0000 0.85720  0.39520  0.25750  Biso   1.000  H
  C3       1.0000 0.93940  0.15800  0.15300  Biso   1.000  C
  H3       1.0000 0.94880  0.17410  0.13860  Biso   1.000  H
  C4       1.0000 0.91992  0.20600  0.02970  Biso   1.000  C
  H4       1.0000 0.92960  0.19300  0.04610  Biso   1.000  H
  C5       1.0000 0.87164  0.09170  0.93140  Biso   1.000  C
  H5       1.0000 0.87000  0.06050  0.93890  Biso   1.000  H
  C6       1.0000 0.86600  0.15430  0.88450  Biso   1.000  C
  H6       1.0000 0.85980  0.16700  0.85940  Biso   1.000  H
  C7       1.0000 0.91699  0.31010  0.08930  Biso   1.000  C
  C8       1.0000 0.85578  0.48340  0.26500  Biso   1.000  C
  C9       1.0000 0.87956  0.46670  0.20840  Biso   1.000  C
  H7       1.0000 0.88240  0.49830  0.20950  Biso   1.000  H
  C10      1.0000 0.91636  0.24880  0.03520  Biso   1.000  C
  C11      1.0000 0.94574  0.27700  0.06180  Biso   1.000  C
  C12      1.0000 0.85537  0.07850  0.86250  Biso   1.000  C
  C13      1.0000 0.92234  0.34970  0.10190  Biso   1.000  C
  H8       1.0000 0.93330  0.36010  0.08990  Biso   1.000  H
  C14      1.0000 0.05049  0.21410  0.18620  Biso   1.000  C
  H9       1.0000 0.05910  0.19480  0.17260  Biso   1.000  H
  C15      1.0000 0.08670  0.95140  0.81100  Biso   1.000  C
  C16      1.0000 0.03793  0.25010  0.06380  Biso   1.000  C
  C17      1.0000 0.03016  0.27510  0.09820  Biso   1.000  C
  H10      1.0000 0.03700  0.28690  0.12250  Biso   1.000  H
  C18      1.0000 0.88717  0.34110  0.39580  Biso   1.000  C
  H11      1.0000 0.88360  0.33410  0.42580  Biso   1.000  H
  C19      1.0000 0.90105  0.29430  0.11020  Biso   1.000  C
  H12      1.0000 0.89690  0.26430  0.10420  Biso   1.000  H
  C20      1.0000 0.87436  0.37690  0.20790  Biso   1.000  C
  H13      1.0000 0.87190  0.34520  0.20870  Biso   1.000  H
  C21      1.0000 0.88897  0.44170  0.17980  Biso   1.000  C
  H14      1.0000 0.89710  0.45580  0.15960  Biso   1.000  H
  C22      1.0000 0.02015  0.23420  0.20890  Biso   1.000  C
  C23      1.0000 0.87596  0.18230  0.91270  Biso   1.000  C
  H15      1.0000 0.87720  0.21370  0.90560  Biso   1.000  H
  C24      1.0000 0.86695  0.45290  0.23490  Biso   1.000  C
  C25      1.0000 0.89471  0.19320  0.97990  Biso   1.000  C
  C26      1.0000 0.89811  0.31170  0.36970  Biso   1.000  C
  H16      1.0000 0.90170  0.28310  0.38160  Biso   1.000  H
  C27      1.0000 0.90338  0.32440  0.32760  Biso   1.000  C
  C28      1.0000 0.02866  0.23360  0.02900  Biso   1.000  C
  H17      1.0000 0.03440  0.21690  0.00560  Biso   1.000  H
  C29      1.0000 0.03147  0.20220  0.18600  Biso   1.000  C
  H18      1.0000 0.02700  0.17550  0.17180  Biso   1.000  H
  C30      1.0000 0.91468  0.29030  0.29950  Biso   1.000  C
  C31      1.0000 0.93599  0.16670  0.19810  Biso   1.000  C
  C32      1.0000 0.89832  0.36180  0.30910  Biso   1.000  C
  H19      1.0000 0.90150  0.36900  0.27880  Biso   1.000  H
  C33      1.0000 0.07161  0.14990  0.95260  Biso   1.000  C
  H20      1.0000 0.06520  0.17780  0.95130  Biso   1.000  H
  C34      1.0000 0.91357  0.37800  0.13090  Biso   1.000  C
  H21      1.0000 0.91880  0.40660  0.13790  Biso   1.000  H
  C35      1.0000 0.07987  0.99060  0.83620  Biso   1.000  C
  C36      1.0000 0.07546  0.26870  0.20300  Biso   1.000  C
  C37      1.0000 0.00138  0.26490  0.06030  Biso   1.000  C
  C38      1.0000 0.09133  0.10260  0.98900  Biso   1.000  C
  H22      1.0000 0.09930  0.09720  0.01340  Biso   1.000  H
  C39      1.0000 0.88025  0.02260  0.06900  Biso   1.000  C
  C40      1.0000 0.04455  0.27880  0.23210  Biso   1.000  C
  H23      1.0000 0.04900  0.30260  0.25060  Biso   1.000  H
  C41      1.0000 0.05818  0.23990  0.06390  Biso   1.000  C
  C42      1.0000 0.90338  0.07570  0.11800  Biso   1.000  C
  C43      1.0000 0.86503  0.10660  0.89300  Biso   1.000  C
  C44      1.0000 0.93504  0.23000  0.24900  Biso   1.000  C
  C45      1.0000 0.91176  0.28190  0.25490  Biso   1.000  C
  H24      1.0000 0.90220  0.29740  0.24070  Biso   1.000  H
  C46      1.0000 0.07912  0.07670  0.91990  Biso   1.000  C
  C47      1.0000 0.00002  0.22210  0.21180  Biso   1.000  C
  C48      1.0000 0.08962  0.07170  0.95770  Biso   1.000  C
  H25      1.0000 0.09600  0.04400  0.96120  Biso   1.000  H
  C49      1.0000 0.88407  0.16480  0.95110  Biso   1.000  C
  C50      1.0000 0.96371  0.20610  0.21810  Biso   1.000  C
  C51      1.0000 0.06986  0.11640  0.91750  Biso   1.000  C
  H26      1.0000 0.06220  0.12210  0.89260  Biso   1.000  H
  C52      1.0000 0.89218  0.32080  0.13760  Biso   1.000  C
  H27      1.0000 0.88140  0.30930  0.15020  Biso   1.000  H
  C53      1.0000 0.07766  0.04820  0.88290  Biso   1.000  C
  C54      1.0000 0.91566  0.10670  0.14660  Biso   1.000  C
  C55      1.0000 0.93805  0.23690  0.29080  Biso   1.000  C
  H28      1.0000 0.94790  0.22110  0.30340  Biso   1.000  H
  C56      1.0000 0.92094  0.25500  0.23100  Biso   1.000  C
  H29      1.0000 0.91810  0.25170  0.19990  Biso   1.000  H
  C57      1.0000 0.97339  0.27200  0.10080  Biso   1.000  C
  H30      1.0000 0.97970  0.27300  0.12860  Biso   1.000  H
  C58      1.0000 0.91009  0.17790  0.00030  Biso   1.000  C
  H31      1.0000 0.91410  0.14790  0.99440  Biso   1.000  H
  C59      1.0000 0.02619  0.26890  0.23090  Biso   1.000  C
  H32      1.0000 0.01810  0.28820  0.24650  Biso   1.000  H
  C60      1.0000 0.90065  0.26930  0.01030  Biso   1.000  C
  H33      1.0000 0.89800  0.30090  0.01180  Biso   1.000  H
  C61      1.0000 0.89103  0.24080  0.98680  Biso   1.000  C
  H34      1.0000 0.88060  0.25270  0.97280  Biso   1.000  H
  C62      1.0000 0.10470  0.94440  0.80350  Biso   1.000  C
  H35      1.0000 0.11380  0.96350  0.81580  Biso   1.000  H
  C63      1.0000 0.97237  0.27130  0.02190  Biso   1.000  C
  H36      1.0000 0.97850  0.27170  0.99370  Biso   1.000  H
  C64      1.0000 0.88797  0.39140  0.33480  Biso   1.000  C
  H37      1.0000 0.88500  0.42050  0.32300  Biso   1.000  H
  C65      1.0000 0.92887  0.26400  0.31910  Biso   1.000  C
  H38      1.0000 0.93160  0.26560  0.35040  Biso   1.000  H
  C66      1.0000 0.89762  0.36700  0.15040  Biso   1.000  C
  C67      1.0000 0.98221  0.26800  0.06380  Biso   1.000  C
  C68      1.0000 0.98850  0.25780  0.21940  Biso   1.000  C
  H39      1.0000 0.99300  0.28780  0.22250  Biso   1.000  H
  C69      1.0000 0.07560  0.91690  0.79600  Biso   1.000  C
  H40      1.0000 0.06320  0.92330  0.79920  Biso   1.000  H
  C70      1.0000 0.88506  0.07140  0.13050  Biso   1.000  C
  H41      1.0000 0.88030  0.08710  0.15590  Biso   1.000  H
  C71      1.0000 0.87100  0.41330  0.40160  Biso   1.000  C
  C72      1.0000 0.92198  0.14260  0.21790  Biso   1.000  C
  H42      1.0000 0.91940  0.14700  0.24910  Biso   1.000  H
  C73      1.0000 0.10860  0.90470  0.77480  Biso   1.000  C
  H43      1.0000 0.11950  0.90530  0.75830  Biso   1.000  H
  C74      1.0000 0.88223  0.37980  0.37490  Biso   1.000  C
  C75      1.0000 0.07920  0.87400  0.77710  Biso   1.000  C
  H44      1.0000 0.07040  0.85210  0.77000  Biso   1.000  H
  C76      1.0000 0.88689  0.39440  0.17950  Biso   1.000  C
  C77      1.0000 0.99397  0.17940  0.20410  Biso   1.000  C
  H45      1.0000 0.00200  0.15530  0.19750  Biso   1.000  H
  C78      1.0000 0.89854  0.02860  0.05650  Biso   1.000  C
  H46      1.0000 0.90320  0.01330  0.03080  Biso   1.000  H
  C79      1.0000 0.00958  0.24210  0.02790  Biso   1.000  C
  H47      1.0000 0.00280  0.23090  0.00320  Biso   1.000  H
  C80      1.0000 0.05539  0.25400  0.20680  Biso   1.000  C
  C81      1.0000 0.95421  0.27520  0.10140  Biso   1.000  C
  H48      1.0000 0.94780  0.27590  0.12920  Biso   1.000  H
  C82      1.0000 0.91199  0.11350  0.19380  Biso   1.000  C
  H49      1.0000 0.90250  0.09740  0.20790  Biso   1.000  H
  C83      1.0000 0.95412  0.27390  0.02340  Biso   1.000  C
  H50      1.0000 0.94750  0.27340  0.99600  Biso   1.000  H
  C84      1.0000 0.87037  0.99260  0.04080  Biso   1.000  C
  C85      1.0000 0.97440  0.17160  0.20630  Biso   1.000  C
  H51      1.0000 0.96960  0.14250  0.19950  Biso   1.000  H
  C86      1.0000 0.88079  0.11870  0.96110  Biso   1.000  C
  H52      1.0000 0.88500  0.10620  0.98870  Biso   1.000  H
  C87      1.0000 0.90945  0.05680  0.08210  Biso   1.000  C
  H53      1.0000 0.92140  0.06220  0.07290  Biso   1.000  H
  C88      1.0000 0.87471  0.04420  0.10460  Biso   1.000  C
  H54      1.0000 0.86260  0.04070  0.11300  Biso   1.000  H
  C89      1.0000 0.97028  0.25000  0.22260  Biso   1.000  C
  H55      1.0000 0.96240  0.27470  0.22780  Biso   1.000  H
  C90      1.0000 0.01215  0.28210  0.09580  Biso   1.000  C
  H56      1.0000 0.00660  0.29930  0.11910  Biso   1.000  H
  N1       1.0000 0.08708  0.00770  0.87540  Biso   1.000  N
  N2       1.0000 0.08256  0.14050  0.98770  Biso   1.000  N
  N3       1.0000 0.06694  0.05230  0.84750  Biso   1.000  N
  N4       1.0000 0.09993  0.98940  0.90240  Biso   1.000  N
  H57      1.0000 0.10470  0.96300  0.89540  Biso   1.000  H
  H58      1.0000 0.10340  0.00400  0.92680  Biso   1.000  H
  N5       1.0000 0.09820  0.86730  0.76960  Biso   1.000  N
  N6       1.0000 0.06802  0.01870  0.81840  Biso   1.000  N
  N7       1.0000 0.92593  0.28310  0.06020  Biso   1.000  N
  N8       1.0000 0.94519  0.19930  0.22290  Biso   1.000  N
  O1       1.0000 0.87425  0.97320  0.00710  Biso   1.000  O
  O2       1.0000 0.85494  0.52370  0.25500  Biso   1.000  O
  O3       1.0000 0.84815  0.46300  0.29780  Biso   1.000  O
  O4       1.0000 0.08519  0.24540  0.17700  Biso   1.000  O
  O5       1.0000 0.85787  0.03670  0.86330  Biso   1.000  O
  O6       1.0000 0.07962  0.29850  0.22980  Biso   1.000  O
  O7       1.0000 0.84471  0.09770  0.83350  Biso   1.000  O
  O8       1.0000 0.86728  0.45140  0.38650  Biso   1.000  O
  O9       1.0000 0.86600  0.40070  0.44080  Biso   1.000  O
  O10      1.0000 0.06620  0.25440  0.09690  Biso   1.000  O
  O11      1.0000 0.85255  0.98460  0.05710  Biso   1.000  O
  O12      1.0000 0.06371  0.21720  0.03440  Biso   1.000  O
  Cu1      1.0000 0.08695  0.19067  0.03400  Biso   1.000  Cu
  Cu2      1.0000 0.10446  0.31361  0.23610  Biso   1.000  Cu
  Cu3      1.0000 0.09300  0.27168  0.11606  Biso   1.000  Cu
  C91      1.0000 0.92972  0.62710  0.62830  Biso   1.000  C
  H59      1.0000 0.93310  0.62030  0.59800  Biso   1.000  H
  C92      1.0000 0.86523  0.90760  0.73590  Biso   1.000  C
  H60      1.0000 0.85720  0.89520  0.75750  Biso   1.000  H
  C93      1.0000 0.93940  0.65800  0.65300  Biso   1.000  C
  H61      1.0000 0.94880  0.67410  0.63860  Biso   1.000  H
  C94      1.0000 0.91992  0.70600  0.52970  Biso   1.000  C
  H62      1.0000 0.92960  0.69300  0.54610  Biso   1.000  H
  C95      1.0000 0.87164  0.59170  0.43140  Biso   1.000  C
  H63      1.0000 0.87000  0.56050  0.43890  Biso   1.000  H
  C96      1.0000 0.86600  0.65430  0.38450  Biso   1.000  C
  H64      1.0000 0.85980  0.66700  0.35940  Biso   1.000  H
  C97      1.0000 0.91699  0.81010  0.58930  Biso   1.000  C
  C98      1.0000 0.85578  0.98340  0.76500  Biso   1.000  C
  C99      1.0000 0.87956  0.96670  0.70840  Biso   1.000  C
  H65      1.0000 0.88240  0.99830  0.70950  Biso   1.000  H
  C100     1.0000 0.91636  0.74880  0.53520  Biso   1.000  C
  C101     1.0000 0.94574  0.77700  0.56180  Biso   1.000  C
  C102     1.0000 0.85537  0.57850  0.36250  Biso   1.000  C
  C103     1.0000 0.92234  0.84970  0.60190  Biso   1.000  C
  H66      1.0000 0.93330  0.86010  0.58990  Biso   1.000  H
  C104     1.0000 0.05049  0.71410  0.68620  Biso   1.000  C
  H67      1.0000 0.05910  0.69480  0.67260  Biso   1.000  H
  C105     1.0000 0.08670  0.45140  0.31100  Biso   1.000  C
  C106     1.0000 0.03793  0.75010  0.56380  Biso   1.000  C
  C107     1.0000 0.03016  0.77510  0.59820  Biso   1.000  C
  H68      1.0000 0.03700  0.78690  0.62250  Biso   1.000  H
  C108     1.0000 0.88717  0.84110  0.89580  Biso   1.000  C
  H69      1.0000 0.88360  0.83410  0.92580  Biso   1.000  H
  C109     1.0000 0.90105  0.79430  0.61020  Biso   1.000  C
  H70      1.0000 0.89690  0.76430  0.60420  Biso   1.000  H
  C110     1.0000 0.87436  0.87690  0.70790  Biso   1.000  C
  H71      1.0000 0.87190  0.84520  0.70870  Biso   1.000  H
  C111     1.0000 0.88897  0.94170  0.67980  Biso   1.000  C
  H72      1.0000 0.89710  0.95580  0.65960  Biso   1.000  H
  C112     1.0000 0.02015  0.73420  0.70890  Biso   1.000  C
  C113     1.0000 0.87596  0.68230  0.41270  Biso   1.000  C
  H73      1.0000 0.87720  0.71370  0.40560  Biso   1.000  H
  C114     1.0000 0.86695  0.95290  0.73490  Biso   1.000  C
  C115     1.0000 0.89471  0.69320  0.47990  Biso   1.000  C
  C116     1.0000 0.89811  0.81170  0.86970  Biso   1.000  C
  H74      1.0000 0.90170  0.78310  0.88160  Biso   1.000  H
  C117     1.0000 0.90338  0.82440  0.82760  Biso   1.000  C
  C118     1.0000 0.02866  0.73360  0.52900  Biso   1.000  C
  H75      1.0000 0.03440  0.71690  0.50560  Biso   1.000  H
  C119     1.0000 0.03147  0.70220  0.68600  Biso   1.000  C
  H76      1.0000 0.02700  0.67550  0.67180  Biso   1.000  H
  C120     1.0000 0.91468  0.79030  0.79950  Biso   1.000  C
  C121     1.0000 0.93599  0.66670  0.69810  Biso   1.000  C
  C122     1.0000 0.89832  0.86180  0.80910  Biso   1.000  C
  H77      1.0000 0.90150  0.86900  0.77880  Biso   1.000  H
  C123     1.0000 0.07161  0.64990  0.45260  Biso   1.000  C
  H78      1.0000 0.06520  0.67780  0.45130  Biso   1.000  H
  C124     1.0000 0.91357  0.87800  0.63090  Biso   1.000  C
  H79      1.0000 0.91880  0.90660  0.63790  Biso   1.000  H
  C125     1.0000 0.07987  0.49060  0.33620  Biso   1.000  C
  C126     1.0000 0.07546  0.76870  0.70300  Biso   1.000  C
  C127     1.0000 0.00138  0.76490  0.56030  Biso   1.000  C
  C128     1.0000 0.09133  0.60260  0.48900  Biso   1.000  C
  H80      1.0000 0.09930  0.59720  0.51340  Biso   1.000  H
  C129     1.0000 0.88025  0.52260  0.56900  Biso   1.000  C
  C130     1.0000 0.04455  0.77880  0.73210  Biso   1.000  C
  H81      1.0000 0.04900  0.80260  0.75060  Biso   1.000  H
  C131     1.0000 0.05818  0.73990  0.56390  Biso   1.000  C
  C132     1.0000 0.90338  0.57570  0.61800  Biso   1.000  C
  C133     1.0000 0.86503  0.60660  0.39300  Biso   1.000  C
  C134     1.0000 0.93504  0.73000  0.74900  Biso   1.000  C
  C135     1.0000 0.91176  0.78190  0.75490  Biso   1.000  C
  H82      1.0000 0.90220  0.79740  0.74070  Biso   1.000  H
  C136     1.0000 0.07912  0.57670  0.41990  Biso   1.000  C
  C137     1.0000 0.00002  0.72210  0.71180  Biso   1.000  C
  C138     1.0000 0.08962  0.57170  0.45770  Biso   1.000  C
  H83      1.0000 0.09600  0.54400  0.46120  Biso   1.000  H
  C139     1.0000 0.88407  0.66480  0.45110  Biso   1.000  C
  C140     1.0000 0.96371  0.70610  0.71810  Biso   1.000  C
  C141     1.0000 0.06986  0.61640  0.41750  Biso   1.000  C
  H84      1.0000 0.06220  0.62210  0.39260  Biso   1.000  H
  C142     1.0000 0.89218  0.82080  0.63760  Biso   1.000  C
  H85      1.0000 0.88140  0.80930  0.65020  Biso   1.000  H
  C143     1.0000 0.07766  0.54820  0.38290  Biso   1.000  C
  C144     1.0000 0.91566  0.60670  0.64660  Biso   1.000  C
  C145     1.0000 0.93805  0.73690  0.79080  Biso   1.000  C
  H86      1.0000 0.94790  0.72110  0.80340  Biso   1.000  H
  C146     1.0000 0.92094  0.75500  0.73100  Biso   1.000  C
  H87      1.0000 0.91810  0.75170  0.69990  Biso   1.000  H
  C147     1.0000 0.97339  0.77200  0.60080  Biso   1.000  C
  H88      1.0000 0.97970  0.77300  0.62860  Biso   1.000  H
  C148     1.0000 0.91009  0.67790  0.50030  Biso   1.000  C
  H89      1.0000 0.91410  0.64790  0.49440  Biso   1.000  H
  C149     1.0000 0.02619  0.76890  0.73090  Biso   1.000  C
  H90      1.0000 0.01810  0.78820  0.74650  Biso   1.000  H
  C150     1.0000 0.90065  0.76930  0.51030  Biso   1.000  C
  H91      1.0000 0.89800  0.80090  0.51180  Biso   1.000  H
  C151     1.0000 0.89103  0.74080  0.48680  Biso   1.000  C
  H92      1.0000 0.88060  0.75270  0.47280  Biso   1.000  H
  C152     1.0000 0.10470  0.44440  0.30350  Biso   1.000  C
  H93      1.0000 0.11380  0.46350  0.31580  Biso   1.000  H
  C153     1.0000 0.97237  0.77130  0.52190  Biso   1.000  C
  H94      1.0000 0.97850  0.77170  0.49370  Biso   1.000  H
  C154     1.0000 0.88797  0.89140  0.83480  Biso   1.000  C
  H95      1.0000 0.88500  0.92050  0.82300  Biso   1.000  H
  C155     1.0000 0.92887  0.76400  0.81910  Biso   1.000  C
  H96      1.0000 0.93160  0.76560  0.85040  Biso   1.000  H
  C156     1.0000 0.89762  0.86700  0.65040  Biso   1.000  C
  C157     1.0000 0.98221  0.76800  0.56380  Biso   1.000  C
  C158     1.0000 0.98850  0.75780  0.71940  Biso   1.000  C
  H97      1.0000 0.99300  0.78780  0.72250  Biso   1.000  H
  C159     1.0000 0.07560  0.41690  0.29600  Biso   1.000  C
  H98      1.0000 0.06320  0.42330  0.29920  Biso   1.000  H
  C160     1.0000 0.88506  0.57140  0.63050  Biso   1.000  C
  H99      1.0000 0.88030  0.58710  0.65590  Biso   1.000  H
  C161     1.0000 0.87100  0.91330  0.90160  Biso   1.000  C
  C162     1.0000 0.92198  0.64260  0.71790  Biso   1.000  C
  H100     1.0000 0.91940  0.64700  0.74910  Biso   1.000  H
  C163     1.0000 0.10860  0.40470  0.27480  Biso   1.000  C
  H101     1.0000 0.11950  0.40530  0.25830  Biso   1.000  H
  C164     1.0000 0.88223  0.87980  0.87490  Biso   1.000  C
  C165     1.0000 0.07920  0.37400  0.27710  Biso   1.000  C
  H102     1.0000 0.07040  0.35210  0.27000  Biso   1.000  H
  C166     1.0000 0.88689  0.89440  0.67950  Biso   1.000  C
  C167     1.0000 0.99397  0.67940  0.70410  Biso   1.000  C
  H103     1.0000 0.00200  0.65530  0.69750  Biso   1.000  H
  C168     1.0000 0.89854  0.52860  0.55650  Biso   1.000  C
  H104     1.0000 0.90320  0.51330  0.53080  Biso   1.000  H
  C169     1.0000 0.00958  0.74210  0.52790  Biso   1.000  C
  H105     1.0000 0.00280  0.73090  0.50320  Biso   1.000  H
  C170     1.0000 0.05539  0.75400  0.70680  Biso   1.000  C
  C171     1.0000 0.95421  0.77520  0.60140  Biso   1.000  C
  H106     1.0000 0.94780  0.77590  0.62920  Biso   1.000  H
  C172     1.0000 0.91199  0.61350  0.69380  Biso   1.000  C
  H107     1.0000 0.90250  0.59740  0.70790  Biso   1.000  H
  C173     1.0000 0.95412  0.77390  0.52340  Biso   1.000  C
  H108     1.0000 0.94750  0.77340  0.49600  Biso   1.000  H
  C174     1.0000 0.87037  0.49260  0.54080  Biso   1.000  C
  C175     1.0000 0.97440  0.67160  0.70630  Biso   1.000  C
  H109     1.0000 0.96960  0.64250  0.69950  Biso   1.000  H
  C176     1.0000 0.88079  0.61870  0.46110  Biso   1.000  C
  H110     1.0000 0.88500  0.60620  0.48870  Biso   1.000  H
  C177     1.0000 0.90945  0.55680  0.58210  Biso   1.000  C
  H111     1.0000 0.92140  0.56220  0.57290  Biso   1.000  H
  C178     1.0000 0.87471  0.54420  0.60460  Biso   1.000  C
  H112     1.0000 0.86260  0.54070  0.61300  Biso   1.000  H
  C179     1.0000 0.97028  0.75000  0.72260  Biso   1.000  C
  H113     1.0000 0.96240  0.77470  0.72780  Biso   1.000  H
  C180     1.0000 0.01215  0.78210  0.59580  Biso   1.000  C
  H114     1.0000 0.00660  0.79930  0.61910  Biso   1.000  H
  N9       1.0000 0.08708  0.50770  0.37540  Biso   1.000  N
  N10      1.0000 0.08256  0.64050  0.48770  Biso   1.000  N
  N11      1.0000 0.06694  0.55230  0.34750  Biso   1.000  N
  N12      1.0000 0.09993  0.48940  0.40240  Biso   1.000  N
  H115     1.0000 0.10470  0.46300  0.39540  Biso   1.000  H
  H116     1.0000 0.10340  0.50400  0.42680  Biso   1.000  H
  N13      1.0000 0.09820  0.36730  0.26960  Biso   1.000  N
  N14      1.0000 0.06802  0.51870  0.31840  Biso   1.000  N
  N15      1.0000 0.92593  0.78310  0.56020  Biso   1.000  N
  N16      1.0000 0.94519  0.69930  0.72290  Biso   1.000  N
  O13      1.0000 0.87425  0.47320  0.50710  Biso   1.000  O
  O14      1.0000 0.85494  0.02370  0.75500  Biso   1.000  O
  O15      1.0000 0.84815  0.96300  0.79780  Biso   1.000  O
  O16      1.0000 0.08519  0.74540  0.67700  Biso   1.000  O
  O17      1.0000 0.85787  0.53670  0.36330  Biso   1.000  O
  O18      1.0000 0.07962  0.79850  0.72980  Biso   1.000  O
  O19      1.0000 0.84471  0.59770  0.33350  Biso   1.000  O
  O20      1.0000 0.86728  0.95140  0.88650  Biso   1.000  O
  O21      1.0000 0.86600  0.90070  0.94080  Biso   1.000  O
  O22      1.0000 0.06620  0.75440  0.59690  Biso   1.000  O
  O23      1.0000 0.85255  0.48460  0.55710  Biso   1.000  O
  O24      1.0000 0.06371  0.71720  0.53440  Biso   1.000  O
  Cu4      1.0000 0.08695  0.69067  0.53400  Biso   1.000  Cu
  Cu5      1.0000 0.10446  0.81361  0.73610  Biso   1.000  Cu
  Cu6      1.0000 0.09300  0.77168  0.61606  Biso   1.000  Cu
  C181     1.0000 0.42972  0.12710  0.62830  Biso   1.000  C
  H117     1.0000 0.43310  0.12030  0.59800  Biso   1.000  H
  C182     1.0000 0.36523  0.40760  0.73590  Biso   1.000  C
  H118     1.0000 0.35720  0.39520  0.75750  Biso   1.000  H
  C183     1.0000 0.43940  0.15800  0.65300  Biso   1.000  C
  H119     1.0000 0.44880  0.17410  0.63860  Biso   1.000  H
  C184     1.0000 0.41992  0.20600  0.52970  Biso   1.000  C
  H120     1.0000 0.42960  0.19300  0.54610  Biso   1.000  H
  C185     1.0000 0.37164  0.09170  0.43140  Biso   1.000  C
  H121     1.0000 0.37000  0.06050  0.43890  Biso   1.000  H
  C186     1.0000 0.36600  0.15430  0.38450  Biso   1.000  C
  H122     1.0000 0.35980  0.16700  0.35940  Biso   1.000  H
  C187     1.0000 0.41699  0.31010  0.58930  Biso   1.000  C
  C188     1.0000 0.35578  0.48340  0.76500  Biso   1.000  C
  C189     1.0000 0.37956  0.46670  0.70840  Biso   1.000  C
  H123     1.0000 0.38240  0.49830  0.70950  Biso   1.000  H
  C190     1.0000 0.41636  0.24880  0.53520  Biso   1.000  C
  C191     1.0000 0.44574  0.27700  0.56180  Biso   1.000  C
  C192     1.0000 0.35537  0.07850  0.36250  Biso   1.000  C
  C193     1.0000 0.42234  0.34970  0.60190  Biso   1.000  C
  H124     1.0000 0.43330  0.36010  0.58990  Biso   1.000  H
  C194     1.0000 0.55049  0.21410  0.68620  Biso   1.000  C
  H125     1.0000 0.55910  0.19480  0.67260  Biso   1.000  H
  C195     1.0000 0.58670  0.95140  0.31100  Biso   1.000  C
  C196     1.0000 0.53793  0.25010  0.56380  Biso   1.000  C
  C197     1.0000 0.53016  0.27510  0.59820  Biso   1.000  C
  H126     1.0000 0.53700  0.28690  0.62250  Biso   1.000  H
  C198     1.0000 0.38717  0.34110  0.89580  Biso   1.000  C
  H127     1.0000 0.38360  0.33410  0.92580  Biso   1.000  H
  C199     1.0000 0.40105  0.29430  0.61020  Biso   1.000  C
  H128     1.0000 0.39690  0.26430  0.60420  Biso   1.000  H
  C200     1.0000 0.37436  0.37690  0.70790  Biso   1.000  C
  H129     1.0000 0.37190  0.34520  0.70870  Biso   1.000  H
  C201     1.0000 0.38897  0.44170  0.67980  Biso   1.000  C
  H130     1.0000 0.39710  0.45580  0.65960  Biso   1.000  H
  C202     1.0000 0.52015  0.23420  0.70890  Biso   1.000  C
  C203     1.0000 0.37596  0.18230  0.41270  Biso   1.000  C
  H131     1.0000 0.37720  0.21370  0.40560  Biso   1.000  H
  C204     1.0000 0.36695  0.45290  0.73490  Biso   1.000  C
  C205     1.0000 0.39471  0.19320  0.47990  Biso   1.000  C
  C206     1.0000 0.39811  0.31170  0.86970  Biso   1.000  C
  H132     1.0000 0.40170  0.28310  0.88160  Biso   1.000  H
  C207     1.0000 0.40338  0.32440  0.82760  Biso   1.000  C
  C208     1.0000 0.52866  0.23360  0.52900  Biso   1.000  C
  H133     1.0000 0.53440  0.21690  0.50560  Biso   1.000  H
  C209     1.0000 0.53147  0.20220  0.68600  Biso   1.000  C
  H134     1.0000 0.52700  0.17550  0.67180  Biso   1.000  H
  C210     1.0000 0.41468  0.29030  0.79950  Biso   1.000  C
  C211     1.0000 0.43599  0.16670  0.69810  Biso   1.000  C
  C212     1.0000 0.39832  0.36180  0.80910  Biso   1.000  C
  H135     1.0000 0.40150  0.36900  0.77880  Biso   1.000  H
  C213     1.0000 0.57161  0.14990  0.45260  Biso   1.000  C
  H136     1.0000 0.56520  0.17780  0.45130  Biso   1.000  H
  C214     1.0000 0.41357  0.37800  0.63090  Biso   1.000  C
  H137     1.0000 0.41880  0.40660  0.63790  Biso   1.000  H
  C215     1.0000 0.57987  0.99060  0.33620  Biso   1.000  C
  C216     1.0000 0.57546  0.26870  0.70300  Biso   1.000  C
  C217     1.0000 0.50138  0.26490  0.56030  Biso   1.000  C
  C218     1.0000 0.59133  0.10260  0.48900  Biso   1.000  C
  H138     1.0000 0.59930  0.09720  0.51340  Biso   1.000  H
  C219     1.0000 0.38025  0.02260  0.56900  Biso   1.000  C
  C220     1.0000 0.54455  0.27880  0.73210  Biso   1.000  C
  H139     1.0000 0.54900  0.30260  0.75060  Biso   1.000  H
  C221     1.0000 0.55818  0.23990  0.56390  Biso   1.000  C
  C222     1.0000 0.40338  0.07570  0.61800  Biso   1.000  C
  C223     1.0000 0.36503  0.10660  0.39300  Biso   1.000  C
  C224     1.0000 0.43504  0.23000  0.74900  Biso   1.000  C
  C225     1.0000 0.41176  0.28190  0.75490  Biso   1.000  C
  H140     1.0000 0.40220  0.29740  0.74070  Biso   1.000  H
  C226     1.0000 0.57912  0.07670  0.41990  Biso   1.000  C
  C227     1.0000 0.50002  0.22210  0.71180  Biso   1.000  C
  C228     1.0000 0.58962  0.07170  0.45770  Biso   1.000  C
  H141     1.0000 0.59600  0.04400  0.46120  Biso   1.000  H
  C229     1.0000 0.38407  0.16480  0.45110  Biso   1.000  C
  C230     1.0000 0.46371  0.20610  0.71810  Biso   1.000  C
  C231     1.0000 0.56986  0.11640  0.41750  Biso   1.000  C
  H142     1.0000 0.56220  0.12210  0.39260  Biso   1.000  H
  C232     1.0000 0.39218  0.32080  0.63760  Biso   1.000  C
  H143     1.0000 0.38140  0.30930  0.65020  Biso   1.000  H
  C233     1.0000 0.57766  0.04820  0.38290  Biso   1.000  C
  C234     1.0000 0.41566  0.10670  0.64660  Biso   1.000  C
  C235     1.0000 0.43805  0.23690  0.79080  Biso   1.000  C
  H144     1.0000 0.44790  0.22110  0.80340  Biso   1.000  H
  C236     1.0000 0.42094  0.25500  0.73100  Biso   1.000  C
  H145     1.0000 0.41810  0.25170  0.69990  Biso   1.000  H
  C237     1.0000 0.47339  0.27200  0.60080  Biso   1.000  C
  H146     1.0000 0.47970  0.27300  0.62860  Biso   1.000  H
  C238     1.0000 0.41009  0.17790  0.50030  Biso   1.000  C
  H147     1.0000 0.41410  0.14790  0.49440  Biso   1.000  H
  C239     1.0000 0.52619  0.26890  0.73090  Biso   1.000  C
  H148     1.0000 0.51810  0.28820  0.74650  Biso   1.000  H
  C240     1.0000 0.40065  0.26930  0.51030  Biso   1.000  C
  H149     1.0000 0.39800  0.30090  0.51180  Biso   1.000  H
  C241     1.0000 0.39103  0.24080  0.48680  Biso   1.000  C
  H150     1.0000 0.38060  0.25270  0.47280  Biso   1.000  H
  C242     1.0000 0.60470  0.94440  0.30350  Biso   1.000  C
  H151     1.0000 0.61380  0.96350  0.31580  Biso   1.000  H
  C243     1.0000 0.47237  0.27130  0.52190  Biso   1.000  C
  H152     1.0000 0.47850  0.27170  0.49370  Biso   1.000  H
  C244     1.0000 0.38797  0.39140  0.83480  Biso   1.000  C
  H153     1.0000 0.38500  0.42050  0.82300  Biso   1.000  H
  C245     1.0000 0.42887  0.26400  0.81910  Biso   1.000  C
  H154     1.0000 0.43160  0.26560  0.85040  Biso   1.000  H
  C246     1.0000 0.39762  0.36700  0.65040  Biso   1.000  C
  C247     1.0000 0.48221  0.26800  0.56380  Biso   1.000  C
  C248     1.0000 0.48850  0.25780  0.71940  Biso   1.000  C
  H155     1.0000 0.49300  0.28780  0.72250  Biso   1.000  H
  C249     1.0000 0.57560  0.91690  0.29600  Biso   1.000  C
  H156     1.0000 0.56320  0.92330  0.29920  Biso   1.000  H
  C250     1.0000 0.38506  0.07140  0.63050  Biso   1.000  C
  H157     1.0000 0.38030  0.08710  0.65590  Biso   1.000  H
  C251     1.0000 0.37100  0.41330  0.90160  Biso   1.000  C
  C252     1.0000 0.42198  0.14260  0.71790  Biso   1.000  C
  H158     1.0000 0.41940  0.14700  0.74910  Biso   1.000  H
  C253     1.0000 0.60860  0.90470  0.27480  Biso   1.000  C
  H159     1.0000 0.61950  0.90530  0.25830  Biso   1.000  H
  C254     1.0000 0.38223  0.37980  0.87490  Biso   1.000  C
  C255     1.0000 0.57920  0.87400  0.27710  Biso   1.000  C
  H160     1.0000 0.57040  0.85210  0.27000  Biso   1.000  H
  C256     1.0000 0.38689  0.39440  0.67950  Biso   1.000  C
  C257     1.0000 0.49397  0.17940  0.70410  Biso   1.000  C
  H161     1.0000 0.50200  0.15530  0.69750  Biso   1.000  H
  C258     1.0000 0.39854  0.02860  0.55650  Biso   1.000  C
  H162     1.0000 0.40320  0.01330  0.53080  Biso   1.000  H
  C259     1.0000 0.50958  0.24210  0.52790  Biso   1.000  C
  H163     1.0000 0.50280  0.23090  0.50320  Biso   1.000  H
  C260     1.0000 0.55539  0.25400  0.70680  Biso   1.000  C
  C261     1.0000 0.45421  0.27520  0.60140  Biso   1.000  C
  H164     1.0000 0.44780  0.27590  0.62920  Biso   1.000  H
  C262     1.0000 0.41199  0.11350  0.69380  Biso   1.000  C
  H165     1.0000 0.40250  0.09740  0.70790  Biso   1.000  H
  C263     1.0000 0.45412  0.27390  0.52340  Biso   1.000  C
  H166     1.0000 0.44750  0.27340  0.49600  Biso   1.000  H
  C264     1.0000 0.37037  0.99260  0.54080  Biso   1.000  C
  C265     1.0000 0.47440  0.17160  0.70630  Biso   1.000  C
  H167     1.0000 0.46960  0.14250  0.69950  Biso   1.000  H
  C266     1.0000 0.38079  0.11870  0.46110  Biso   1.000  C
  H168     1.0000 0.38500  0.10620  0.48870  Biso   1.000  H
  C267     1.0000 0.40945  0.05680  0.58210  Biso   1.000  C
  H169     1.0000 0.42140  0.06220  0.57290  Biso   1.000  H
  C268     1.0000 0.37471  0.04420  0.60460  Biso   1.000  C
  H170     1.0000 0.36260  0.04070  0.61300  Biso   1.000  H
  C269     1.0000 0.47028  0.25000  0.72260  Biso   1.000  C
  H171     1.0000 0.46240  0.27470  0.72780  Biso   1.000  H
  C270     1.0000 0.51215  0.28210  0.59580  Biso   1.000  C
  H172     1.0000 0.50660  0.29930  0.61910  Biso   1.000  H
  N17      1.0000 0.58708  0.00770  0.37540  Biso   1.000  N
  N18      1.0000 0.58256  0.14050  0.48770  Biso   1.000  N
  N19      1.0000 0.56694  0.05230  0.34750  Biso   1.000  N
  N20      1.0000 0.59993  0.98940  0.40240  Biso   1.000  N
  H173     1.0000 0.60470  0.96300  0.39540  Biso   1.000  H
  H174     1.0000 0.60340  0.00400  0.42680  Biso   1.000  H
  N21      1.0000 0.59820  0.86730  0.26960  Biso   1.000  N
  N22      1.0000 0.56802  0.01870  0.31840  Biso   1.000  N
  N23      1.0000 0.42593  0.28310  0.56020  Biso   1.000  N
  N24      1.0000 0.44519  0.19930  0.72290  Biso   1.000  N
  O25      1.0000 0.37425  0.97320  0.50710  Biso   1.000  O
  O26      1.0000 0.35494  0.52370  0.75500  Biso   1.000  O
  O27      1.0000 0.34815  0.46300  0.79780  Biso   1.000  O
  O28      1.0000 0.58519  0.24540  0.67700  Biso   1.000  O
  O29      1.0000 0.35787  0.03670  0.36330  Biso   1.000  O
  O30      1.0000 0.57962  0.29850  0.72980  Biso   1.000  O
  O31      1.0000 0.34471  0.09770  0.33350  Biso   1.000  O
  O32      1.0000 0.36728  0.45140  0.88650  Biso   1.000  O
  O33      1.0000 0.36600  0.40070  0.94080  Biso   1.000  O
  O34      1.0000 0.56620  0.25440  0.59690  Biso   1.000  O
  O35      1.0000 0.35255  0.98460  0.55710  Biso   1.000  O
  O36      1.0000 0.56371  0.21720  0.53440  Biso   1.000  O
  Cu7      1.0000 0.58695  0.19067  0.53400  Biso   1.000  Cu
  Cu8      1.0000 0.60446  0.31361  0.73610  Biso   1.000  Cu
  Cu9      1.0000 0.59300  0.27168  0.61606  Biso   1.000  Cu
  C271     1.0000 0.42972  0.62710  0.12830  Biso   1.000  C
  H175     1.0000 0.43310  0.62030  0.09800  Biso   1.000  H
  C272     1.0000 0.36523  0.90760  0.23590  Biso   1.000  C
  H176     1.0000 0.35720  0.89520  0.25750  Biso   1.000  H
  C273     1.0000 0.43940  0.65800  0.15300  Biso   1.000  C
  H177     1.0000 0.44880  0.67410  0.13860  Biso   1.000  H
  C274     1.0000 0.41992  0.70600  0.02970  Biso   1.000  C
  H178     1.0000 0.42960  0.69300  0.04610  Biso   1.000  H
  C275     1.0000 0.37164  0.59170  0.93140  Biso   1.000  C
  H179     1.0000 0.37000  0.56050  0.93890  Biso   1.000  H
  C276     1.0000 0.36600  0.65430  0.88450  Biso   1.000  C
  H180     1.0000 0.35980  0.66700  0.85940  Biso   1.000  H
  C277     1.0000 0.41699  0.81010  0.08930  Biso   1.000  C
  C278     1.0000 0.35578  0.98340  0.26500  Biso   1.000  C
  C279     1.0000 0.37956  0.96670  0.20840  Biso   1.000  C
  H181     1.0000 0.38240  0.99830  0.20950  Biso   1.000  H
  C280     1.0000 0.41636  0.74880  0.03520  Biso   1.000  C
  C281     1.0000 0.44574  0.77700  0.06180  Biso   1.000  C
  C282     1.0000 0.35537  0.57850  0.86250  Biso   1.000  C
  C283     1.0000 0.42234  0.84970  0.10190  Biso   1.000  C
  H182     1.0000 0.43330  0.86010  0.08990  Biso   1.000  H
  C284     1.0000 0.55049  0.71410  0.18620  Biso   1.000  C
  H183     1.0000 0.55910  0.69480  0.17260  Biso   1.000  H
  C285     1.0000 0.58670  0.45140  0.81100  Biso   1.000  C
  C286     1.0000 0.53793  0.75010  0.06380  Biso   1.000  C
  C287     1.0000 0.53016  0.77510  0.09820  Biso   1.000  C
  H184     1.0000 0.53700  0.78690  0.12250  Biso   1.000  H
  C288     1.0000 0.38717  0.84110  0.39580  Biso   1.000  C
  H185     1.0000 0.38360  0.83410  0.42580  Biso   1.000  H
  C289     1.0000 0.40105  0.79430  0.11020  Biso   1.000  C
  H186     1.0000 0.39690  0.76430  0.10420  Biso   1.000  H
  C290     1.0000 0.37436  0.87690  0.20790  Biso   1.000  C
  H187     1.0000 0.37190  0.84520  0.20870  Biso   1.000  H
  C291     1.0000 0.38897  0.94170  0.17980  Biso   1.000  C
  H188     1.0000 0.39710  0.95580  0.15960  Biso   1.000  H
  C292     1.0000 0.52015  0.73420  0.20890  Biso   1.000  C
  C293     1.0000 0.37596  0.68230  0.91270  Biso   1.000  C
  H189     1.0000 0.37720  0.71370  0.90560  Biso   1.000  H
  C294     1.0000 0.36695  0.95290  0.23490  Biso   1.000  C
  C295     1.0000 0.39471  0.69320  0.97990  Biso   1.000  C
  C296     1.0000 0.39811  0.81170  0.36970  Biso   1.000  C
  H190     1.0000 0.40170  0.78310  0.38160  Biso   1.000  H
  C297     1.0000 0.40338  0.82440  0.32760  Biso   1.000  C
  C298     1.0000 0.52866  0.73360  0.02900  Biso   1.000  C
  H191     1.0000 0.53440  0.71690  0.00560  Biso   1.000  H
  C299     1.0000 0.53147  0.70220  0.18600  Biso   1.000  C
  H192     1.0000 0.52700  0.67550  0.17180  Biso   1.000  H
  C300     1.0000 0.41468  0.79030  0.29950  Biso   1.000  C
  C301     1.0000 0.43599  0.66670  0.19810  Biso   1.000  C
  C302     1.0000 0.39832  0.86180  0.30910  Biso   1.000  C
  H193     1.0000 0.40150  0.86900  0.27880  Biso   1.000  H
  C303     1.0000 0.57161  0.64990  0.95260  Biso   1.000  C
  H194     1.0000 0.56520  0.67780  0.95130  Biso   1.000  H
  C304     1.0000 0.41357  0.87800  0.13090  Biso   1.000  C
  H195     1.0000 0.41880  0.90660  0.13790  Biso   1.000  H
  C305     1.0000 0.57987  0.49060  0.83620  Biso   1.000  C
  C306     1.0000 0.57546  0.76870  0.20300  Biso   1.000  C
  C307     1.0000 0.50138  0.76490  0.06030  Biso   1.000  C
  C308     1.0000 0.59133  0.60260  0.98900  Biso   1.000  C
  H196     1.0000 0.59930  0.59720  0.01340  Biso   1.000  H
  C309     1.0000 0.38025  0.52260  0.06900  Biso   1.000  C
  C310     1.0000 0.54455  0.77880  0.23210  Biso   1.000  C
  H197     1.0000 0.54900  0.80260  0.25060  Biso   1.000  H
  C311     1.0000 0.55818  0.73990  0.06390  Biso   1.000  C
  C312     1.0000 0.40338  0.57570  0.11800  Biso   1.000  C
  C313     1.0000 0.36503  0.60660  0.89300  Biso   1.000  C
  C314     1.0000 0.43504  0.73000  0.24900  Biso   1.000  C
  C315     1.0000 0.41176  0.78190  0.25490  Biso   1.000  C
  H198     1.0000 0.40220  0.79740  0.24070  Biso   1.000  H
  C316     1.0000 0.57912  0.57670  0.91990  Biso   1.000  C
  C317     1.0000 0.50002  0.72210  0.21180  Biso   1.000  C
  C318     1.0000 0.58962  0.57170  0.95770  Biso   1.000  C
  H199     1.0000 0.59600  0.54400  0.96120  Biso   1.000  H
  C319     1.0000 0.38407  0.66480  0.95110  Biso   1.000  C
  C320     1.0000 0.46371  0.70610  0.21810  Biso   1.000  C
  C321     1.0000 0.56986  0.61640  0.91750  Biso   1.000  C
  H200     1.0000 0.56220  0.62210  0.89260  Biso   1.000  H
  C322     1.0000 0.39218  0.82080  0.13760  Biso   1.000  C
  H201     1.0000 0.38140  0.80930  0.15020  Biso   1.000  H
  C323     1.0000 0.57766  0.54820  0.88290  Biso   1.000  C
  C324     1.0000 0.41566  0.60670  0.14660  Biso   1.000  C
  C325     1.0000 0.43805  0.73690  0.29080  Biso   1.000  C
  H202     1.0000 0.44790  0.72110  0.30340  Biso   1.000  H
  C326     1.0000 0.42094  0.75500  0.23100  Biso   1.000  C
  H203     1.0000 0.41810  0.75170  0.19990  Biso   1.000  H
  C327     1.0000 0.47339  0.77200  0.10080  Biso   1.000  C
  H204     1.0000 0.47970  0.77300  0.12860  Biso   1.000  H
  C328     1.0000 0.41009  0.67790  0.00030  Biso   1.000  C
  H205     1.0000 0.41410  0.64790  0.99440  Biso   1.000  H
  C329     1.0000 0.52619  0.76890  0.23090  Biso   1.000  C
  H206     1.0000 0.51810  0.78820  0.24650  Biso   1.000  H
  C330     1.0000 0.40065  0.76930  0.01030  Biso   1.000  C
  H207     1.0000 0.39800  0.80090  0.01180  Biso   1.000  H
  C331     1.0000 0.39103  0.74080  0.98680  Biso   1.000  C
  H208     1.0000 0.38060  0.75270  0.97280  Biso   1.000  H
  C332     1.0000 0.60470  0.44440  0.80350  Biso   1.000  C
  H209     1.0000 0.61380  0.46350  0.81580  Biso   1.000  H
  C333     1.0000 0.47237  0.77130  0.02190  Biso   1.000  C
  H210     1.0000 0.47850  0.77170  0.99370  Biso   1.000  H
  C334     1.0000 0.38797  0.89140  0.33480  Biso   1.000  C
  H211     1.0000 0.38500  0.92050  0.32300  Biso   1.000  H
  C335     1.0000 0.42887  0.76400  0.31910  Biso   1.000  C
  H212     1.0000 0.43160  0.76560  0.35040  Biso   1.000  H
  C336     1.0000 0.39762  0.86700  0.15040  Biso   1.000  C
  C337     1.0000 0.48221  0.76800  0.06380  Biso   1.000  C
  C338     1.0000 0.48850  0.75780  0.21940  Biso   1.000  C
  H213     1.0000 0.49300  0.78780  0.22250  Biso   1.000  H
  C339     1.0000 0.57560  0.41690  0.79600  Biso   1.000  C
  H214     1.0000 0.56320  0.42330  0.79920  Biso   1.000  H
  C340     1.0000 0.38506  0.57140  0.13050  Biso   1.000  C
  H215     1.0000 0.38030  0.58710  0.15590  Biso   1.000  H
  C341     1.0000 0.37100  0.91330  0.40160  Biso   1.000  C
  C342     1.0000 0.42198  0.64260  0.21790  Biso   1.000  C
  H216     1.0000 0.41940  0.64700  0.24910  Biso   1.000  H
  C343     1.0000 0.60860  0.40470  0.77480  Biso   1.000  C
  H217     1.0000 0.61950  0.40530  0.75830  Biso   1.000  H
  C344     1.0000 0.38223  0.87980  0.37490  Biso   1.000  C
  C345     1.0000 0.57920  0.37400  0.77710  Biso   1.000  C
  H218     1.0000 0.57040  0.35210  0.77000  Biso   1.000  H
  C346     1.0000 0.38689  0.89440  0.17950  Biso   1.000  C
  C347     1.0000 0.49397  0.67940  0.20410  Biso   1.000  C
  H219     1.0000 0.50200  0.65530  0.19750  Biso   1.000  H
  C348     1.0000 0.39854  0.52860  0.05650  Biso   1.000  C
  H220     1.0000 0.40320  0.51330  0.03080  Biso   1.000  H
  C349     1.0000 0.50958  0.74210  0.02790  Biso   1.000  C
  H221     1.0000 0.50280  0.73090  0.00320  Biso   1.000  H
  C350     1.0000 0.55539  0.75400  0.20680  Biso   1.000  C
  C351     1.0000 0.45421  0.77520  0.10140  Biso   1.000  C
  H222     1.0000 0.44780  0.77590  0.12920  Biso   1.000  H
  C352     1.0000 0.41199  0.61350  0.19380  Biso   1.000  C
  H223     1.0000 0.40250  0.59740  0.20790  Biso   1.000  H
  C353     1.0000 0.45412  0.77390  0.02340  Biso   1.000  C
  H224     1.0000 0.44750  0.77340  0.99600  Biso   1.000  H
  C354     1.0000 0.37037  0.49260  0.04080  Biso   1.000  C
  C355     1.0000 0.47440  0.67160  0.20630  Biso   1.000  C
  H225     1.0000 0.46960  0.64250  0.19950  Biso   1.000  H
  C356     1.0000 0.38079  0.61870  0.96110  Biso   1.000  C
  H226     1.0000 0.38500  0.60620  0.98870  Biso   1.000  H
  C357     1.0000 0.40945  0.55680  0.08210  Biso   1.000  C
  H227     1.0000 0.42140  0.56220  0.07290  Biso   1.000  H
  C358     1.0000 0.37471  0.54420  0.10460  Biso   1.000  C
  H228     1.0000 0.36260  0.54070  0.11300  Biso   1.000  H
  C359     1.0000 0.47028  0.75000  0.22260  Biso   1.000  C
  H229     1.0000 0.46240  0.77470  0.22780  Biso   1.000  H
  C360     1.0000 0.51215  0.78210  0.09580  Biso   1.000  C
  H230     1.0000 0.50660  0.79930  0.11910  Biso   1.000  H
  N25      1.0000 0.58708  0.50770  0.87540  Biso   1.000  N
  N26      1.0000 0.58256  0.64050  0.98770  Biso   1.000  N
  N27      1.0000 0.56694  0.55230  0.84750  Biso   1.000  N
  N28      1.0000 0.59993  0.48940  0.90240  Biso   1.000  N
  H231     1.0000 0.60470  0.46300  0.89540  Biso   1.000  H
  H232     1.0000 0.60340  0.50400  0.92680  Biso   1.000  H
  N29      1.0000 0.59820  0.36730  0.76960  Biso   1.000  N
  N30      1.0000 0.56802  0.51870  0.81840  Biso   1.000  N
  N31      1.0000 0.42593  0.78310  0.06020  Biso   1.000  N
  N32      1.0000 0.44519  0.69930  0.22290  Biso   1.000  N
  O37      1.0000 0.37425  0.47320  0.00710  Biso   1.000  O
  O38      1.0000 0.35494  0.02370  0.25500  Biso   1.000  O
  O39      1.0000 0.34815  0.96300  0.29780  Biso   1.000  O
  O40      1.0000 0.58519  0.74540  0.17700  Biso   1.000  O
  O41      1.0000 0.35787  0.53670  0.86330  Biso   1.000  O
  O42      1.0000 0.57962  0.79850  0.22980  Biso   1.000  O
  O43      1.0000 0.34471  0.59770  0.83350  Biso   1.000  O
  O44      1.0000 0.36728  0.95140  0.38650  Biso   1.000  O
  O45      1.0000 0.36600  0.90070  0.44080  Biso   1.000  O
  O46      1.0000 0.56620  0.75440  0.09690  Biso   1.000  O
  O47      1.0000 0.35255  0.48460  0.05710  Biso   1.000  O
  O48      1.0000 0.56371  0.71720  0.03440  Biso   1.000  O
  Cu10     1.0000 0.58695  0.69067  0.03400  Biso   1.000  Cu
  Cu11     1.0000 0.60446  0.81361  0.23610  Biso   1.000  Cu
  Cu12     1.0000 0.59300  0.77168  0.11606  Biso   1.000  Cu
  C361     1.0000 0.17972  0.12290  0.37830  Biso   1.000  C
  H233     1.0000 0.18310  0.12970  0.34800  Biso   1.000  H
  C362     1.0000 0.11523  0.84240  0.48590  Biso   1.000  C
  H234     1.0000 0.10720  0.85480  0.50750  Biso   1.000  H
  C363     1.0000 0.18940  0.09200  0.40300  Biso   1.000  C
  H235     1.0000 0.19880  0.07590  0.38860  Biso   1.000  H
  C364     1.0000 0.16992  0.04400  0.27970  Biso   1.000  C
  H236     1.0000 0.17960  0.05700  0.29610  Biso   1.000  H
  C365     1.0000 0.12164  0.15830  0.18140  Biso   1.000  C
  H237     1.0000 0.12000  0.18950  0.18890  Biso   1.000  H
  C366     1.0000 0.11600  0.09570  0.13450  Biso   1.000  C
  H238     1.0000 0.10980  0.08300  0.10940  Biso   1.000  H
  C367     1.0000 0.16699  0.93990  0.33930  Biso   1.000  C
  C368     1.0000 0.10578  0.76660  0.51500  Biso   1.000  C
  C369     1.0000 0.12956  0.78330  0.45840  Biso   1.000  C
  H239     1.0000 0.13240  0.75170  0.45950  Biso   1.000  H
  C370     1.0000 0.16636  0.00120  0.28520  Biso   1.000  C
  C371     1.0000 0.19574  0.97300  0.31180  Biso   1.000  C
  C372     1.0000 0.10537  0.17150  0.11250  Biso   1.000  C
  C373     1.0000 0.17234  0.90030  0.35190  Biso   1.000  C
  H240     1.0000 0.18330  0.88990  0.33990  Biso   1.000  H
  C374     1.0000 0.30049  0.03590  0.43620  Biso   1.000  C
  H241     1.0000 0.30910  0.05520  0.42260  Biso   1.000  H
  C375     1.0000 0.33670  0.29860  0.06100  Biso   1.000  C
  C376     1.0000 0.28793  0.99990  0.31380  Biso   1.000  C
  C377     1.0000 0.28016  0.97490  0.34820  Biso   1.000  C
  H242     1.0000 0.28700  0.96310  0.37250  Biso   1.000  H
  C378     1.0000 0.13717  0.90890  0.64580  Biso   1.000  C
  H243     1.0000 0.13360  0.91590  0.67580  Biso   1.000  H
  C379     1.0000 0.15105  0.95570  0.36020  Biso   1.000  C
  H244     1.0000 0.14690  0.98570  0.35420  Biso   1.000  H
  C380     1.0000 0.12436  0.87310  0.45790  Biso   1.000  C
  H245     1.0000 0.12190  0.90480  0.45870  Biso   1.000  H
  C381     1.0000 0.13897  0.80830  0.42980  Biso   1.000  C
  H246     1.0000 0.14710  0.79420  0.40960  Biso   1.000  H
  C382     1.0000 0.27015  0.01580  0.45890  Biso   1.000  C
  C383     1.0000 0.12596  0.06770  0.16270  Biso   1.000  C
  H247     1.0000 0.12720  0.03630  0.15560  Biso   1.000  H
  C384     1.0000 0.11695  0.79710  0.48490  Biso   1.000  C
  C385     1.0000 0.14471  0.05680  0.22990  Biso   1.000  C
  C386     1.0000 0.14811  0.93830  0.61970  Biso   1.000  C
  H248     1.0000 0.15170  0.96690  0.63160  Biso   1.000  H
  C387     1.0000 0.15338  0.92560  0.57760  Biso   1.000  C
  C388     1.0000 0.27866  0.01640  0.27900  Biso   1.000  C
  H249     1.0000 0.28440  0.03310  0.25560  Biso   1.000  H
  C389     1.0000 0.28147  0.04780  0.43600  Biso   1.000  C
  H250     1.0000 0.27700  0.07450  0.42180  Biso   1.000  H
  C390     1.0000 0.16468  0.95970  0.54950  Biso   1.000  C
  C391     1.0000 0.18599  0.08330  0.44810  Biso   1.000  C
  C392     1.0000 0.14832  0.88820  0.55910  Biso   1.000  C
  H251     1.0000 0.15150  0.88100  0.52880  Biso   1.000  H
  C393     1.0000 0.32161  0.10010  0.20260  Biso   1.000  C
  H252     1.0000 0.31520  0.07220  0.20130  Biso   1.000  H
  C394     1.0000 0.16357  0.87200  0.38090  Biso   1.000  C
  H253     1.0000 0.16880  0.84340  0.38790  Biso   1.000  H
  C395     1.0000 0.32987  0.25940  0.08620  Biso   1.000  C
  C396     1.0000 0.32546  0.98130  0.45300  Biso   1.000  C
  C397     1.0000 0.25138  0.98510  0.31030  Biso   1.000  C
  C398     1.0000 0.34133  0.14740  0.23900  Biso   1.000  C
  H254     1.0000 0.34930  0.15280  0.26340  Biso   1.000  H
  C399     1.0000 0.13025  0.22740  0.31900  Biso   1.000  C
  C400     1.0000 0.29455  0.97120  0.48210  Biso   1.000  C
  H255     1.0000 0.29900  0.94740  0.50060  Biso   1.000  H
  C401     1.0000 0.30818  0.01010  0.31390  Biso   1.000  C
  C402     1.0000 0.15338  0.17430  0.36800  Biso   1.000  C
  C403     1.0000 0.11503  0.14340  0.14300  Biso   1.000  C
  C404     1.0000 0.18504  0.02000  0.49900  Biso   1.000  C
  C405     1.0000 0.16176  0.96810  0.50490  Biso   1.000  C
  H256     1.0000 0.15220  0.95260  0.49070  Biso   1.000  H
  C406     1.0000 0.32912  0.17330  0.16990  Biso   1.000  C
  C407     1.0000 0.25002  0.02790  0.46180  Biso   1.000  C
  C408     1.0000 0.33962  0.17830  0.20770  Biso   1.000  C
  H257     1.0000 0.34600  0.20600  0.21120  Biso   1.000  H
  C409     1.0000 0.13407  0.08520  0.20110  Biso   1.000  C
  C410     1.0000 0.21371  0.04390  0.46810  Biso   1.000  C
  C411     1.0000 0.31986  0.13360  0.16750  Biso   1.000  C
  H258     1.0000 0.31220  0.12790  0.14260  Biso   1.000  H
  C412     1.0000 0.14218  0.92920  0.38760  Biso   1.000  C
  H259     1.0000 0.13140  0.94070  0.40020  Biso   1.000  H
  C413     1.0000 0.32766  0.20180  0.13290  Biso   1.000  C
  C414     1.0000 0.16566  0.14330  0.39660  Biso   1.000  C
  C415     1.0000 0.18805  0.01310  0.54080  Biso   1.000  C
  H260     1.0000 0.19790  0.02890  0.55340  Biso   1.000  H
  C416     1.0000 0.17094  0.99500  0.48100  Biso   1.000  C
  H261     1.0000 0.16810  0.99830  0.44990  Biso   1.000  H
  C417     1.0000 0.22339  0.97800  0.35080  Biso   1.000  C
  H262     1.0000 0.22970  0.97700  0.37860  Biso   1.000  H
  C418     1.0000 0.16009  0.07210  0.25030  Biso   1.000  C
  H263     1.0000 0.16410  0.10210  0.24440  Biso   1.000  H
  C419     1.0000 0.27619  0.98110  0.48090  Biso   1.000  C
  H264     1.0000 0.26810  0.96180  0.49650  Biso   1.000  H
  C420     1.0000 0.15065  0.98070  0.26030  Biso   1.000  C
  H265     1.0000 0.14800  0.94910  0.26180  Biso   1.000  H
  C421     1.0000 0.14103  0.00920  0.23680  Biso   1.000  C
  H266     1.0000 0.13060  0.99730  0.22280  Biso   1.000  H
  C422     1.0000 0.35470  0.30560  0.05350  Biso   1.000  C
  H267     1.0000 0.36380  0.28650  0.06580  Biso   1.000  H
  C423     1.0000 0.22237  0.97870  0.27190  Biso   1.000  C
  H268     1.0000 0.22850  0.97830  0.24370  Biso   1.000  H
  C424     1.0000 0.13797  0.85860  0.58480  Biso   1.000  C
  H269     1.0000 0.13500  0.82950  0.57300  Biso   1.000  H
  C425     1.0000 0.17887  0.98600  0.56910  Biso   1.000  C
  H270     1.0000 0.18160  0.98440  0.60040  Biso   1.000  H
  C426     1.0000 0.14762  0.88300  0.40040  Biso   1.000  C
  C427     1.0000 0.23221  0.98200  0.31380  Biso   1.000  C
  C428     1.0000 0.23850  0.99220  0.46940  Biso   1.000  C
  H271     1.0000 0.24300  0.96220  0.47250  Biso   1.000  H
  C429     1.0000 0.32560  0.33310  0.04600  Biso   1.000  C
  H272     1.0000 0.31320  0.32670  0.04920  Biso   1.000  H
  C430     1.0000 0.13506  0.17860  0.38050  Biso   1.000  C
  H273     1.0000 0.13030  0.16290  0.40590  Biso   1.000  H
  C431     1.0000 0.12100  0.83670  0.65160  Biso   1.000  C
  C432     1.0000 0.17198  0.10740  0.46790  Biso   1.000  C
  H274     1.0000 0.16940  0.10300  0.49910  Biso   1.000  H
  C433     1.0000 0.35860  0.34530  0.02480  Biso   1.000  C
  H275     1.0000 0.36950  0.34470  0.00830  Biso   1.000  H
  C434     1.0000 0.13223  0.87020  0.62490  Biso   1.000  C
  C435     1.0000 0.32920  0.37600  0.02710  Biso   1.000  C
  H276     1.0000 0.32040  0.39790  0.02000  Biso   1.000  H
  C436     1.0000 0.13689  0.85560  0.42950  Biso   1.000  C
  C437     1.0000 0.24397  0.07060  0.45410  Biso   1.000  C
  H277     1.0000 0.25200  0.09470  0.44750  Biso   1.000  H
  C438     1.0000 0.14854  0.22140  0.30650  Biso   1.000  C
  H278     1.0000 0.15320  0.23670  0.28080  Biso   1.000  H
  C439     1.0000 0.25958  0.00790  0.27790  Biso   1.000  C
  H279     1.0000 0.25280  0.01910  0.25320  Biso   1.000  H
  C440     1.0000 0.30539  0.99600  0.45680  Biso   1.000  C
  C441     1.0000 0.20421  0.97480  0.35140  Biso   1.000  C
  H280     1.0000 0.19780  0.97410  0.37920  Biso   1.000  H
  C442     1.0000 0.16199  0.13650  0.44380  Biso   1.000  C
  H281     1.0000 0.15250  0.15260  0.45790  Biso   1.000  H
  C443     1.0000 0.20412  0.97610  0.27340  Biso   1.000  C
  H282     1.0000 0.19750  0.97660  0.24600  Biso   1.000  H
  C444     1.0000 0.12037  0.25740  0.29080  Biso   1.000  C
  C445     1.0000 0.22440  0.07840  0.45630  Biso   1.000  C
  H283     1.0000 0.21960  0.10750  0.44950  Biso   1.000  H
  C446     1.0000 0.13079  0.13130  0.21110  Biso   1.000  C
  H284     1.0000 0.13500  0.14380  0.23870  Biso   1.000  H
  C447     1.0000 0.15945  0.19320  0.33210  Biso   1.000  C
  H285     1.0000 0.17140  0.18780  0.32290  Biso   1.000  H
  C448     1.0000 0.12471  0.20580  0.35460  Biso   1.000  C
  H286     1.0000 0.11260  0.20930  0.36300  Biso   1.000  H
  C449     1.0000 0.22028  0.00000  0.47260  Biso   1.000  C
  H287     1.0000 0.21240  0.97530  0.47780  Biso   1.000  H
  C450     1.0000 0.26215  0.96790  0.34580  Biso   1.000  C
  H288     1.0000 0.25660  0.95070  0.36910  Biso   1.000  H
  N33      1.0000 0.33708  0.24230  0.12540  Biso   1.000  N
  N34      1.0000 0.33256  0.10950  0.23770  Biso   1.000  N
  N35      1.0000 0.31694  0.19770  0.09750  Biso   1.000  N
  N36      1.0000 0.34993  0.26060  0.15240  Biso   1.000  N
  H289     1.0000 0.35470  0.28700  0.14540  Biso   1.000  H
  H290     1.0000 0.35340  0.24600  0.17680  Biso   1.000  H
  N37      1.0000 0.34820  0.38270  0.01960  Biso   1.000  N
  N38      1.0000 0.31802  0.23130  0.06840  Biso   1.000  N
  N39      1.0000 0.17593  0.96690  0.31020  Biso   1.000  N
  N40      1.0000 0.19519  0.05070  0.47290  Biso   1.000  N
  O49      1.0000 0.12425  0.27680  0.25710  Biso   1.000  O
  O50      1.0000 0.10494  0.72630  0.50500  Biso   1.000  O
  O51      1.0000 0.09815  0.78700  0.54780  Biso   1.000  O
  O52      1.0000 0.33519  0.00460  0.42700  Biso   1.000  O
  O53      1.0000 0.10787  0.21330  0.11330  Biso   1.000  O
  O54      1.0000 0.32962  0.95150  0.47980  Biso   1.000  O
  O55      1.0000 0.09471  0.15230  0.08350  Biso   1.000  O
  O56      1.0000 0.11728  0.79860  0.63650  Biso   1.000  O
  O57      1.0000 0.11600  0.84930  0.69080  Biso   1.000  O
  O58      1.0000 0.31620  0.99560  0.34690  Biso   1.000  O
  O59      1.0000 0.10255  0.26540  0.30710  Biso   1.000  O
  O60      1.0000 0.31371  0.03280  0.28440  Biso   1.000  O
  Cu13     1.0000 0.33695  0.05933  0.28400  Biso   1.000  Cu
  Cu14     1.0000 0.35446  0.93639  0.48610  Biso   1.000  Cu
  Cu15     1.0000 0.34300  0.97832  0.36606  Biso   1.000  Cu
  C451     1.0000 0.17972  0.62290  0.87830  Biso   1.000  C
  H291     1.0000 0.18310  0.62970  0.84800  Biso   1.000  H
  C452     1.0000 0.11523  0.34240  0.98590  Biso   1.000  C
  H292     1.0000 0.10720  0.35480  0.00750  Biso   1.000  H
  C453     1.0000 0.18940  0.59200  0.90300  Biso   1.000  C
  H293     1.0000 0.19880  0.57590  0.88860  Biso   1.000  H
  C454     1.0000 0.16992  0.54400  0.77970  Biso   1.000  C
  H294     1.0000 0.17960  0.55700  0.79610  Biso   1.000  H
  C455     1.0000 0.12164  0.65830  0.68140  Biso   1.000  C
  H295     1.0000 0.12000  0.68950  0.68890  Biso   1.000  H
  C456     1.0000 0.11600  0.59570  0.63450  Biso   1.000  C
  H296     1.0000 0.10980  0.58300  0.60940  Biso   1.000  H
  C457     1.0000 0.16699  0.43990  0.83930  Biso   1.000  C
  C458     1.0000 0.10578  0.26660  0.01500  Biso   1.000  C
  C459     1.0000 0.12956  0.28330  0.95840  Biso   1.000  C
  H297     1.0000 0.13240  0.25170  0.95950  Biso   1.000  H
  C460     1.0000 0.16636  0.50120  0.78520  Biso   1.000  C
  C461     1.0000 0.19574  0.47300  0.81180  Biso   1.000  C
  C462     1.0000 0.10537  0.67150  0.61250  Biso   1.000  C
  C463     1.0000 0.17234  0.40030  0.85190  Biso   1.000  C
  H298     1.0000 0.18330  0.38990  0.83990  Biso   1.000  H
  C464     1.0000 0.30049  0.53590  0.93620  Biso   1.000  C
  H299     1.0000 0.30910  0.55520  0.92260  Biso   1.000  H
  C465     1.0000 0.33670  0.79860  0.56100  Biso   1.000  C
  C466     1.0000 0.28793  0.49990  0.81380  Biso   1.000  C
  C467     1.0000 0.28016  0.47490  0.84820  Biso   1.000  C
  H300     1.0000 0.28700  0.46310  0.87250  Biso   1.000  H
  C468     1.0000 0.13717  0.40890  0.14580  Biso   1.000  C
  H301     1.0000 0.13360  0.41590  0.17580  Biso   1.000  H
  C469     1.0000 0.15105  0.45570  0.86020  Biso   1.000  C
  H302     1.0000 0.14690  0.48570  0.85420  Biso   1.000  H
  C470     1.0000 0.12436  0.37310  0.95790  Biso   1.000  C
  H303     1.0000 0.12190  0.40480  0.95870  Biso   1.000  H
  C471     1.0000 0.13897  0.30830  0.92980  Biso   1.000  C
  H304     1.0000 0.14710  0.29420  0.90960  Biso   1.000  H
  C472     1.0000 0.27015  0.51580  0.95890  Biso   1.000  C
  C473     1.0000 0.12596  0.56770  0.66270  Biso   1.000  C
  H305     1.0000 0.12720  0.53630  0.65560  Biso   1.000  H
  C474     1.0000 0.11695  0.29710  0.98490  Biso   1.000  C
  C475     1.0000 0.14471  0.55680  0.72990  Biso   1.000  C
  C476     1.0000 0.14811  0.43830  0.11970  Biso   1.000  C
  H306     1.0000 0.15170  0.46690  0.13160  Biso   1.000  H
  C477     1.0000 0.15338  0.42560  0.07760  Biso   1.000  C
  C478     1.0000 0.27866  0.51640  0.77900  Biso   1.000  C
  H307     1.0000 0.28440  0.53310  0.75560  Biso   1.000  H
  C479     1.0000 0.28147  0.54780  0.93600  Biso   1.000  C
  H308     1.0000 0.27700  0.57450  0.92180  Biso   1.000  H
  C480     1.0000 0.16468  0.45970  0.04950  Biso   1.000  C
  C481     1.0000 0.18599  0.58330  0.94810  Biso   1.000  C
  C482     1.0000 0.14832  0.38820  0.05910  Biso   1.000  C
  H309     1.0000 0.15150  0.38100  0.02880  Biso   1.000  H
  C483     1.0000 0.32161  0.60010  0.70260  Biso   1.000  C
  H310     1.0000 0.31520  0.57220  0.70130  Biso   1.000  H
  C484     1.0000 0.16357  0.37200  0.88090  Biso   1.000  C
  H311     1.0000 0.16880  0.34340  0.88790  Biso   1.000  H
  C485     1.0000 0.32987  0.75940  0.58620  Biso   1.000  C
  C486     1.0000 0.32546  0.48130  0.95300  Biso   1.000  C
  C487     1.0000 0.25138  0.48510  0.81030  Biso   1.000  C
  C488     1.0000 0.34133  0.64740  0.73900  Biso   1.000  C
  H312     1.0000 0.34930  0.65280  0.76340  Biso   1.000  H
  C489     1.0000 0.13025  0.72740  0.81900  Biso   1.000  C
  C490     1.0000 0.29455  0.47120  0.98210  Biso   1.000  C
  H313     1.0000 0.29900  0.44740  0.00060  Biso   1.000  H
  C491     1.0000 0.30818  0.51010  0.81390  Biso   1.000  C
  C492     1.0000 0.15338  0.67430  0.86800  Biso   1.000  C
  C493     1.0000 0.11503  0.64340  0.64300  Biso   1.000  C
  C494     1.0000 0.18504  0.52000  0.99900  Biso   1.000  C
  C495     1.0000 0.16176  0.46810  0.00490  Biso   1.000  C
  H314     1.0000 0.15220  0.45260  0.99070  Biso   1.000  H
  C496     1.0000 0.32912  0.67330  0.66990  Biso   1.000  C
  C497     1.0000 0.25002  0.52790  0.96180  Biso   1.000  C
  C498     1.0000 0.33962  0.67830  0.70770  Biso   1.000  C
  H315     1.0000 0.34600  0.70600  0.71120  Biso   1.000  H
  C499     1.0000 0.13407  0.58520  0.70110  Biso   1.000  C
  C500     1.0000 0.21371  0.54390  0.96810  Biso   1.000  C
  C501     1.0000 0.31986  0.63360  0.66750  Biso   1.000  C
  H316     1.0000 0.31220  0.62790  0.64260  Biso   1.000  H
  C502     1.0000 0.14218  0.42920  0.88760  Biso   1.000  C
  H317     1.0000 0.13140  0.44070  0.90020  Biso   1.000  H
  C503     1.0000 0.32766  0.70180  0.63290  Biso   1.000  C
  C504     1.0000 0.16566  0.64330  0.89660  Biso   1.000  C
  C505     1.0000 0.18805  0.51310  0.04080  Biso   1.000  C
  H318     1.0000 0.19790  0.52890  0.05340  Biso   1.000  H
  C506     1.0000 0.17094  0.49500  0.98100  Biso   1.000  C
  H319     1.0000 0.16810  0.49830  0.94990  Biso   1.000  H
  C507     1.0000 0.22339  0.47800  0.85080  Biso   1.000  C
  H320     1.0000 0.22970  0.47700  0.87860  Biso   1.000  H
  C508     1.0000 0.16009  0.57210  0.75030  Biso   1.000  C
  H321     1.0000 0.16410  0.60210  0.74440  Biso   1.000  H
  C509     1.0000 0.27619  0.48110  0.98090  Biso   1.000  C
  H322     1.0000 0.26810  0.46180  0.99650  Biso   1.000  H
  C510     1.0000 0.15065  0.48070  0.76030  Biso   1.000  C
  H323     1.0000 0.14800  0.44910  0.76180  Biso   1.000  H
  C511     1.0000 0.14103  0.50920  0.73680  Biso   1.000  C
  H324     1.0000 0.13060  0.49730  0.72280  Biso   1.000  H
  C512     1.0000 0.35470  0.80560  0.55350  Biso   1.000  C
  H325     1.0000 0.36380  0.78650  0.56580  Biso   1.000  H
  C513     1.0000 0.22237  0.47870  0.77190  Biso   1.000  C
  H326     1.0000 0.22850  0.47830  0.74370  Biso   1.000  H
  C514     1.0000 0.13797  0.35860  0.08480  Biso   1.000  C
  H327     1.0000 0.13500  0.32950  0.07300  Biso   1.000  H
  C515     1.0000 0.17887  0.48600  0.06910  Biso   1.000  C
  H328     1.0000 0.18160  0.48440  0.10040  Biso   1.000  H
  C516     1.0000 0.14762  0.38300  0.90040  Biso   1.000  C
  C517     1.0000 0.23221  0.48200  0.81380  Biso   1.000  C
  C518     1.0000 0.23850  0.49220  0.96940  Biso   1.000  C
  H329     1.0000 0.24300  0.46220  0.97250  Biso   1.000  H
  C519     1.0000 0.32560  0.83310  0.54600  Biso   1.000  C
  H330     1.0000 0.31320  0.82670  0.54920  Biso   1.000  H
  C520     1.0000 0.13506  0.67860  0.88050  Biso   1.000  C
  H331     1.0000 0.13030  0.66290  0.90590  Biso   1.000  H
  C521     1.0000 0.12100  0.33670  0.15160  Biso   1.000  C
  C522     1.0000 0.17198  0.60740  0.96790  Biso   1.000  C
  H332     1.0000 0.16940  0.60300  0.99910  Biso   1.000  H
  C523     1.0000 0.35860  0.84530  0.52480  Biso   1.000  C
  H333     1.0000 0.36950  0.84470  0.50830  Biso   1.000  H
  C524     1.0000 0.13223  0.37020  0.12490  Biso   1.000  C
  C525     1.0000 0.32920  0.87600  0.52710  Biso   1.000  C
  H334     1.0000 0.32040  0.89790  0.52000  Biso   1.000  H
  C526     1.0000 0.13689  0.35560  0.92950  Biso   1.000  C
  C527     1.0000 0.24397  0.57060  0.95410  Biso   1.000  C
  H335     1.0000 0.25200  0.59470  0.94750  Biso   1.000  H
  C528     1.0000 0.14854  0.72140  0.80650  Biso   1.000  C
  H336     1.0000 0.15320  0.73670  0.78080  Biso   1.000  H
  C529     1.0000 0.25958  0.50790  0.77790  Biso   1.000  C
  H337     1.0000 0.25280  0.51910  0.75320  Biso   1.000  H
  C530     1.0000 0.30539  0.49600  0.95680  Biso   1.000  C
  C531     1.0000 0.20421  0.47480  0.85140  Biso   1.000  C
  H338     1.0000 0.19780  0.47410  0.87920  Biso   1.000  H
  C532     1.0000 0.16199  0.63650  0.94380  Biso   1.000  C
  H339     1.0000 0.15250  0.65260  0.95790  Biso   1.000  H
  C533     1.0000 0.20412  0.47610  0.77340  Biso   1.000  C
  H340     1.0000 0.19750  0.47660  0.74600  Biso   1.000  H
  C534     1.0000 0.12037  0.75740  0.79080  Biso   1.000  C
  C535     1.0000 0.22440  0.57840  0.95630  Biso   1.000  C
  H341     1.0000 0.21960  0.60750  0.94950  Biso   1.000  H
  C536     1.0000 0.13079  0.63130  0.71110  Biso   1.000  C
  H342     1.0000 0.13500  0.64380  0.73870  Biso   1.000  H
  C537     1.0000 0.15945  0.69320  0.83210  Biso   1.000  C
  H343     1.0000 0.17140  0.68780  0.82290  Biso   1.000  H
  C538     1.0000 0.12471  0.70580  0.85460  Biso   1.000  C
  H344     1.0000 0.11260  0.70930  0.86300  Biso   1.000  H
  C539     1.0000 0.22028  0.50000  0.97260  Biso   1.000  C
  H345     1.0000 0.21240  0.47530  0.97780  Biso   1.000  H
  C540     1.0000 0.26215  0.46790  0.84580  Biso   1.000  C
  H346     1.0000 0.25660  0.45070  0.86910  Biso   1.000  H
  N41      1.0000 0.33708  0.74230  0.62540  Biso   1.000  N
  N42      1.0000 0.33256  0.60950  0.73770  Biso   1.000  N
  N43      1.0000 0.31694  0.69770  0.59750  Biso   1.000  N
  N44      1.0000 0.34993  0.76060  0.65240  Biso   1.000  N
  H347     1.0000 0.35470  0.78700  0.64540  Biso   1.000  H
  H348     1.0000 0.35340  0.74600  0.67680  Biso   1.000  H
  N45      1.0000 0.34820  0.88270  0.51960  Biso   1.000  N
  N46      1.0000 0.31802  0.73130  0.56840  Biso   1.000  N
  N47      1.0000 0.17593  0.46690  0.81020  Biso   1.000  N
  N48      1.0000 0.19519  0.55070  0.97290  Biso   1.000  N
  O61      1.0000 0.12425  0.77680  0.75710  Biso   1.000  O
  O62      1.0000 0.10494  0.22630  0.00500  Biso   1.000  O
  O63      1.0000 0.09815  0.28700  0.04780  Biso   1.000  O
  O64      1.0000 0.33519  0.50460  0.92700  Biso   1.000  O
  O65      1.0000 0.10787  0.71330  0.61330  Biso   1.000  O
  O66      1.0000 0.32962  0.45150  0.97980  Biso   1.000  O
  O67      1.0000 0.09471  0.65230  0.58350  Biso   1.000  O
  O68      1.0000 0.11728  0.29860  0.13650  Biso   1.000  O
  O69      1.0000 0.11600  0.34930  0.19080  Biso   1.000  O
  O70      1.0000 0.31620  0.49560  0.84690  Biso   1.000  O
  O71      1.0000 0.10255  0.76540  0.80710  Biso   1.000  O
  O72      1.0000 0.31371  0.53280  0.78440  Biso   1.000  O
  Cu16     1.0000 0.33695  0.55933  0.78400  Biso   1.000  Cu
  Cu17     1.0000 0.35446  0.43639  0.98610  Biso   1.000  Cu
  Cu18     1.0000 0.34300  0.47832  0.86606  Biso   1.000  Cu
  C541     1.0000 0.67972  0.12290  0.87830  Biso   1.000  C
  H349     1.0000 0.68310  0.12970  0.84800  Biso   1.000  H
  C542     1.0000 0.61523  0.84240  0.98590  Biso   1.000  C
  H350     1.0000 0.60720  0.85480  0.00750  Biso   1.000  H
  C543     1.0000 0.68940  0.09200  0.90300  Biso   1.000  C
  H351     1.0000 0.69880  0.07590  0.88860  Biso   1.000  H
  C544     1.0000 0.66992  0.04400  0.77970  Biso   1.000  C
  H352     1.0000 0.67960  0.05700  0.79610  Biso   1.000  H
  C545     1.0000 0.62164  0.15830  0.68140  Biso   1.000  C
  H353     1.0000 0.62000  0.18950  0.68890  Biso   1.000  H
  C546     1.0000 0.61600  0.09570  0.63450  Biso   1.000  C
  H354     1.0000 0.60980  0.08300  0.60940  Biso   1.000  H
  C547     1.0000 0.66699  0.93990  0.83930  Biso   1.000  C
  C548     1.0000 0.60578  0.76660  0.01500  Biso   1.000  C
  C549     1.0000 0.62956  0.78330  0.95840  Biso   1.000  C
  H355     1.0000 0.63240  0.75170  0.95950  Biso   1.000  H
  C550     1.0000 0.66636  0.00120  0.78520  Biso   1.000  C
  C551     1.0000 0.69574  0.97300  0.81180  Biso   1.000  C
  C552     1.0000 0.60537  0.17150  0.61250  Biso   1.000  C
  C553     1.0000 0.67234  0.90030  0.85190  Biso   1.000  C
  H356     1.0000 0.68330  0.88990  0.83990  Biso   1.000  H
  C554     1.0000 0.80049  0.03590  0.93620  Biso   1.000  C
  H357     1.0000 0.80910  0.05520  0.92260  Biso   1.000  H
  C555     1.0000 0.83670  0.29860  0.56100  Biso   1.000  C
  C556     1.0000 0.78793  0.99990  0.81380  Biso   1.000  C
  C557     1.0000 0.78016  0.97490  0.84820  Biso   1.000  C
  H358     1.0000 0.78700  0.96310  0.87250  Biso   1.000  H
  C558     1.0000 0.63717  0.90890  0.14580  Biso   1.000  C
  H359     1.0000 0.63360  0.91590  0.17580  Biso   1.000  H
  C559     1.0000 0.65105  0.95570  0.86020  Biso   1.000  C
  H360     1.0000 0.64690  0.98570  0.85420  Biso   1.000  H
  C560     1.0000 0.62436  0.87310  0.95790  Biso   1.000  C
  H361     1.0000 0.62190  0.90480  0.95870  Biso   1.000  H
  C561     1.0000 0.63897  0.80830  0.92980  Biso   1.000  C
  H362     1.0000 0.64710  0.79420  0.90960  Biso   1.000  H
  C562     1.0000 0.77015  0.01580  0.95890  Biso   1.000  C
  C563     1.0000 0.62596  0.06770  0.66270  Biso   1.000  C
  H363     1.0000 0.62720  0.03630  0.65560  Biso   1.000  H
  C564     1.0000 0.61695  0.79710  0.98490  Biso   1.000  C
  C565     1.0000 0.64471  0.05680  0.72990  Biso   1.000  C
  C566     1.0000 0.64811  0.93830  0.11970  Biso   1.000  C
  H364     1.0000 0.65170  0.96690  0.13160  Biso   1.000  H
  C567     1.0000 0.65338  0.92560  0.07760  Biso   1.000  C
  C568     1.0000 0.77866  0.01640  0.77900  Biso   1.000  C
  H365     1.0000 0.78440  0.03310  0.75560  Biso   1.000  H
  C569     1.0000 0.78147  0.04780  0.93600  Biso   1.000  C
  H366     1.0000 0.77700  0.07450  0.92180  Biso   1.000  H
  C570     1.0000 0.66468  0.95970  0.04950  Biso   1.000  C
  C571     1.0000 0.68599  0.08330  0.94810  Biso   1.000  C
  C572     1.0000 0.64832  0.88820  0.05910  Biso   1.000  C
  H367     1.0000 0.65150  0.88100  0.02880  Biso   1.000  H
  C573     1.0000 0.82161  0.10010  0.70260  Biso   1.000  C
  H368     1.0000 0.81520  0.07220  0.70130  Biso   1.000  H
  C574     1.0000 0.66357  0.87200  0.88090  Biso   1.000  C
  H369     1.0000 0.66880  0.84340  0.88790  Biso   1.000  H
  C575     1.0000 0.82987  0.25940  0.58620  Biso   1.000  C
  C576     1.0000 0.82546  0.98130  0.95300  Biso   1.000  C
  C577     1.0000 0.75138  0.98510  0.81030  Biso   1.000  C
  C578     1.0000 0.84133  0.14740  0.73900  Biso   1.000  C
  H370     1.0000 0.84930  0.15280  0.76340  Biso   1.000  H
  C579     1.0000 0.63025  0.22740  0.81900  Biso   1.000  C
  C580     1.0000 0.79455  0.97120  0.98210  Biso   1.000  C
  H371     1.0000 0.79900  0.94740  0.00060  Biso   1.000  H
  C581     1.0000 0.80818  0.01010  0.81390  Biso   1.000  C
  C582     1.0000 0.65338  0.17430  0.86800  Biso   1.000  C
  C583     1.0000 0.61503  0.14340  0.64300  Biso   1.000  C
  C584     1.0000 0.68504  0.02000  0.99900  Biso   1.000  C
  C585     1.0000 0.66176  0.96810  0.00490  Biso   1.000  C
  H372     1.0000 0.65220  0.95260  0.99070  Biso   1.000  H
  C586     1.0000 0.82912  0.17330  0.66990  Biso   1.000  C
  C587     1.0000 0.75002  0.02790  0.96180  Biso   1.000  C
  C588     1.0000 0.83962  0.17830  0.70770  Biso   1.000  C
  H373     1.0000 0.84600  0.20600  0.71120  Biso   1.000  H
  C589     1.0000 0.63407  0.08520  0.70110  Biso   1.000  C
  C590     1.0000 0.71371  0.04390  0.96810  Biso   1.000  C
  C591     1.0000 0.81986  0.13360  0.66750  Biso   1.000  C
  H374     1.0000 0.81220  0.12790  0.64260  Biso   1.000  H
  C592     1.0000 0.64218  0.92920  0.88760  Biso   1.000  C
  H375     1.0000 0.63140  0.94070  0.90020  Biso   1.000  H
  C593     1.0000 0.82766  0.20180  0.63290  Biso   1.000  C
  C594     1.0000 0.66566  0.14330  0.89660  Biso   1.000  C
  C595     1.0000 0.68805  0.01310  0.04080  Biso   1.000  C
  H376     1.0000 0.69790  0.02890  0.05340  Biso   1.000  H
  C596     1.0000 0.67094  0.99500  0.98100  Biso   1.000  C
  H377     1.0000 0.66810  0.99830  0.94990  Biso   1.000  H
  C597     1.0000 0.72339  0.97800  0.85080  Biso   1.000  C
  H378     1.0000 0.72970  0.97700  0.87860  Biso   1.000  H
  C598     1.0000 0.66009  0.07210  0.75030  Biso   1.000  C
  H379     1.0000 0.66410  0.10210  0.74440  Biso   1.000  H
  C599     1.0000 0.77619  0.98110  0.98090  Biso   1.000  C
  H380     1.0000 0.76810  0.96180  0.99650  Biso   1.000  H
  C600     1.0000 0.65065  0.98070  0.76030  Biso   1.000  C
  H381     1.0000 0.64800  0.94910  0.76180  Biso   1.000  H
  C601     1.0000 0.64103  0.00920  0.73680  Biso   1.000  C
  H382     1.0000 0.63060  0.99730  0.72280  Biso   1.000  H
  C602     1.0000 0.85470  0.30560  0.55350  Biso   1.000  C
  H383     1.0000 0.86380  0.28650  0.56580  Biso   1.000  H
  C603     1.0000 0.72237  0.97870  0.77190  Biso   1.000  C
  H384     1.0000 0.72850  0.97830  0.74370  Biso   1.000  H
  C604     1.0000 0.63797  0.85860  0.08480  Biso   1.000  C
  H385     1.0000 0.63500  0.82950  0.07300  Biso   1.000  H
  C605     1.0000 0.67887  0.98600  0.06910  Biso   1.000  C
  H386     1.0000 0.68160  0.98440  0.10040  Biso   1.000  H
  C606     1.0000 0.64762  0.88300  0.90040  Biso   1.000  C
  C607     1.0000 0.73221  0.98200  0.81380  Biso   1.000  C
  C608     1.0000 0.73850  0.99220  0.96940  Biso   1.000  C
  H387     1.0000 0.74300  0.96220  0.97250  Biso   1.000  H
  C609     1.0000 0.82560  0.33310  0.54600  Biso   1.000  C
  H388     1.0000 0.81320  0.32670  0.54920  Biso   1.000  H
  C610     1.0000 0.63506  0.17860  0.88050  Biso   1.000  C
  H389     1.0000 0.63030  0.16290  0.90590  Biso   1.000  H
  C611     1.0000 0.62100  0.83670  0.15160  Biso   1.000  C
  C612     1.0000 0.67198  0.10740  0.96790  Biso   1.000  C
  H390     1.0000 0.66940  0.10300  0.99910  Biso   1.000  H
  C613     1.0000 0.85860  0.34530  0.52480  Biso   1.000  C
  H391     1.0000 0.86950  0.34470  0.50830  Biso   1.000  H
  C614     1.0000 0.63223  0.87020  0.12490  Biso   1.000  C
  C615     1.0000 0.82920  0.37600  0.52710  Biso   1.000  C
  H392     1.0000 0.82040  0.39790  0.52000  Biso   1.000  H
  C616     1.0000 0.63689  0.85560  0.92950  Biso   1.000  C
  C617     1.0000 0.74397  0.07060  0.95410  Biso   1.000  C
  H393     1.0000 0.75200  0.09470  0.94750  Biso   1.000  H
  C618     1.0000 0.64854  0.22140  0.80650  Biso   1.000  C
  H394     1.0000 0.65320  0.23670  0.78080  Biso   1.000  H
  C619     1.0000 0.75958  0.00790  0.77790  Biso   1.000  C
  H395     1.0000 0.75280  0.01910  0.75320  Biso   1.000  H
  C620     1.0000 0.80539  0.99600  0.95680  Biso   1.000  C
  C621     1.0000 0.70421  0.97480  0.85140  Biso   1.000  C
  H396     1.0000 0.69780  0.97410  0.87920  Biso   1.000  H
  C622     1.0000 0.66199  0.13650  0.94380  Biso   1.000  C
  H397     1.0000 0.65250  0.15260  0.95790  Biso   1.000  H
  C623     1.0000 0.70412  0.97610  0.77340  Biso   1.000  C
  H398     1.0000 0.69750  0.97660  0.74600  Biso   1.000  H
  C624     1.0000 0.62037  0.25740  0.79080  Biso   1.000  C
  C625     1.0000 0.72440  0.07840  0.95630  Biso   1.000  C
  H399     1.0000 0.71960  0.10750  0.94950  Biso   1.000  H
  C626     1.0000 0.63079  0.13130  0.71110  Biso   1.000  C
  H400     1.0000 0.63500  0.14380  0.73870  Biso   1.000  H
  C627     1.0000 0.65945  0.19320  0.83210  Biso   1.000  C
  H401     1.0000 0.67140  0.18780  0.82290  Biso   1.000  H
  C628     1.0000 0.62471  0.20580  0.85460  Biso   1.000  C
  H402     1.0000 0.61260  0.20930  0.86300  Biso   1.000  H
  C629     1.0000 0.72028  0.00000  0.97260  Biso   1.000  C
  H403     1.0000 0.71240  0.97530  0.97780  Biso   1.000  H
  C630     1.0000 0.76215  0.96790  0.84580  Biso   1.000  C
  H404     1.0000 0.75660  0.95070  0.86910  Biso   1.000  H
  N49      1.0000 0.83708  0.24230  0.62540  Biso   1.000  N
  N50      1.0000 0.83256  0.10950  0.73770  Biso   1.000  N
  N51      1.0000 0.81694  0.19770  0.59750  Biso   1.000  N
  N52      1.0000 0.84993  0.26060  0.65240  Biso   1.000  N
  H405     1.0000 0.85470  0.28700  0.64540  Biso   1.000  H
  H406     1.0000 0.85340  0.24600  0.67680  Biso   1.000  H
  N53      1.0000 0.84820  0.38270  0.51960  Biso   1.000  N
  N54      1.0000 0.81802  0.23130  0.56840  Biso   1.000  N
  N55      1.0000 0.67593  0.96690  0.81020  Biso   1.000  N
  N56      1.0000 0.69519  0.05070  0.97290  Biso   1.000  N
  O73      1.0000 0.62425  0.27680  0.75710  Biso   1.000  O
  O74      1.0000 0.60494  0.72630  0.00500  Biso   1.000  O
  O75      1.0000 0.59815  0.78700  0.04780  Biso   1.000  O
  O76      1.0000 0.83519  0.00460  0.92700  Biso   1.000  O
  O77      1.0000 0.60787  0.21330  0.61330  Biso   1.000  O
  O78      1.0000 0.82962  0.95150  0.97980  Biso   1.000  O
  O79      1.0000 0.59471  0.15230  0.58350  Biso   1.000  O
  O80      1.0000 0.61728  0.79860  0.13650  Biso   1.000  O
  O81      1.0000 0.61600  0.84930  0.19080  Biso   1.000  O
  O82      1.0000 0.81620  0.99560  0.84690  Biso   1.000  O
  O83      1.0000 0.60255  0.26540  0.80710  Biso   1.000  O
  O84      1.0000 0.81371  0.03280  0.78440  Biso   1.000  O
  Cu19     1.0000 0.83695  0.05933  0.78400  Biso   1.000  Cu
  Cu20     1.0000 0.85446  0.93639  0.98610  Biso   1.000  Cu
  Cu21     1.0000 0.84300  0.97832  0.86606  Biso   1.000  Cu
  C631     1.0000 0.67972  0.62290  0.37830  Biso   1.000  C
  H407     1.0000 0.68310  0.62970  0.34800  Biso   1.000  H
  C632     1.0000 0.61523  0.34240  0.48590  Biso   1.000  C
  H408     1.0000 0.60720  0.35480  0.50750  Biso   1.000  H
  C633     1.0000 0.68940  0.59200  0.40300  Biso   1.000  C
  H409     1.0000 0.69880  0.57590  0.38860  Biso   1.000  H
  C634     1.0000 0.66992  0.54400  0.27970  Biso   1.000  C
  H410     1.0000 0.67960  0.55700  0.29610  Biso   1.000  H
  C635     1.0000 0.62164  0.65830  0.18140  Biso   1.000  C
  H411     1.0000 0.62000  0.68950  0.18890  Biso   1.000  H
  C636     1.0000 0.61600  0.59570  0.13450  Biso   1.000  C
  H412     1.0000 0.60980  0.58300  0.10940  Biso   1.000  H
  C637     1.0000 0.66699  0.43990  0.33930  Biso   1.000  C
  C638     1.0000 0.60578  0.26660  0.51500  Biso   1.000  C
  C639     1.0000 0.62956  0.28330  0.45840  Biso   1.000  C
  H413     1.0000 0.63240  0.25170  0.45950  Biso   1.000  H
  C640     1.0000 0.66636  0.50120  0.28520  Biso   1.000  C
  C641     1.0000 0.69574  0.47300  0.31180  Biso   1.000  C
  C642     1.0000 0.60537  0.67150  0.11250  Biso   1.000  C
  C643     1.0000 0.67234  0.40030  0.35190  Biso   1.000  C
  H414     1.0000 0.68330  0.38990  0.33990  Biso   1.000  H
  C644     1.0000 0.80049  0.53590  0.43620  Biso   1.000  C
  H415     1.0000 0.80910  0.55520  0.42260  Biso   1.000  H
  C645     1.0000 0.83670  0.79860  0.06100  Biso   1.000  C
  C646     1.0000 0.78793  0.49990  0.31380  Biso   1.000  C
  C647     1.0000 0.78016  0.47490  0.34820  Biso   1.000  C
  H416     1.0000 0.78700  0.46310  0.37250  Biso   1.000  H
  C648     1.0000 0.63717  0.40890  0.64580  Biso   1.000  C
  H417     1.0000 0.63360  0.41590  0.67580  Biso   1.000  H
  C649     1.0000 0.65105  0.45570  0.36020  Biso   1.000  C
  H418     1.0000 0.64690  0.48570  0.35420  Biso   1.000  H
  C650     1.0000 0.62436  0.37310  0.45790  Biso   1.000  C
  H419     1.0000 0.62190  0.40480  0.45870  Biso   1.000  H
  C651     1.0000 0.63897  0.30830  0.42980  Biso   1.000  C
  H420     1.0000 0.64710  0.29420  0.40960  Biso   1.000  H
  C652     1.0000 0.77015  0.51580  0.45890  Biso   1.000  C
  C653     1.0000 0.62596  0.56770  0.16270  Biso   1.000  C
  H421     1.0000 0.62720  0.53630  0.15560  Biso   1.000  H
  C654     1.0000 0.61695  0.29710  0.48490  Biso   1.000  C
  C655     1.0000 0.64471  0.55680  0.22990  Biso   1.000  C
  C656     1.0000 0.64811  0.43830  0.61970  Biso   1.000  C
  H422     1.0000 0.65170  0.46690  0.63160  Biso   1.000  H
  C657     1.0000 0.65338  0.42560  0.57760  Biso   1.000  C
  C658     1.0000 0.77866  0.51640  0.27900  Biso   1.000  C
  H423     1.0000 0.78440  0.53310  0.25560  Biso   1.000  H
  C659     1.0000 0.78147  0.54780  0.43600  Biso   1.000  C
  H424     1.0000 0.77700  0.57450  0.42180  Biso   1.000  H
  C660     1.0000 0.66468  0.45970  0.54950  Biso   1.000  C
  C661     1.0000 0.68599  0.58330  0.44810  Biso   1.000  C
  C662     1.0000 0.64832  0.38820  0.55910  Biso   1.000  C
  H425     1.0000 0.65150  0.38100  0.52880  Biso   1.000  H
  C663     1.0000 0.82161  0.60010  0.20260  Biso   1.000  C
  H426     1.0000 0.81520  0.57220  0.20130  Biso   1.000  H
  C664     1.0000 0.66357  0.37200  0.38090  Biso   1.000  C
  H427     1.0000 0.66880  0.34340  0.38790  Biso   1.000  H
  C665     1.0000 0.82987  0.75940  0.08620  Biso   1.000  C
  C666     1.0000 0.82546  0.48130  0.45300  Biso   1.000  C
  C667     1.0000 0.75138  0.48510  0.31030  Biso   1.000  C
  C668     1.0000 0.84133  0.64740  0.23900  Biso   1.000  C
  H428     1.0000 0.84930  0.65280  0.26340  Biso   1.000  H
  C669     1.0000 0.63025  0.72740  0.31900  Biso   1.000  C
  C670     1.0000 0.79455  0.47120  0.48210  Biso   1.000  C
  H429     1.0000 0.79900  0.44740  0.50060  Biso   1.000  H
  C671     1.0000 0.80818  0.51010  0.31390  Biso   1.000  C
  C672     1.0000 0.65338  0.67430  0.36800  Biso   1.000  C
  C673     1.0000 0.61503  0.64340  0.14300  Biso   1.000  C
  C674     1.0000 0.68504  0.52000  0.49900  Biso   1.000  C
  C675     1.0000 0.66176  0.46810  0.50490  Biso   1.000  C
  H430     1.0000 0.65220  0.45260  0.49070  Biso   1.000  H
  C676     1.0000 0.82912  0.67330  0.16990  Biso   1.000  C
  C677     1.0000 0.75002  0.52790  0.46180  Biso   1.000  C
  C678     1.0000 0.83962  0.67830  0.20770  Biso   1.000  C
  H431     1.0000 0.84600  0.70600  0.21120  Biso   1.000  H
  C679     1.0000 0.63407  0.58520  0.20110  Biso   1.000  C
  C680     1.0000 0.71371  0.54390  0.46810  Biso   1.000  C
  C681     1.0000 0.81986  0.63360  0.16750  Biso   1.000  C
  H432     1.0000 0.81220  0.62790  0.14260  Biso   1.000  H
  C682     1.0000 0.64218  0.42920  0.38760  Biso   1.000  C
  H433     1.0000 0.63140  0.44070  0.40020  Biso   1.000  H
  C683     1.0000 0.82766  0.70180  0.13290  Biso   1.000  C
  C684     1.0000 0.66566  0.64330  0.39660  Biso   1.000  C
  C685     1.0000 0.68805  0.51310  0.54080  Biso   1.000  C
  H434     1.0000 0.69790  0.52890  0.55340  Biso   1.000  H
  C686     1.0000 0.67094  0.49500  0.48100  Biso   1.000  C
  H435     1.0000 0.66810  0.49830  0.44990  Biso   1.000  H
  C687     1.0000 0.72339  0.47800  0.35080  Biso   1.000  C
  H436     1.0000 0.72970  0.47700  0.37860  Biso   1.000  H
  C688     1.0000 0.66009  0.57210  0.25030  Biso   1.000  C
  H437     1.0000 0.66410  0.60210  0.24440  Biso   1.000  H
  C689     1.0000 0.77619  0.48110  0.48090  Biso   1.000  C
  H438     1.0000 0.76810  0.46180  0.49650  Biso   1.000  H
  C690     1.0000 0.65065  0.48070  0.26030  Biso   1.000  C
  H439     1.0000 0.64800  0.44910  0.26180  Biso   1.000  H
  C691     1.0000 0.64103  0.50920  0.23680  Biso   1.000  C
  H440     1.0000 0.63060  0.49730  0.22280  Biso   1.000  H
  C692     1.0000 0.85470  0.80560  0.05350  Biso   1.000  C
  H441     1.0000 0.86380  0.78650  0.06580  Biso   1.000  H
  C693     1.0000 0.72237  0.47870  0.27190  Biso   1.000  C
  H442     1.0000 0.72850  0.47830  0.24370  Biso   1.000  H
  C694     1.0000 0.63797  0.35860  0.58480  Biso   1.000  C
  H443     1.0000 0.63500  0.32950  0.57300  Biso   1.000  H
  C695     1.0000 0.67887  0.48600  0.56910  Biso   1.000  C
  H444     1.0000 0.68160  0.48440  0.60040  Biso   1.000  H
  C696     1.0000 0.64762  0.38300  0.40040  Biso   1.000  C
  C697     1.0000 0.73221  0.48200  0.31380  Biso   1.000  C
  C698     1.0000 0.73850  0.49220  0.46940  Biso   1.000  C
  H445     1.0000 0.74300  0.46220  0.47250  Biso   1.000  H
  C699     1.0000 0.82560  0.83310  0.04600  Biso   1.000  C
  H446     1.0000 0.81320  0.82670  0.04920  Biso   1.000  H
  C700     1.0000 0.63506  0.67860  0.38050  Biso   1.000  C
  H447     1.0000 0.63030  0.66290  0.40590  Biso   1.000  H
  C701     1.0000 0.62100  0.33670  0.65160  Biso   1.000  C
  C702     1.0000 0.67198  0.60740  0.46790  Biso   1.000  C
  H448     1.0000 0.66940  0.60300  0.49910  Biso   1.000  H
  C703     1.0000 0.85860  0.84530  0.02480  Biso   1.000  C
  H449     1.0000 0.86950  0.84470  0.00830  Biso   1.000  H
  C704     1.0000 0.63223  0.37020  0.62490  Biso   1.000  C
  C705     1.0000 0.82920  0.87600  0.02710  Biso   1.000  C
  H450     1.0000 0.82040  0.89790  0.02000  Biso   1.000  H
  C706     1.0000 0.63689  0.35560  0.42950  Biso   1.000  C
  C707     1.0000 0.74397  0.57060  0.45410  Biso   1.000  C
  H451     1.0000 0.75200  0.59470  0.44750  Biso   1.000  H
  C708     1.0000 0.64854  0.72140  0.30650  Biso   1.000  C
  H452     1.0000 0.65320  0.73670  0.28080  Biso   1.000  H
  C709     1.0000 0.75958  0.50790  0.27790  Biso   1.000  C
  H453     1.0000 0.75280  0.51910  0.25320  Biso   1.000  H
  C710     1.0000 0.80539  0.49600  0.45680  Biso   1.000  C
  C711     1.0000 0.70421  0.47480  0.35140  Biso   1.000  C
  H454     1.0000 0.69780  0.47410  0.37920  Biso   1.000  H
  C712     1.0000 0.66199  0.63650  0.44380  Biso   1.000  C
  H455     1.0000 0.65250  0.65260  0.45790  Biso   1.000  H
  C713     1.0000 0.70412  0.47610  0.27340  Biso   1.000  C
  H456     1.0000 0.69750  0.47660  0.24600  Biso   1.000  H
  C714     1.0000 0.62037  0.75740  0.29080  Biso   1.000  C
  C715     1.0000 0.72440  0.57840  0.45630  Biso   1.000  C
  H457     1.0000 0.71960  0.60750  0.44950  Biso   1.000  H
  C716     1.0000 0.63079  0.63130  0.21110  Biso   1.000  C
  H458     1.0000 0.63500  0.64380  0.23870  Biso   1.000  H
  C717     1.0000 0.65945  0.69320  0.33210  Biso   1.000  C
  H459     1.0000 0.67140  0.68780  0.32290  Biso   1.000  H
  C718     1.0000 0.62471  0.70580  0.35460  Biso   1.000  C
  H460     1.0000 0.61260  0.70930  0.36300  Biso   1.000  H
  C719     1.0000 0.72028  0.50000  0.47260  Biso   1.000  C
  H461     1.0000 0.71240  0.47530  0.47780  Biso   1.000  H
  C720     1.0000 0.76215  0.46790  0.34580  Biso   1.000  C
  H462     1.0000 0.75660  0.45070  0.36910  Biso   1.000  H
  N57      1.0000 0.83708  0.74230  0.12540  Biso   1.000  N
  N58      1.0000 0.83256  0.60950  0.23770  Biso   1.000  N
  N59      1.0000 0.81694  0.69770  0.09750  Biso   1.000  N
  N60      1.0000 0.84993  0.76060  0.15240  Biso   1.000  N
  H463     1.0000 0.85470  0.78700  0.14540  Biso   1.000  H
  H464     1.0000 0.85340  0.74600  0.17680  Biso   1.000  H
  N61      1.0000 0.84820  0.88270  0.01960  Biso   1.000  N
  N62      1.0000 0.81802  0.73130  0.06840  Biso   1.000  N
  N63      1.0000 0.67593  0.46690  0.31020  Biso   1.000  N
  N64      1.0000 0.69519  0.55070  0.47290  Biso   1.000  N
  O85      1.0000 0.62425  0.77680  0.25710  Biso   1.000  O
  O86      1.0000 0.60494  0.22630  0.50500  Biso   1.000  O
  O87      1.0000 0.59815  0.28700  0.54780  Biso   1.000  O
  O88      1.0000 0.83519  0.50460  0.42700  Biso   1.000  O
  O89      1.0000 0.60787  0.71330  0.11330  Biso   1.000  O
  O90      1.0000 0.82962  0.45150  0.47980  Biso   1.000  O
  O91      1.0000 0.59471  0.65230  0.08350  Biso   1.000  O
  O92      1.0000 0.61728  0.29860  0.63650  Biso   1.000  O
  O93      1.0000 0.61600  0.34930  0.69080  Biso   1.000  O
  O94      1.0000 0.81620  0.49560  0.34690  Biso   1.000  O
  O95      1.0000 0.60255  0.76540  0.30710  Biso   1.000  O
  O96      1.0000 0.81371  0.53280  0.28440  Biso   1.000  O
  Cu22     1.0000 0.83695  0.55933  0.28400  Biso   1.000  Cu
  Cu23     1.0000 0.85446  0.43639  0.48610  Biso   1.000  Cu
  Cu24     1.0000 0.84300  0.47832  0.36606  Biso   1.000  Cu
  C721     1.0000 0.07028  0.87290  0.12830  Biso   1.000  C
  H465     1.0000 0.06690  0.87970  0.09800  Biso   1.000  H
  C722     1.0000 0.13477  0.59240  0.23590  Biso   1.000  C
  H466     1.0000 0.14280  0.60480  0.25750  Biso   1.000  H
  C723     1.0000 0.06060  0.84200  0.15300  Biso   1.000  C
  H467     1.0000 0.05120  0.82590  0.13860  Biso   1.000  H
  C724     1.0000 0.08008  0.79400  0.02970  Biso   1.000  C
  H468     1.0000 0.07040  0.80700  0.04610  Biso   1.000  H
  C725     1.0000 0.12836  0.90830  0.93140  Biso   1.000  C
  H469     1.0000 0.13000  0.93950  0.93890  Biso   1.000  H
  C726     1.0000 0.13400  0.84570  0.88450  Biso   1.000  C
  H470     1.0000 0.14020  0.83300  0.85940  Biso   1.000  H
  C727     1.0000 0.08301  0.68990  0.08930  Biso   1.000  C
  C728     1.0000 0.14422  0.51660  0.26500  Biso   1.000  C
  C729     1.0000 0.12044  0.53330  0.20840  Biso   1.000  C
  H471     1.0000 0.11760  0.50170  0.20950  Biso   1.000  H
  C730     1.0000 0.08364  0.75120  0.03520  Biso   1.000  C
  C731     1.0000 0.05426  0.72300  0.06180  Biso   1.000  C
  C732     1.0000 0.14463  0.92150  0.86250  Biso   1.000  C
  C733     1.0000 0.07766  0.65030  0.10190  Biso   1.000  C
  H472     1.0000 0.06670  0.63990  0.08990  Biso   1.000  H
  C734     1.0000 0.94951  0.78590  0.18620  Biso   1.000  C
  H473     1.0000 0.94090  0.80520  0.17260  Biso   1.000  H
  C735     1.0000 0.91330  0.04860  0.81100  Biso   1.000  C
  C736     1.0000 0.96207  0.74990  0.06380  Biso   1.000  C
  C737     1.0000 0.96984  0.72490  0.09820  Biso   1.000  C
  H474     1.0000 0.96300  0.71310  0.12250  Biso   1.000  H
  C738     1.0000 0.11283  0.65890  0.39580  Biso   1.000  C
  H475     1.0000 0.11640  0.66590  0.42580  Biso   1.000  H
  C739     1.0000 0.09895  0.70570  0.11020  Biso   1.000  C
  H476     1.0000 0.10310  0.73570  0.10420  Biso   1.000  H
  C740     1.0000 0.12564  0.62310  0.20790  Biso   1.000  C
  H477     1.0000 0.12810  0.65480  0.20870  Biso   1.000  H
  C741     1.0000 0.11103  0.55830  0.17980  Biso   1.000  C
  H478     1.0000 0.10290  0.54420  0.15960  Biso   1.000  H
  C742     1.0000 0.97985  0.76580  0.20890  Biso   1.000  C
  C743     1.0000 0.12404  0.81770  0.91270  Biso   1.000  C
  H479     1.0000 0.12280  0.78630  0.90560  Biso   1.000  H
  C744     1.0000 0.13305  0.54710  0.23490  Biso   1.000  C
  C745     1.0000 0.10529  0.80680  0.97990  Biso   1.000  C
  C746     1.0000 0.10189  0.68830  0.36970  Biso   1.000  C
  H480     1.0000 0.09830  0.71690  0.38160  Biso   1.000  H
  C747     1.0000 0.09662  0.67560  0.32760  Biso   1.000  C
  C748     1.0000 0.97134  0.76640  0.02900  Biso   1.000  C
  H481     1.0000 0.96560  0.78310  0.00560  Biso   1.000  H
  C749     1.0000 0.96853  0.79780  0.18600  Biso   1.000  C
  H482     1.0000 0.97300  0.82450  0.17180  Biso   1.000  H
  C750     1.0000 0.08532  0.70970  0.29950  Biso   1.000  C
  C751     1.0000 0.06401  0.83330  0.19810  Biso   1.000  C
  C752     1.0000 0.10168  0.63820  0.30910  Biso   1.000  C
  H483     1.0000 0.09850  0.63100  0.27880  Biso   1.000  H
  C753     1.0000 0.92839  0.85010  0.95260  Biso   1.000  C
  H484     1.0000 0.93480  0.82220  0.95130  Biso   1.000  H
  C754     1.0000 0.08643  0.62200  0.13090  Biso   1.000  C
  H485     1.0000 0.08120  0.59340  0.13790  Biso   1.000  H
  C755     1.0000 0.92013  0.00940  0.83620  Biso   1.000  C
  C756     1.0000 0.92454  0.73130  0.20300  Biso   1.000  C
  C757     1.0000 0.99862  0.73510  0.06030  Biso   1.000  C
  C758     1.0000 0.90867  0.89740  0.98900  Biso   1.000  C
  H486     1.0000 0.90070  0.90280  0.01340  Biso   1.000  H
  C759     1.0000 0.11975  0.97740  0.06900  Biso   1.000  C
  C760     1.0000 0.95545  0.72120  0.23210  Biso   1.000  C
  H487     1.0000 0.95100  0.69740  0.25060  Biso   1.000  H
  C761     1.0000 0.94182  0.76010  0.06390  Biso   1.000  C
  C762     1.0000 0.09662  0.92430  0.11800  Biso   1.000  C
  C763     1.0000 0.13497  0.89340  0.89300  Biso   1.000  C
  C764     1.0000 0.06496  0.77000  0.24900  Biso   1.000  C
  C765     1.0000 0.08824  0.71810  0.25490  Biso   1.000  C
  H488     1.0000 0.09780  0.70260  0.24070  Biso   1.000  H
  C766     1.0000 0.92088  0.92330  0.91990  Biso   1.000  C
  C767     1.0000 0.99998  0.77790  0.21180  Biso   1.000  C
  C768     1.0000 0.91038  0.92830  0.95770  Biso   1.000  C
  H489     1.0000 0.90400  0.95600  0.96120  Biso   1.000  H
  C769     1.0000 0.11593  0.83520  0.95110  Biso   1.000  C
  C770     1.0000 0.03629  0.79390  0.21810  Biso   1.000  C
  C771     1.0000 0.93014  0.88360  0.91750  Biso   1.000  C
  H490     1.0000 0.93780  0.87790  0.89260  Biso   1.000  H
  C772     1.0000 0.10782  0.67920  0.13760  Biso   1.000  C
  H491     1.0000 0.11860  0.69070  0.15020  Biso   1.000  H
  C773     1.0000 0.92234  0.95180  0.88290  Biso   1.000  C
  C774     1.0000 0.08434  0.89330  0.14660  Biso   1.000  C
  C775     1.0000 0.06195  0.76310  0.29080  Biso   1.000  C
  H492     1.0000 0.05210  0.77890  0.30340  Biso   1.000  H
  C776     1.0000 0.07906  0.74500  0.23100  Biso   1.000  C
  H493     1.0000 0.08190  0.74830  0.19990  Biso   1.000  H
  C777     1.0000 0.02661  0.72800  0.10080  Biso   1.000  C
  H494     1.0000 0.02030  0.72700  0.12860  Biso   1.000  H
  C778     1.0000 0.08991  0.82210  0.00030  Biso   1.000  C
  H495     1.0000 0.08590  0.85210  0.99440  Biso   1.000  H
  C779     1.0000 0.97381  0.73110  0.23090  Biso   1.000  C
  H496     1.0000 0.98190  0.71180  0.24650  Biso   1.000  H
  C780     1.0000 0.09935  0.73070  0.01030  Biso   1.000  C
  H497     1.0000 0.10200  0.69910  0.01180  Biso   1.000  H
  C781     1.0000 0.10897  0.75920  0.98680  Biso   1.000  C
  H498     1.0000 0.11940  0.74730  0.97280  Biso   1.000  H
  C782     1.0000 0.89530  0.05560  0.80350  Biso   1.000  C
  H499     1.0000 0.88620  0.03650  0.81580  Biso   1.000  H
  C783     1.0000 0.02763  0.72870  0.02190  Biso   1.000  C
  H500     1.0000 0.02150  0.72830  0.99370  Biso   1.000  H
  C784     1.0000 0.11203  0.60860  0.33480  Biso   1.000  C
  H501     1.0000 0.11500  0.57950  0.32300  Biso   1.000  H
  C785     1.0000 0.07113  0.73600  0.31910  Biso   1.000  C
  H502     1.0000 0.06840  0.73440  0.35040  Biso   1.000  H
  C786     1.0000 0.10238  0.63300  0.15040  Biso   1.000  C
  C787     1.0000 0.01779  0.73200  0.06380  Biso   1.000  C
  C788     1.0000 0.01150  0.74220  0.21940  Biso   1.000  C
  H503     1.0000 0.00700  0.71220  0.22250  Biso   1.000  H
  C789     1.0000 0.92440  0.08310  0.79600  Biso   1.000  C
  H504     1.0000 0.93680  0.07670  0.79920  Biso   1.000  H
  C790     1.0000 0.11494  0.92860  0.13050  Biso   1.000  C
  H505     1.0000 0.11970  0.91290  0.15590  Biso   1.000  H
  C791     1.0000 0.12900  0.58670  0.40160  Biso   1.000  C
  C792     1.0000 0.07802  0.85740  0.21790  Biso   1.000  C
  H506     1.0000 0.08060  0.85300  0.24910  Biso   1.000  H
  C793     1.0000 0.89140  0.09530  0.77480  Biso   1.000  C
  H507     1.0000 0.88050  0.09470  0.75830  Biso   1.000  H
  C794     1.0000 0.11777  0.62020  0.37490  Biso   1.000  C
  C795     1.0000 0.92080  0.12600  0.77710  Biso   1.000  C
  H508     1.0000 0.92960  0.14790  0.77000  Biso   1.000  H
  C796     1.0000 0.11311  0.60560  0.17950  Biso   1.000  C
  C797     1.0000 0.00603  0.82060  0.20410  Biso   1.000  C
  H509     1.0000 0.99800  0.84470  0.19750  Biso   1.000  H
  C798     1.0000 0.10146  0.97140  0.05650  Biso   1.000  C
  H510     1.0000 0.09680  0.98670  0.03080  Biso   1.000  H
  C799     1.0000 0.99042  0.75790  0.02790  Biso   1.000  C
  H511     1.0000 0.99720  0.76910  0.00320  Biso   1.000  H
  C800     1.0000 0.94461  0.74600  0.20680  Biso   1.000  C
  C801     1.0000 0.04579  0.72480  0.10140  Biso   1.000  C
  H512     1.0000 0.05220  0.72410  0.12920  Biso   1.000  H
  C802     1.0000 0.08801  0.88650  0.19380  Biso   1.000  C
  H513     1.0000 0.09750  0.90260  0.20790  Biso   1.000  H
  C803     1.0000 0.04588  0.72610  0.02340  Biso   1.000  C
  H514     1.0000 0.05250  0.72660  0.99600  Biso   1.000  H
  C804     1.0000 0.12963  0.00740  0.04080  Biso   1.000  C
  C805     1.0000 0.02560  0.82840  0.20630  Biso   1.000  C
  H515     1.0000 0.03040  0.85750  0.19950  Biso   1.000  H
  C806     1.0000 0.11921  0.88130  0.96110  Biso   1.000  C
  H516     1.0000 0.11500  0.89380  0.98870  Biso   1.000  H
  C807     1.0000 0.09055  0.94320  0.08210  Biso   1.000  C
  H517     1.0000 0.07860  0.93780  0.07290  Biso   1.000  H
  C808     1.0000 0.12529  0.95580  0.10460  Biso   1.000  C
  H518     1.0000 0.13740  0.95930  0.11300  Biso   1.000  H
  C809     1.0000 0.02972  0.75000  0.22260  Biso   1.000  C
  H519     1.0000 0.03760  0.72530  0.22780  Biso   1.000  H
  C810     1.0000 0.98785  0.71790  0.09580  Biso   1.000  C
  H520     1.0000 0.99340  0.70070  0.11910  Biso   1.000  H
  N65      1.0000 0.91292  0.99230  0.87540  Biso   1.000  N
  N66      1.0000 0.91744  0.85950  0.98770  Biso   1.000  N
  N67      1.0000 0.93306  0.94770  0.84750  Biso   1.000  N
  N68      1.0000 0.90007  0.01060  0.90240  Biso   1.000  N
  H521     1.0000 0.89530  0.03700  0.89540  Biso   1.000  H
  H522     1.0000 0.89660  0.99600  0.92680  Biso   1.000  H
  N69      1.0000 0.90180  0.13270  0.76960  Biso   1.000  N
  N70      1.0000 0.93198  0.98130  0.81840  Biso   1.000  N
  N71      1.0000 0.07407  0.71690  0.06020  Biso   1.000  N
  N72      1.0000 0.05481  0.80070  0.22290  Biso   1.000  N
  O97      1.0000 0.12575  0.02680  0.00710  Biso   1.000  O
  O98      1.0000 0.14506  0.47630  0.25500  Biso   1.000  O
  O99      1.0000 0.15185  0.53700  0.29780  Biso   1.000  O
  O100     1.0000 0.91481  0.75460  0.17700  Biso   1.000  O
  O101     1.0000 0.14213  0.96330  0.86330  Biso   1.000  O
  O102     1.0000 0.92038  0.70150  0.22980  Biso   1.000  O
  O103     1.0000 0.15529  0.90230  0.83350  Biso   1.000  O
  O104     1.0000 0.13272  0.54860  0.38650  Biso   1.000  O
  O105     1.0000 0.13400  0.59930  0.44080  Biso   1.000  O
  O106     1.0000 0.93380  0.74560  0.09690  Biso   1.000  O
  O107     1.0000 0.14745  0.01540  0.05710  Biso   1.000  O
  O108     1.0000 0.93629  0.78280  0.03440  Biso   1.000  O
  Cu25     1.0000 0.91306  0.80933  0.03400  Biso   1.000  Cu
  Cu26     1.0000 0.89554  0.68639  0.23610  Biso   1.000  Cu
  Cu27     1.0000 0.90700  0.72832  0.11606  Biso   1.000  Cu
  C811     1.0000 0.07028  0.37290  0.62830  Biso   1.000  C
  H523     1.0000 0.06690  0.37970  0.59800  Biso   1.000  H
  C812     1.0000 0.13477  0.09240  0.73590  Biso   1.000  C
  H524     1.0000 0.14280  0.10480  0.75750  Biso   1.000  H
  C813     1.0000 0.06060  0.34200  0.65300  Biso   1.000  C
  H525     1.0000 0.05120  0.32590  0.63860  Biso   1.000  H
  C814     1.0000 0.08008  0.29400  0.52970  Biso   1.000  C
  H526     1.0000 0.07040  0.30700  0.54610  Biso   1.000  H
  C815     1.0000 0.12836  0.40830  0.43140  Biso   1.000  C
  H527     1.0000 0.13000  0.43950  0.43890  Biso   1.000  H
  C816     1.0000 0.13400  0.34570  0.38450  Biso   1.000  C
  H528     1.0000 0.14020  0.33300  0.35940  Biso   1.000  H
  C817     1.0000 0.08301  0.18990  0.58930  Biso   1.000  C
  C818     1.0000 0.14422  0.01660  0.76500  Biso   1.000  C
  C819     1.0000 0.12044  0.03330  0.70840  Biso   1.000  C
  H529     1.0000 0.11760  0.00170  0.70950  Biso   1.000  H
  C820     1.0000 0.08364  0.25120  0.53520  Biso   1.000  C
  C821     1.0000 0.05426  0.22300  0.56180  Biso   1.000  C
  C822     1.0000 0.14463  0.42150  0.36250  Biso   1.000  C
  C823     1.0000 0.07766  0.15030  0.60190  Biso   1.000  C
  H530     1.0000 0.06670  0.13990  0.58990  Biso   1.000  H
  C824     1.0000 0.94951  0.28590  0.68620  Biso   1.000  C
  H531     1.0000 0.94090  0.30520  0.67260  Biso   1.000  H
  C825     1.0000 0.91330  0.54860  0.31100  Biso   1.000  C
  C826     1.0000 0.96207  0.24990  0.56380  Biso   1.000  C
  C827     1.0000 0.96984  0.22490  0.59820  Biso   1.000  C
  H532     1.0000 0.96300  0.21310  0.62250  Biso   1.000  H
  C828     1.0000 0.11283  0.15890  0.89580  Biso   1.000  C
  H533     1.0000 0.11640  0.16590  0.92580  Biso   1.000  H
  C829     1.0000 0.09895  0.20570  0.61020  Biso   1.000  C
  H534     1.0000 0.10310  0.23570  0.60420  Biso   1.000  H
  C830     1.0000 0.12564  0.12310  0.70790  Biso   1.000  C
  H535     1.0000 0.12810  0.15480  0.70870  Biso   1.000  H
  C831     1.0000 0.11103  0.05830  0.67980  Biso   1.000  C
  H536     1.0000 0.10290  0.04420  0.65960  Biso   1.000  H
  C832     1.0000 0.97985  0.26580  0.70890  Biso   1.000  C
  C833     1.0000 0.12404  0.31770  0.41270  Biso   1.000  C
  H537     1.0000 0.12280  0.28630  0.40560  Biso   1.000  H
  C834     1.0000 0.13305  0.04710  0.73490  Biso   1.000  C
  C835     1.0000 0.10529  0.30680  0.47990  Biso   1.000  C
  C836     1.0000 0.10189  0.18830  0.86970  Biso   1.000  C
  H538     1.0000 0.09830  0.21690  0.88160  Biso   1.000  H
  C837     1.0000 0.09662  0.17560  0.82760  Biso   1.000  C
  C838     1.0000 0.97134  0.26640  0.52900  Biso   1.000  C
  H539     1.0000 0.96560  0.28310  0.50560  Biso   1.000  H
  C839     1.0000 0.96853  0.29780  0.68600  Biso   1.000  C
  H540     1.0000 0.97300  0.32450  0.67180  Biso   1.000  H
  C840     1.0000 0.08532  0.20970  0.79950  Biso   1.000  C
  C841     1.0000 0.06401  0.33330  0.69810  Biso   1.000  C
  C842     1.0000 0.10168  0.13820  0.80910  Biso   1.000  C
  H541     1.0000 0.09850  0.13100  0.77880  Biso   1.000  H
  C843     1.0000 0.92839  0.35010  0.45260  Biso   1.000  C
  H542     1.0000 0.93480  0.32220  0.45130  Biso   1.000  H
  C844     1.0000 0.08643  0.12200  0.63090  Biso   1.000  C
  H543     1.0000 0.08120  0.09340  0.63790  Biso   1.000  H
  C845     1.0000 0.92013  0.50940  0.33620  Biso   1.000  C
  C846     1.0000 0.92454  0.23130  0.70300  Biso   1.000  C
  C847     1.0000 0.99862  0.23510  0.56030  Biso   1.000  C
  C848     1.0000 0.90867  0.39740  0.48900  Biso   1.000  C
  H544     1.0000 0.90070  0.40280  0.51340  Biso   1.000  H
  C849     1.0000 0.11975  0.47740  0.56900  Biso   1.000  C
  C850     1.0000 0.95545  0.22120  0.73210  Biso   1.000  C
  H545     1.0000 0.95100  0.19740  0.75060  Biso   1.000  H
  C851     1.0000 0.94182  0.26010  0.56390  Biso   1.000  C
  C852     1.0000 0.09662  0.42430  0.61800  Biso   1.000  C
  C853     1.0000 0.13497  0.39340  0.39300  Biso   1.000  C
  C854     1.0000 0.06496  0.27000  0.74900  Biso   1.000  C
  C855     1.0000 0.08824  0.21810  0.75490  Biso   1.000  C
  H546     1.0000 0.09780  0.20260  0.74070  Biso   1.000  H
  C856     1.0000 0.92088  0.42330  0.41990  Biso   1.000  C
  C857     1.0000 0.99998  0.27790  0.71180  Biso   1.000  C
  C858     1.0000 0.91038  0.42830  0.45770  Biso   1.000  C
  H547     1.0000 0.90400  0.45600  0.46120  Biso   1.000  H
  C859     1.0000 0.11593  0.33520  0.45110  Biso   1.000  C
  C860     1.0000 0.03629  0.29390  0.71810  Biso   1.000  C
  C861     1.0000 0.93014  0.38360  0.41750  Biso   1.000  C
  H548     1.0000 0.93780  0.37790  0.39260  Biso   1.000  H
  C862     1.0000 0.10782  0.17920  0.63760  Biso   1.000  C
  H549     1.0000 0.11860  0.19070  0.65020  Biso   1.000  H
  C863     1.0000 0.92234  0.45180  0.38290  Biso   1.000  C
  C864     1.0000 0.08434  0.39330  0.64660  Biso   1.000  C
  C865     1.0000 0.06195  0.26310  0.79080  Biso   1.000  C
  H550     1.0000 0.05210  0.27890  0.80340  Biso   1.000  H
  C866     1.0000 0.07906  0.24500  0.73100  Biso   1.000  C
  H551     1.0000 0.08190  0.24830  0.69990  Biso   1.000  H
  C867     1.0000 0.02661  0.22800  0.60080  Biso   1.000  C
  H552     1.0000 0.02030  0.22700  0.62860  Biso   1.000  H
  C868     1.0000 0.08991  0.32210  0.50030  Biso   1.000  C
  H553     1.0000 0.08590  0.35210  0.49440  Biso   1.000  H
  C869     1.0000 0.97381  0.23110  0.73090  Biso   1.000  C
  H554     1.0000 0.98190  0.21180  0.74650  Biso   1.000  H
  C870     1.0000 0.09935  0.23070  0.51030  Biso   1.000  C
  H555     1.0000 0.10200  0.19910  0.51180  Biso   1.000  H
  C871     1.0000 0.10897  0.25920  0.48680  Biso   1.000  C
  H556     1.0000 0.11940  0.24730  0.47280  Biso   1.000  H
  C872     1.0000 0.89530  0.55560  0.30350  Biso   1.000  C
  H557     1.0000 0.88620  0.53650  0.31580  Biso   1.000  H
  C873     1.0000 0.02763  0.22870  0.52190  Biso   1.000  C
  H558     1.0000 0.02150  0.22830  0.49370  Biso   1.000  H
  C874     1.0000 0.11203  0.10860  0.83480  Biso   1.000  C
  H559     1.0000 0.11500  0.07950  0.82300  Biso   1.000  H
  C875     1.0000 0.07113  0.23600  0.81910  Biso   1.000  C
  H560     1.0000 0.06840  0.23440  0.85040  Biso   1.000  H
  C876     1.0000 0.10238  0.13300  0.65040  Biso   1.000  C
  C877     1.0000 0.01779  0.23200  0.56380  Biso   1.000  C
  C878     1.0000 0.01150  0.24220  0.71940  Biso   1.000  C
  H561     1.0000 0.00700  0.21220  0.72250  Biso   1.000  H
  C879     1.0000 0.92440  0.58310  0.29600  Biso   1.000  C
  H562     1.0000 0.93680  0.57670  0.29920  Biso   1.000  H
  C880     1.0000 0.11494  0.42860  0.63050  Biso   1.000  C
  H563     1.0000 0.11970  0.41290  0.65590  Biso   1.000  H
  C881     1.0000 0.12900  0.08670  0.90160  Biso   1.000  C
  C882     1.0000 0.07802  0.35740  0.71790  Biso   1.000  C
  H564     1.0000 0.08060  0.35300  0.74910  Biso   1.000  H
  C883     1.0000 0.89140  0.59530  0.27480  Biso   1.000  C
  H565     1.0000 0.88050  0.59470  0.25830  Biso   1.000  H
  C884     1.0000 0.11777  0.12020  0.87490  Biso   1.000  C
  C885     1.0000 0.92080  0.62600  0.27710  Biso   1.000  C
  H566     1.0000 0.92960  0.64790  0.27000  Biso   1.000  H
  C886     1.0000 0.11311  0.10560  0.67950  Biso   1.000  C
  C887     1.0000 0.00603  0.32060  0.70410  Biso   1.000  C
  H567     1.0000 0.99800  0.34470  0.69750  Biso   1.000  H
  C888     1.0000 0.10146  0.47140  0.55650  Biso   1.000  C
  H568     1.0000 0.09680  0.48670  0.53080  Biso   1.000  H
  C889     1.0000 0.99042  0.25790  0.52790  Biso   1.000  C
  H569     1.0000 0.99720  0.26910  0.50320  Biso   1.000  H
  C890     1.0000 0.94461  0.24600  0.70680  Biso   1.000  C
  C891     1.0000 0.04579  0.22480  0.60140  Biso   1.000  C
  H570     1.0000 0.05220  0.22410  0.62920  Biso   1.000  H
  C892     1.0000 0.08801  0.38650  0.69380  Biso   1.000  C
  H571     1.0000 0.09750  0.40260  0.70790  Biso   1.000  H
  C893     1.0000 0.04588  0.22610  0.52340  Biso   1.000  C
  H572     1.0000 0.05250  0.22660  0.49600  Biso   1.000  H
  C894     1.0000 0.12963  0.50740  0.54080  Biso   1.000  C
  C895     1.0000 0.02560  0.32840  0.70630  Biso   1.000  C
  H573     1.0000 0.03040  0.35750  0.69950  Biso   1.000  H
  C896     1.0000 0.11921  0.38130  0.46110  Biso   1.000  C
  H574     1.0000 0.11500  0.39380  0.48870  Biso   1.000  H
  C897     1.0000 0.09055  0.44320  0.58210  Biso   1.000  C
  H575     1.0000 0.07860  0.43780  0.57290  Biso   1.000  H
  C898     1.0000 0.12529  0.45580  0.60460  Biso   1.000  C
  H576     1.0000 0.13740  0.45930  0.61300  Biso   1.000  H
  C899     1.0000 0.02972  0.25000  0.72260  Biso   1.000  C
  H577     1.0000 0.03760  0.22530  0.72780  Biso   1.000  H
  C900     1.0000 0.98785  0.21790  0.59580  Biso   1.000  C
  H578     1.0000 0.99340  0.20070  0.61910  Biso   1.000  H
  N73      1.0000 0.91292  0.49230  0.37540  Biso   1.000  N
  N74      1.0000 0.91744  0.35950  0.48770  Biso   1.000  N
  N75      1.0000 0.93306  0.44770  0.34750  Biso   1.000  N
  N76      1.0000 0.90007  0.51060  0.40240  Biso   1.000  N
  H579     1.0000 0.89530  0.53700  0.39540  Biso   1.000  H
  H580     1.0000 0.89660  0.49600  0.42680  Biso   1.000  H
  N77      1.0000 0.90180  0.63270  0.26960  Biso   1.000  N
  N78      1.0000 0.93198  0.48130  0.31840  Biso   1.000  N
  N79      1.0000 0.07407  0.21690  0.56020  Biso   1.000  N
  N80      1.0000 0.05481  0.30070  0.72290  Biso   1.000  N
  O109     1.0000 0.12575  0.52680  0.50710  Biso   1.000  O
  O110     1.0000 0.14506  0.97630  0.75500  Biso   1.000  O
  O111     1.0000 0.15185  0.03700  0.79780  Biso   1.000  O
  O112     1.0000 0.91481  0.25460  0.67700  Biso   1.000  O
  O113     1.0000 0.14213  0.46330  0.36330  Biso   1.000  O
  O114     1.0000 0.92038  0.20150  0.72980  Biso   1.000  O
  O115     1.0000 0.15529  0.40230  0.33350  Biso   1.000  O
  O116     1.0000 0.13272  0.04860  0.88650  Biso   1.000  O
  O117     1.0000 0.13400  0.09930  0.94080  Biso   1.000  O
  O118     1.0000 0.93380  0.24560  0.59690  Biso   1.000  O
  O119     1.0000 0.14745  0.51540  0.55710  Biso   1.000  O
  O120     1.0000 0.93629  0.28280  0.53440  Biso   1.000  O
  Cu28     1.0000 0.91306  0.30933  0.53400  Biso   1.000  Cu
  Cu29     1.0000 0.89554  0.18639  0.73610  Biso   1.000  Cu
  Cu30     1.0000 0.90700  0.22832  0.61606  Biso   1.000  Cu
  C901     1.0000 0.57028  0.87290  0.62830  Biso   1.000  C
  H581     1.0000 0.56690  0.87970  0.59800  Biso   1.000  H
  C902     1.0000 0.63477  0.59240  0.73590  Biso   1.000  C
  H582     1.0000 0.64280  0.60480  0.75750  Biso   1.000  H
  C903     1.0000 0.56060  0.84200  0.65300  Biso   1.000  C
  H583     1.0000 0.55120  0.82590  0.63860  Biso   1.000  H
  C904     1.0000 0.58008  0.79400  0.52970  Biso   1.000  C
  H584     1.0000 0.57040  0.80700  0.54610  Biso   1.000  H
  C905     1.0000 0.62836  0.90830  0.43140  Biso   1.000  C
  H585     1.0000 0.63000  0.93950  0.43890  Biso   1.000  H
  C906     1.0000 0.63400  0.84570  0.38450  Biso   1.000  C
  H586     1.0000 0.64020  0.83300  0.35940  Biso   1.000  H
  C907     1.0000 0.58301  0.68990  0.58930  Biso   1.000  C
  C908     1.0000 0.64422  0.51660  0.76500  Biso   1.000  C
  C909     1.0000 0.62044  0.53330  0.70840  Biso   1.000  C
  H587     1.0000 0.61760  0.50170  0.70950  Biso   1.000  H
  C910     1.0000 0.58364  0.75120  0.53520  Biso   1.000  C
  C911     1.0000 0.55426  0.72300  0.56180  Biso   1.000  C
  C912     1.0000 0.64463  0.92150  0.36250  Biso   1.000  C
  C913     1.0000 0.57766  0.65030  0.60190  Biso   1.000  C
  H588     1.0000 0.56670  0.63990  0.58990  Biso   1.000  H
  C914     1.0000 0.44951  0.78590  0.68620  Biso   1.000  C
  H589     1.0000 0.44090  0.80520  0.67260  Biso   1.000  H
  C915     1.0000 0.41330  0.04860  0.31100  Biso   1.000  C
  C916     1.0000 0.46207  0.74990  0.56380  Biso   1.000  C
  C917     1.0000 0.46984  0.72490  0.59820  Biso   1.000  C
  H590     1.0000 0.46300  0.71310  0.62250  Biso   1.000  H
  C918     1.0000 0.61283  0.65890  0.89580  Biso   1.000  C
  H591     1.0000 0.61640  0.66590  0.92580  Biso   1.000  H
  C919     1.0000 0.59895  0.70570  0.61020  Biso   1.000  C
  H592     1.0000 0.60310  0.73570  0.60420  Biso   1.000  H
  C920     1.0000 0.62564  0.62310  0.70790  Biso   1.000  C
  H593     1.0000 0.62810  0.65480  0.70870  Biso   1.000  H
  C921     1.0000 0.61103  0.55830  0.67980  Biso   1.000  C
  H594     1.0000 0.60290  0.54420  0.65960  Biso   1.000  H
  C922     1.0000 0.47985  0.76580  0.70890  Biso   1.000  C
  C923     1.0000 0.62404  0.81770  0.41270  Biso   1.000  C
  H595     1.0000 0.62280  0.78630  0.40560  Biso   1.000  H
  C924     1.0000 0.63305  0.54710  0.73490  Biso   1.000  C
  C925     1.0000 0.60529  0.80680  0.47990  Biso   1.000  C
  C926     1.0000 0.60189  0.68830  0.86970  Biso   1.000  C
  H596     1.0000 0.59830  0.71690  0.88160  Biso   1.000  H
  C927     1.0000 0.59662  0.67560  0.82760  Biso   1.000  C
  C928     1.0000 0.47134  0.76640  0.52900  Biso   1.000  C
  H597     1.0000 0.46560  0.78310  0.50560  Biso   1.000  H
  C929     1.0000 0.46853  0.79780  0.68600  Biso   1.000  C
  H598     1.0000 0.47300  0.82450  0.67180  Biso   1.000  H
  C930     1.0000 0.58532  0.70970  0.79950  Biso   1.000  C
  C931     1.0000 0.56401  0.83330  0.69810  Biso   1.000  C
  C932     1.0000 0.60168  0.63820  0.80910  Biso   1.000  C
  H599     1.0000 0.59850  0.63100  0.77880  Biso   1.000  H
  C933     1.0000 0.42839  0.85010  0.45260  Biso   1.000  C
  H600     1.0000 0.43480  0.82220  0.45130  Biso   1.000  H
  C934     1.0000 0.58643  0.62200  0.63090  Biso   1.000  C
  H601     1.0000 0.58120  0.59340  0.63790  Biso   1.000  H
  C935     1.0000 0.42013  0.00940  0.33620  Biso   1.000  C
  C936     1.0000 0.42454  0.73130  0.70300  Biso   1.000  C
  C937     1.0000 0.49862  0.73510  0.56030  Biso   1.000  C
  C938     1.0000 0.40867  0.89740  0.48900  Biso   1.000  C
  H602     1.0000 0.40070  0.90280  0.51340  Biso   1.000  H
  C939     1.0000 0.61975  0.97740  0.56900  Biso   1.000  C
  C940     1.0000 0.45545  0.72120  0.73210  Biso   1.000  C
  H603     1.0000 0.45100  0.69740  0.75060  Biso   1.000  H
  C941     1.0000 0.44182  0.76010  0.56390  Biso   1.000  C
  C942     1.0000 0.59662  0.92430  0.61800  Biso   1.000  C
  C943     1.0000 0.63497  0.89340  0.39300  Biso   1.000  C
  C944     1.0000 0.56496  0.77000  0.74900  Biso   1.000  C
  C945     1.0000 0.58824  0.71810  0.75490  Biso   1.000  C
  H604     1.0000 0.59780  0.70260  0.74070  Biso   1.000  H
  C946     1.0000 0.42088  0.92330  0.41990  Biso   1.000  C
  C947     1.0000 0.49998  0.77790  0.71180  Biso   1.000  C
  C948     1.0000 0.41038  0.92830  0.45770  Biso   1.000  C
  H605     1.0000 0.40400  0.95600  0.46120  Biso   1.000  H
  C949     1.0000 0.61593  0.83520  0.45110  Biso   1.000  C
  C950     1.0000 0.53629  0.79390  0.71810  Biso   1.000  C
  C951     1.0000 0.43014  0.88360  0.41750  Biso   1.000  C
  H606     1.0000 0.43780  0.87790  0.39260  Biso   1.000  H
  C952     1.0000 0.60782  0.67920  0.63760  Biso   1.000  C
  H607     1.0000 0.61860  0.69070  0.65020  Biso   1.000  H
  C953     1.0000 0.42234  0.95180  0.38290  Biso   1.000  C
  C954     1.0000 0.58434  0.89330  0.64660  Biso   1.000  C
  C955     1.0000 0.56195  0.76310  0.79080  Biso   1.000  C
  H608     1.0000 0.55210  0.77890  0.80340  Biso   1.000  H
  C956     1.0000 0.57906  0.74500  0.73100  Biso   1.000  C
  H609     1.0000 0.58190  0.74830  0.69990  Biso   1.000  H
  C957     1.0000 0.52661  0.72800  0.60080  Biso   1.000  C
  H610     1.0000 0.52030  0.72700  0.62860  Biso   1.000  H
  C958     1.0000 0.58991  0.82210  0.50030  Biso   1.000  C
  H611     1.0000 0.58590  0.85210  0.49440  Biso   1.000  H
  C959     1.0000 0.47381  0.73110  0.73090  Biso   1.000  C
  H612     1.0000 0.48190  0.71180  0.74650  Biso   1.000  H
  C960     1.0000 0.59935  0.73070  0.51030  Biso   1.000  C
  H613     1.0000 0.60200  0.69910  0.51180  Biso   1.000  H
  C961     1.0000 0.60897  0.75920  0.48680  Biso   1.000  C
  H614     1.0000 0.61940  0.74730  0.47280  Biso   1.000  H
  C962     1.0000 0.39530  0.05560  0.30350  Biso   1.000  C
  H615     1.0000 0.38620  0.03650  0.31580  Biso   1.000  H
  C963     1.0000 0.52763  0.72870  0.52190  Biso   1.000  C
  H616     1.0000 0.52150  0.72830  0.49370  Biso   1.000  H
  C964     1.0000 0.61203  0.60860  0.83480  Biso   1.000  C
  H617     1.0000 0.61500  0.57950  0.82300  Biso   1.000  H
  C965     1.0000 0.57113  0.73600  0.81910  Biso   1.000  C
  H618     1.0000 0.56840  0.73440  0.85040  Biso   1.000  H
  C966     1.0000 0.60238  0.63300  0.65040  Biso   1.000  C
  C967     1.0000 0.51779  0.73200  0.56380  Biso   1.000  C
  C968     1.0000 0.51150  0.74220  0.71940  Biso   1.000  C
  H619     1.0000 0.50700  0.71220  0.72250  Biso   1.000  H
  C969     1.0000 0.42440  0.08310  0.29600  Biso   1.000  C
  H620     1.0000 0.43680  0.07670  0.29920  Biso   1.000  H
  C970     1.0000 0.61494  0.92860  0.63050  Biso   1.000  C
  H621     1.0000 0.61970  0.91290  0.65590  Biso   1.000  H
  C971     1.0000 0.62900  0.58670  0.90160  Biso   1.000  C
  C972     1.0000 0.57802  0.85740  0.71790  Biso   1.000  C
  H622     1.0000 0.58060  0.85300  0.74910  Biso   1.000  H
  C973     1.0000 0.39140  0.09530  0.27480  Biso   1.000  C
  H623     1.0000 0.38050  0.09470  0.25830  Biso   1.000  H
  C974     1.0000 0.61777  0.62020  0.87490  Biso   1.000  C
  C975     1.0000 0.42080  0.12600  0.27710  Biso   1.000  C
  H624     1.0000 0.42960  0.14790  0.27000  Biso   1.000  H
  C976     1.0000 0.61311  0.60560  0.67950  Biso   1.000  C
  C977     1.0000 0.50603  0.82060  0.70410  Biso   1.000  C
  H625     1.0000 0.49800  0.84470  0.69750  Biso   1.000  H
  C978     1.0000 0.60146  0.97140  0.55650  Biso   1.000  C
  H626     1.0000 0.59680  0.98670  0.53080  Biso   1.000  H
  C979     1.0000 0.49042  0.75790  0.52790  Biso   1.000  C
  H627     1.0000 0.49720  0.76910  0.50320  Biso   1.000  H
  C980     1.0000 0.44461  0.74600  0.70680  Biso   1.000  C
  C981     1.0000 0.54579  0.72480  0.60140  Biso   1.000  C
  H628     1.0000 0.55220  0.72410  0.62920  Biso   1.000  H
  C982     1.0000 0.58801  0.88650  0.69380  Biso   1.000  C
  H629     1.0000 0.59750  0.90260  0.70790  Biso   1.000  H
  C983     1.0000 0.54588  0.72610  0.52340  Biso   1.000  C
  H630     1.0000 0.55250  0.72660  0.49600  Biso   1.000  H
  C984     1.0000 0.62963  0.00740  0.54080  Biso   1.000  C
  C985     1.0000 0.52560  0.82840  0.70630  Biso   1.000  C
  H631     1.0000 0.53040  0.85750  0.69950  Biso   1.000  H
  C986     1.0000 0.61921  0.88130  0.46110  Biso   1.000  C
  H632     1.0000 0.61500  0.89380  0.48870  Biso   1.000  H
  C987     1.0000 0.59055  0.94320  0.58210  Biso   1.000  C
  H633     1.0000 0.57860  0.93780  0.57290  Biso   1.000  H
  C988     1.0000 0.62529  0.95580  0.60460  Biso   1.000  C
  H634     1.0000 0.63740  0.95930  0.61300  Biso   1.000  H
  C989     1.0000 0.52972  0.75000  0.72260  Biso   1.000  C
  H635     1.0000 0.53760  0.72530  0.72780  Biso   1.000  H
  C990     1.0000 0.48785  0.71790  0.59580  Biso   1.000  C
  H636     1.0000 0.49340  0.70070  0.61910  Biso   1.000  H
  N81      1.0000 0.41292  0.99230  0.37540  Biso   1.000  N
  N82      1.0000 0.41744  0.85950  0.48770  Biso   1.000  N
  N83      1.0000 0.43306  0.94770  0.34750  Biso   1.000  N
  N84      1.0000 0.40007  0.01060  0.40240  Biso   1.000  N
  H637     1.0000 0.39530  0.03700  0.39540  Biso   1.000  H
  H638     1.0000 0.39660  0.99600  0.42680  Biso   1.000  H
  N85      1.0000 0.40180  0.13270  0.26960  Biso   1.000  N
  N86      1.0000 0.43198  0.98130  0.31840  Biso   1.000  N
  N87      1.0000 0.57407  0.71690  0.56020  Biso   1.000  N
  N88      1.0000 0.55481  0.80070  0.72290  Biso   1.000  N
  O121     1.0000 0.62575  0.02680  0.50710  Biso   1.000  O
  O122     1.0000 0.64506  0.47630  0.75500  Biso   1.000  O
  O123     1.0000 0.65185  0.53700  0.79780  Biso   1.000  O
  O124     1.0000 0.41481  0.75460  0.67700  Biso   1.000  O
  O125     1.0000 0.64213  0.96330  0.36330  Biso   1.000  O
  O126     1.0000 0.42038  0.70150  0.72980  Biso   1.000  O
  O127     1.0000 0.65529  0.90230  0.33350  Biso   1.000  O
  O128     1.0000 0.63272  0.54860  0.88650  Biso   1.000  O
  O129     1.0000 0.63400  0.59930  0.94080  Biso   1.000  O
  O130     1.0000 0.43380  0.74560  0.59690  Biso   1.000  O
  O131     1.0000 0.64745  0.01540  0.55710  Biso   1.000  O
  O132     1.0000 0.43629  0.78280  0.53440  Biso   1.000  O
  Cu31     1.0000 0.41305  0.80933  0.53400  Biso   1.000  Cu
  Cu32     1.0000 0.39554  0.68639  0.73610  Biso   1.000  Cu
  Cu33     1.0000 0.40700  0.72832  0.61606  Biso   1.000  Cu
  C991     1.0000 0.57028  0.37290  0.12830  Biso   1.000  C
  H639     1.0000 0.56690  0.37970  0.09800  Biso   1.000  H
  C992     1.0000 0.63477  0.09240  0.23590  Biso   1.000  C
  H640     1.0000 0.64280  0.10480  0.25750  Biso   1.000  H
  C993     1.0000 0.56060  0.34200  0.15300  Biso   1.000  C
  H641     1.0000 0.55120  0.32590  0.13860  Biso   1.000  H
  C994     1.0000 0.58008  0.29400  0.02970  Biso   1.000  C
  H642     1.0000 0.57040  0.30700  0.04610  Biso   1.000  H
  C995     1.0000 0.62836  0.40830  0.93140  Biso   1.000  C
  H643     1.0000 0.63000  0.43950  0.93890  Biso   1.000  H
  C996     1.0000 0.63400  0.34570  0.88450  Biso   1.000  C
  H644     1.0000 0.64020  0.33300  0.85940  Biso   1.000  H
  C997     1.0000 0.58301  0.18990  0.08930  Biso   1.000  C
  C998     1.0000 0.64422  0.01660  0.26500  Biso   1.000  C
  C999     1.0000 0.62044  0.03330  0.20840  Biso   1.000  C
  H645     1.0000 0.61760  0.00170  0.20950  Biso   1.000  H
  C1000    1.0000 0.58364  0.25120  0.03520  Biso   1.000  C
  C1001    1.0000 0.55426  0.22300  0.06180  Biso   1.000  C
  C1002    1.0000 0.64463  0.42150  0.86250  Biso   1.000  C
  C1003    1.0000 0.57766  0.15030  0.10190  Biso   1.000  C
  H646     1.0000 0.56670  0.13990  0.08990  Biso   1.000  H
  C1004    1.0000 0.44951  0.28590  0.18620  Biso   1.000  C
  H647     1.0000 0.44090  0.30520  0.17260  Biso   1.000  H
  C1005    1.0000 0.41330  0.54860  0.81100  Biso   1.000  C
  C1006    1.0000 0.46207  0.24990  0.06380  Biso   1.000  C
  C1007    1.0000 0.46984  0.22490  0.09820  Biso   1.000  C
  H648     1.0000 0.46300  0.21310  0.12250  Biso   1.000  H
  C1008    1.0000 0.61283  0.15890  0.39580  Biso   1.000  C
  H649     1.0000 0.61640  0.16590  0.42580  Biso   1.000  H
  C1009    1.0000 0.59895  0.20570  0.11020  Biso   1.000  C
  H650     1.0000 0.60310  0.23570  0.10420  Biso   1.000  H
  C1010    1.0000 0.62564  0.12310  0.20790  Biso   1.000  C
  H651     1.0000 0.62810  0.15480  0.20870  Biso   1.000  H
  C1011    1.0000 0.61103  0.05830  0.17980  Biso   1.000  C
  H652     1.0000 0.60290  0.04420  0.15960  Biso   1.000  H
  C1012    1.0000 0.47985  0.26580  0.20890  Biso   1.000  C
  C1013    1.0000 0.62404  0.31770  0.91270  Biso   1.000  C
  H653     1.0000 0.62280  0.28630  0.90560  Biso   1.000  H
  C1014    1.0000 0.63305  0.04710  0.23490  Biso   1.000  C
  C1015    1.0000 0.60529  0.30680  0.97990  Biso   1.000  C
  C1016    1.0000 0.60189  0.18830  0.36970  Biso   1.000  C
  H654     1.0000 0.59830  0.21690  0.38160  Biso   1.000  H
  C1017    1.0000 0.59662  0.17560  0.32760  Biso   1.000  C
  C1018    1.0000 0.47134  0.26640  0.02900  Biso   1.000  C
  H655     1.0000 0.46560  0.28310  0.00560  Biso   1.000  H
  C1019    1.0000 0.46853  0.29780  0.18600  Biso   1.000  C
  H656     1.0000 0.47300  0.32450  0.17180  Biso   1.000  H
  C1020    1.0000 0.58532  0.20970  0.29950  Biso   1.000  C
  C1021    1.0000 0.56401  0.33330  0.19810  Biso   1.000  C
  C1022    1.0000 0.60168  0.13820  0.30910  Biso   1.000  C
  H657     1.0000 0.59850  0.13100  0.27880  Biso   1.000  H
  C1023    1.0000 0.42839  0.35010  0.95260  Biso   1.000  C
  H658     1.0000 0.43480  0.32220  0.95130  Biso   1.000  H
  C1024    1.0000 0.58643  0.12200  0.13090  Biso   1.000  C
  H659     1.0000 0.58120  0.09340  0.13790  Biso   1.000  H
  C1025    1.0000 0.42013  0.50940  0.83620  Biso   1.000  C
  C1026    1.0000 0.42454  0.23130  0.20300  Biso   1.000  C
  C1027    1.0000 0.49862  0.23510  0.06030  Biso   1.000  C
  C1028    1.0000 0.40867  0.39740  0.98900  Biso   1.000  C
  H660     1.0000 0.40070  0.40280  0.01340  Biso   1.000  H
  C1029    1.0000 0.61975  0.47740  0.06900  Biso   1.000  C
  C1030    1.0000 0.45545  0.22120  0.23210  Biso   1.000  C
  H661     1.0000 0.45100  0.19740  0.25060  Biso   1.000  H
  C1031    1.0000 0.44182  0.26010  0.06390  Biso   1.000  C
  C1032    1.0000 0.59662  0.42430  0.11800  Biso   1.000  C
  C1033    1.0000 0.63497  0.39340  0.89300  Biso   1.000  C
  C1034    1.0000 0.56496  0.27000  0.24900  Biso   1.000  C
  C1035    1.0000 0.58824  0.21810  0.25490  Biso   1.000  C
  H662     1.0000 0.59780  0.20260  0.24070  Biso   1.000  H
  C1036    1.0000 0.42088  0.42330  0.91990  Biso   1.000  C
  C1037    1.0000 0.49998  0.27790  0.21180  Biso   1.000  C
  C1038    1.0000 0.41038  0.42830  0.95770  Biso   1.000  C
  H663     1.0000 0.40400  0.45600  0.96120  Biso   1.000  H
  C1039    1.0000 0.61593  0.33520  0.95110  Biso   1.000  C
  C1040    1.0000 0.53629  0.29390  0.21810  Biso   1.000  C
  C1041    1.0000 0.43014  0.38360  0.91750  Biso   1.000  C
  H664     1.0000 0.43780  0.37790  0.89260  Biso   1.000  H
  C1042    1.0000 0.60782  0.17920  0.13760  Biso   1.000  C
  H665     1.0000 0.61860  0.19070  0.15020  Biso   1.000  H
  C1043    1.0000 0.42234  0.45180  0.88290  Biso   1.000  C
  C1044    1.0000 0.58434  0.39330  0.14660  Biso   1.000  C
  C1045    1.0000 0.56195  0.26310  0.29080  Biso   1.000  C
  H666     1.0000 0.55210  0.27890  0.30340  Biso   1.000  H
  C1046    1.0000 0.57906  0.24500  0.23100  Biso   1.000  C
  H667     1.0000 0.58190  0.24830  0.19990  Biso   1.000  H
  C1047    1.0000 0.52661  0.22800  0.10080  Biso   1.000  C
  H668     1.0000 0.52030  0.22700  0.12860  Biso   1.000  H
  C1048    1.0000 0.58991  0.32210  0.00030  Biso   1.000  C
  H669     1.0000 0.58590  0.35210  0.99440  Biso   1.000  H
  C1049    1.0000 0.47381  0.23110  0.23090  Biso   1.000  C
  H670     1.0000 0.48190  0.21180  0.24650  Biso   1.000  H
  C1050    1.0000 0.59935  0.23070  0.01030  Biso   1.000  C
  H671     1.0000 0.60200  0.19910  0.01180  Biso   1.000  H
  C1051    1.0000 0.60897  0.25920  0.98680  Biso   1.000  C
  H672     1.0000 0.61940  0.24730  0.97280  Biso   1.000  H
  C1052    1.0000 0.39530  0.55560  0.80350  Biso   1.000  C
  H673     1.0000 0.38620  0.53650  0.81580  Biso   1.000  H
  C1053    1.0000 0.52763  0.22870  0.02190  Biso   1.000  C
  H674     1.0000 0.52150  0.22830  0.99370  Biso   1.000  H
  C1054    1.0000 0.61203  0.10860  0.33480  Biso   1.000  C
  H675     1.0000 0.61500  0.07950  0.32300  Biso   1.000  H
  C1055    1.0000 0.57113  0.23600  0.31910  Biso   1.000  C
  H676     1.0000 0.56840  0.23440  0.35040  Biso   1.000  H
  C1056    1.0000 0.60238  0.13300  0.15040  Biso   1.000  C
  C1057    1.0000 0.51779  0.23200  0.06380  Biso   1.000  C
  C1058    1.0000 0.51150  0.24220  0.21940  Biso   1.000  C
  H677     1.0000 0.50700  0.21220  0.22250  Biso   1.000  H
  C1059    1.0000 0.42440  0.58310  0.79600  Biso   1.000  C
  H678     1.0000 0.43680  0.57670  0.79920  Biso   1.000  H
  C1060    1.0000 0.61494  0.42860  0.13050  Biso   1.000  C
  H679     1.0000 0.61970  0.41290  0.15590  Biso   1.000  H
  C1061    1.0000 0.62900  0.08670  0.40160  Biso   1.000  C
  C1062    1.0000 0.57802  0.35740  0.21790  Biso   1.000  C
  H680     1.0000 0.58060  0.35300  0.24910  Biso   1.000  H
  C1063    1.0000 0.39140  0.59530  0.77480  Biso   1.000  C
  H681     1.0000 0.38050  0.59470  0.75830  Biso   1.000  H
  C1064    1.0000 0.61777  0.12020  0.37490  Biso   1.000  C
  C1065    1.0000 0.42080  0.62600  0.77710  Biso   1.000  C
  H682     1.0000 0.42960  0.64790  0.77000  Biso   1.000  H
  C1066    1.0000 0.61311  0.10560  0.17950  Biso   1.000  C
  C1067    1.0000 0.50603  0.32060  0.20410  Biso   1.000  C
  H683     1.0000 0.49800  0.34470  0.19750  Biso   1.000  H
  C1068    1.0000 0.60146  0.47140  0.05650  Biso   1.000  C
  H684     1.0000 0.59680  0.48670  0.03080  Biso   1.000  H
  C1069    1.0000 0.49042  0.25790  0.02790  Biso   1.000  C
  H685     1.0000 0.49720  0.26910  0.00320  Biso   1.000  H
  C1070    1.0000 0.44461  0.24600  0.20680  Biso   1.000  C
  C1071    1.0000 0.54579  0.22480  0.10140  Biso   1.000  C
  H686     1.0000 0.55220  0.22410  0.12920  Biso   1.000  H
  C1072    1.0000 0.58801  0.38650  0.19380  Biso   1.000  C
  H687     1.0000 0.59750  0.40260  0.20790  Biso   1.000  H
  C1073    1.0000 0.54588  0.22610  0.02340  Biso   1.000  C
  H688     1.0000 0.55250  0.22660  0.99600  Biso   1.000  H
  C1074    1.0000 0.62963  0.50740  0.04080  Biso   1.000  C
  C1075    1.0000 0.52560  0.32840  0.20630  Biso   1.000  C
  H689     1.0000 0.53040  0.35750  0.19950  Biso   1.000  H
  C1076    1.0000 0.61921  0.38130  0.96110  Biso   1.000  C
  H690     1.0000 0.61500  0.39380  0.98870  Biso   1.000  H
  C1077    1.0000 0.59055  0.44320  0.08210  Biso   1.000  C
  H691     1.0000 0.57860  0.43780  0.07290  Biso   1.000  H
  C1078    1.0000 0.62529  0.45580  0.10460  Biso   1.000  C
  H692     1.0000 0.63740  0.45930  0.11300  Biso   1.000  H
  C1079    1.0000 0.52972  0.25000  0.22260  Biso   1.000  C
  H693     1.0000 0.53760  0.22530  0.22780  Biso   1.000  H
  C1080    1.0000 0.48785  0.21790  0.09580  Biso   1.000  C
  H694     1.0000 0.49340  0.20070  0.11910  Biso   1.000  H
  N89      1.0000 0.41292  0.49230  0.87540  Biso   1.000  N
  N90      1.0000 0.41744  0.35950  0.98770  Biso   1.000  N
  N91      1.0000 0.43306  0.44770  0.84750  Biso   1.000  N
  N92      1.0000 0.40007  0.51060  0.90240  Biso   1.000  N
  H695     1.0000 0.39530  0.53700  0.89540  Biso   1.000  H
  H696     1.0000 0.39660  0.49600  0.92680  Biso   1.000  H
  N93      1.0000 0.40180  0.63270  0.76960  Biso   1.000  N
  N94      1.0000 0.43198  0.48130  0.81840  Biso   1.000  N
  N95      1.0000 0.57407  0.21690  0.06020  Biso   1.000  N
  N96      1.0000 0.55481  0.30070  0.22290  Biso   1.000  N
  O133     1.0000 0.62575  0.52680  0.00710  Biso   1.000  O
  O134     1.0000 0.64506  0.97630  0.25500  Biso   1.000  O
  O135     1.0000 0.65185  0.03700  0.29780  Biso   1.000  O
  O136     1.0000 0.41481  0.25460  0.17700  Biso   1.000  O
  O137     1.0000 0.64213  0.46330  0.86330  Biso   1.000  O
  O138     1.0000 0.42038  0.20150  0.22980  Biso   1.000  O
  O139     1.0000 0.65529  0.40230  0.83350  Biso   1.000  O
  O140     1.0000 0.63272  0.04860  0.38650  Biso   1.000  O
  O141     1.0000 0.63400  0.09930  0.44080  Biso   1.000  O
  O142     1.0000 0.43380  0.24560  0.09690  Biso   1.000  O
  O143     1.0000 0.64745  0.51540  0.05710  Biso   1.000  O
  O144     1.0000 0.43629  0.28280  0.03440  Biso   1.000  O
  Cu34     1.0000 0.41305  0.30933  0.03400  Biso   1.000  Cu
  Cu35     1.0000 0.39554  0.18639  0.23610  Biso   1.000  Cu
  Cu36     1.0000 0.40700  0.22832  0.11606  Biso   1.000  Cu
  C1081    1.0000 0.32028  0.37710  0.37830  Biso   1.000  C
  H697     1.0000 0.31690  0.37030  0.34800  Biso   1.000  H
  C1082    1.0000 0.38477  0.65760  0.48590  Biso   1.000  C
  H698     1.0000 0.39280  0.64520  0.50750  Biso   1.000  H
  C1083    1.0000 0.31060  0.40800  0.40300  Biso   1.000  C
  H699     1.0000 0.30120  0.42410  0.38860  Biso   1.000  H
  C1084    1.0000 0.33008  0.45600  0.27970  Biso   1.000  C
  H700     1.0000 0.32040  0.44300  0.29610  Biso   1.000  H
  C1085    1.0000 0.37836  0.34170  0.18140  Biso   1.000  C
  H701     1.0000 0.38000  0.31050  0.18890  Biso   1.000  H
  C1086    1.0000 0.38400  0.40430  0.13450  Biso   1.000  C
  H702     1.0000 0.39020  0.41700  0.10940  Biso   1.000  H
  C1087    1.0000 0.33301  0.56010  0.33930  Biso   1.000  C
  C1088    1.0000 0.39422  0.73340  0.51500  Biso   1.000  C
  C1089    1.0000 0.37044  0.71670  0.45840  Biso   1.000  C
  H703     1.0000 0.36760  0.74830  0.45950  Biso   1.000  H
  C1090    1.0000 0.33364  0.49880  0.28520  Biso   1.000  C
  C1091    1.0000 0.30426  0.52700  0.31180  Biso   1.000  C
  C1092    1.0000 0.39463  0.32850  0.11250  Biso   1.000  C
  C1093    1.0000 0.32766  0.59970  0.35190  Biso   1.000  C
  H704     1.0000 0.31670  0.61010  0.33990  Biso   1.000  H
  C1094    1.0000 0.19951  0.46410  0.43620  Biso   1.000  C
  H705     1.0000 0.19090  0.44480  0.42260  Biso   1.000  H
  C1095    1.0000 0.16330  0.20140  0.06100  Biso   1.000  C
  C1096    1.0000 0.21207  0.50010  0.31380  Biso   1.000  C
  C1097    1.0000 0.21984  0.52510  0.34820  Biso   1.000  C
  H706     1.0000 0.21300  0.53690  0.37250  Biso   1.000  H
  C1098    1.0000 0.36283  0.59110  0.64580  Biso   1.000  C
  H707     1.0000 0.36640  0.58410  0.67580  Biso   1.000  H
  C1099    1.0000 0.34895  0.54430  0.36020  Biso   1.000  C
  H708     1.0000 0.35310  0.51430  0.35420  Biso   1.000  H
  C1100    1.0000 0.37564  0.62690  0.45790  Biso   1.000  C
  H709     1.0000 0.37810  0.59520  0.45870  Biso   1.000  H
  C1101    1.0000 0.36103  0.69170  0.42980  Biso   1.000  C
  H710     1.0000 0.35290  0.70580  0.40960  Biso   1.000  H
  C1102    1.0000 0.22985  0.48420  0.45890  Biso   1.000  C
  C1103    1.0000 0.37404  0.43230  0.16270  Biso   1.000  C
  H711     1.0000 0.37280  0.46370  0.15560  Biso   1.000  H
  C1104    1.0000 0.38305  0.70290  0.48490  Biso   1.000  C
  C1105    1.0000 0.35529  0.44320  0.22990  Biso   1.000  C
  C1106    1.0000 0.35189  0.56170  0.61970  Biso   1.000  C
  H712     1.0000 0.34830  0.53310  0.63160  Biso   1.000  H
  C1107    1.0000 0.34662  0.57440  0.57760  Biso   1.000  C
  C1108    1.0000 0.22134  0.48360  0.27900  Biso   1.000  C
  H713     1.0000 0.21560  0.46690  0.25560  Biso   1.000  H
  C1109    1.0000 0.21853  0.45220  0.43600  Biso   1.000  C
  H714     1.0000 0.22300  0.42550  0.42180  Biso   1.000  H
  C1110    1.0000 0.33532  0.54030  0.54950  Biso   1.000  C
  C1111    1.0000 0.31401  0.41670  0.44810  Biso   1.000  C
  C1112    1.0000 0.35168  0.61180  0.55910  Biso   1.000  C
  H715     1.0000 0.34850  0.61900  0.52880  Biso   1.000  H
  C1113    1.0000 0.17839  0.39990  0.20260  Biso   1.000  C
  H716     1.0000 0.18480  0.42780  0.20130  Biso   1.000  H
  C1114    1.0000 0.33643  0.62800  0.38090  Biso   1.000  C
  H717     1.0000 0.33120  0.65660  0.38790  Biso   1.000  H
  C1115    1.0000 0.17013  0.24060  0.08620  Biso   1.000  C
  C1116    1.0000 0.17454  0.51870  0.45300  Biso   1.000  C
  C1117    1.0000 0.24862  0.51490  0.31030  Biso   1.000  C
  C1118    1.0000 0.15867  0.35260  0.23900  Biso   1.000  C
  H718     1.0000 0.15070  0.34720  0.26340  Biso   1.000  H
  C1119    1.0000 0.36975  0.27260  0.31900  Biso   1.000  C
  C1120    1.0000 0.20545  0.52880  0.48210  Biso   1.000  C
  H719     1.0000 0.20100  0.55260  0.50060  Biso   1.000  H
  C1121    1.0000 0.19182  0.48990  0.31390  Biso   1.000  C
  C1122    1.0000 0.34662  0.32570  0.36800  Biso   1.000  C
  C1123    1.0000 0.38497  0.35660  0.14300  Biso   1.000  C
  C1124    1.0000 0.31496  0.48000  0.49900  Biso   1.000  C
  C1125    1.0000 0.33824  0.53190  0.50490  Biso   1.000  C
  H720     1.0000 0.34780  0.54740  0.49070  Biso   1.000  H
  C1126    1.0000 0.17088  0.32670  0.16990  Biso   1.000  C
  C1127    1.0000 0.24998  0.47210  0.46180  Biso   1.000  C
  C1128    1.0000 0.16038  0.32170  0.20770  Biso   1.000  C
  H721     1.0000 0.15400  0.29400  0.21120  Biso   1.000  H
  C1129    1.0000 0.36593  0.41480  0.20110  Biso   1.000  C
  C1130    1.0000 0.28629  0.45610  0.46810  Biso   1.000  C
  C1131    1.0000 0.18014  0.36640  0.16750  Biso   1.000  C
  H722     1.0000 0.18780  0.37210  0.14260  Biso   1.000  H
  C1132    1.0000 0.35782  0.57080  0.38760  Biso   1.000  C
  H723     1.0000 0.36860  0.55930  0.40020  Biso   1.000  H
  C1133    1.0000 0.17234  0.29820  0.13290  Biso   1.000  C
  C1134    1.0000 0.33434  0.35670  0.39660  Biso   1.000  C
  C1135    1.0000 0.31195  0.48690  0.54080  Biso   1.000  C
  H724     1.0000 0.30210  0.47110  0.55340  Biso   1.000  H
  C1136    1.0000 0.32906  0.50500  0.48100  Biso   1.000  C
  H725     1.0000 0.33190  0.50170  0.44990  Biso   1.000  H
  C1137    1.0000 0.27661  0.52200  0.35080  Biso   1.000  C
  H726     1.0000 0.27030  0.52300  0.37860  Biso   1.000  H
  C1138    1.0000 0.33991  0.42790  0.25030  Biso   1.000  C
  H727     1.0000 0.33590  0.39790  0.24440  Biso   1.000  H
  C1139    1.0000 0.22381  0.51890  0.48090  Biso   1.000  C
  H728     1.0000 0.23190  0.53820  0.49650  Biso   1.000  H
  C1140    1.0000 0.34935  0.51930  0.26030  Biso   1.000  C
  H729     1.0000 0.35200  0.55090  0.26180  Biso   1.000  H
  C1141    1.0000 0.35897  0.49080  0.23680  Biso   1.000  C
  H730     1.0000 0.36940  0.50270  0.22280  Biso   1.000  H
  C1142    1.0000 0.14530  0.19440  0.05350  Biso   1.000  C
  H731     1.0000 0.13620  0.21350  0.06580  Biso   1.000  H
  C1143    1.0000 0.27763  0.52130  0.27190  Biso   1.000  C
  H732     1.0000 0.27150  0.52170  0.24370  Biso   1.000  H
  C1144    1.0000 0.36203  0.64140  0.58480  Biso   1.000  C
  H733     1.0000 0.36500  0.67050  0.57300  Biso   1.000  H
  C1145    1.0000 0.32113  0.51400  0.56910  Biso   1.000  C
  H734     1.0000 0.31840  0.51560  0.60040  Biso   1.000  H
  C1146    1.0000 0.35238  0.61700  0.40040  Biso   1.000  C
  C1147    1.0000 0.26779  0.51800  0.31380  Biso   1.000  C
  C1148    1.0000 0.26150  0.50780  0.46940  Biso   1.000  C
  H735     1.0000 0.25700  0.53780  0.47250  Biso   1.000  H
  C1149    1.0000 0.17440  0.16690  0.04600  Biso   1.000  C
  H736     1.0000 0.18680  0.17330  0.04920  Biso   1.000  H
  C1150    1.0000 0.36494  0.32140  0.38050  Biso   1.000  C
  H737     1.0000 0.36970  0.33710  0.40590  Biso   1.000  H
  C1151    1.0000 0.37900  0.66330  0.65160  Biso   1.000  C
  C1152    1.0000 0.32802  0.39260  0.46790  Biso   1.000  C
  H738     1.0000 0.33060  0.39700  0.49910  Biso   1.000  H
  C1153    1.0000 0.14140  0.15470  0.02480  Biso   1.000  C
  H739     1.0000 0.13050  0.15530  0.00830  Biso   1.000  H
  C1154    1.0000 0.36777  0.62980  0.62490  Biso   1.000  C
  C1155    1.0000 0.17080  0.12400  0.02710  Biso   1.000  C
  H740     1.0000 0.17960  0.10210  0.02000  Biso   1.000  H
  C1156    1.0000 0.36311  0.64440  0.42950  Biso   1.000  C
  C1157    1.0000 0.25603  0.42940  0.45410  Biso   1.000  C
  H741     1.0000 0.24800  0.40530  0.44750  Biso   1.000  H
  C1158    1.0000 0.35146  0.27860  0.30650  Biso   1.000  C
  H742     1.0000 0.34680  0.26330  0.28080  Biso   1.000  H
  C1159    1.0000 0.24042  0.49210  0.27790  Biso   1.000  C
  H743     1.0000 0.24720  0.48090  0.25320  Biso   1.000  H
  C1160    1.0000 0.19461  0.50400  0.45680  Biso   1.000  C
  C1161    1.0000 0.29579  0.52520  0.35140  Biso   1.000  C
  H744     1.0000 0.30220  0.52590  0.37920  Biso   1.000  H
  C1162    1.0000 0.33801  0.36350  0.44380  Biso   1.000  C
  H745     1.0000 0.34750  0.34740  0.45790  Biso   1.000  H
  C1163    1.0000 0.29588  0.52390  0.27340  Biso   1.000  C
  H746     1.0000 0.30250  0.52340  0.24600  Biso   1.000  H
  C1164    1.0000 0.37963  0.24260  0.29080  Biso   1.000  C
  C1165    1.0000 0.27560  0.42160  0.45630  Biso   1.000  C
  H747     1.0000 0.28040  0.39250  0.44950  Biso   1.000  H
  C1166    1.0000 0.36921  0.36870  0.21110  Biso   1.000  C
  H748     1.0000 0.36500  0.35620  0.23870  Biso   1.000  H
  C1167    1.0000 0.34055  0.30680  0.33210  Biso   1.000  C
  H749     1.0000 0.32860  0.31220  0.32290  Biso   1.000  H
  C1168    1.0000 0.37529  0.29420  0.35460  Biso   1.000  C
  H750     1.0000 0.38740  0.29070  0.36300  Biso   1.000  H
  C1169    1.0000 0.27972  0.50000  0.47260  Biso   1.000  C
  H751     1.0000 0.28760  0.52470  0.47780  Biso   1.000  H
  C1170    1.0000 0.23785  0.53210  0.34580  Biso   1.000  C
  H752     1.0000 0.24340  0.54930  0.36910  Biso   1.000  H
  N97      1.0000 0.16292  0.25770  0.12540  Biso   1.000  N
  N98      1.0000 0.16744  0.39050  0.23770  Biso   1.000  N
  N99      1.0000 0.18306  0.30230  0.09750  Biso   1.000  N
  N100     1.0000 0.15007  0.23940  0.15240  Biso   1.000  N
  H753     1.0000 0.14530  0.21300  0.14540  Biso   1.000  H
  H754     1.0000 0.14660  0.25400  0.17680  Biso   1.000  H
  N101     1.0000 0.15180  0.11730  0.01960  Biso   1.000  N
  N102     1.0000 0.18198  0.26870  0.06840  Biso   1.000  N
  N103     1.0000 0.32407  0.53310  0.31020  Biso   1.000  N
  N104     1.0000 0.30481  0.44930  0.47290  Biso   1.000  N
  O145     1.0000 0.37575  0.22320  0.25710  Biso   1.000  O
  O146     1.0000 0.39506  0.77370  0.50500  Biso   1.000  O
  O147     1.0000 0.40185  0.71300  0.54780  Biso   1.000  O
  O148     1.0000 0.16481  0.49540  0.42700  Biso   1.000  O
  O149     1.0000 0.39213  0.28670  0.11330  Biso   1.000  O
  O150     1.0000 0.17038  0.54850  0.47980  Biso   1.000  O
  O151     1.0000 0.40529  0.34770  0.08350  Biso   1.000  O
  O152     1.0000 0.38272  0.70140  0.63650  Biso   1.000  O
  O153     1.0000 0.38400  0.65070  0.69080  Biso   1.000  O
  O154     1.0000 0.18380  0.50440  0.34690  Biso   1.000  O
  O155     1.0000 0.39745  0.23460  0.30710  Biso   1.000  O
  O156     1.0000 0.18629  0.46720  0.28440  Biso   1.000  O
  Cu37     1.0000 0.16305  0.44067  0.28400  Biso   1.000  Cu
  Cu38     1.0000 0.14554  0.56361  0.48610  Biso   1.000  Cu
  Cu39     1.0000 0.15700  0.52168  0.36606  Biso   1.000  Cu
  C1171    1.0000 0.32028  0.87710  0.87830  Biso   1.000  C
  H755     1.0000 0.31690  0.87030  0.84800  Biso   1.000  H
  C1172    1.0000 0.38477  0.15760  0.98590  Biso   1.000  C
  H756     1.0000 0.39280  0.14520  0.00750  Biso   1.000  H
  C1173    1.0000 0.31060  0.90800  0.90300  Biso   1.000  C
  H757     1.0000 0.30120  0.92410  0.88860  Biso   1.000  H
  C1174    1.0000 0.33008  0.95600  0.77970  Biso   1.000  C
  H758     1.0000 0.32040  0.94300  0.79610  Biso   1.000  H
  C1175    1.0000 0.37836  0.84170  0.68140  Biso   1.000  C
  H759     1.0000 0.38000  0.81050  0.68890  Biso   1.000  H
  C1176    1.0000 0.38400  0.90430  0.63450  Biso   1.000  C
  H760     1.0000 0.39020  0.91700  0.60940  Biso   1.000  H
  C1177    1.0000 0.33301  0.06010  0.83930  Biso   1.000  C
  C1178    1.0000 0.39422  0.23340  0.01500  Biso   1.000  C
  C1179    1.0000 0.37044  0.21670  0.95840  Biso   1.000  C
  H761     1.0000 0.36760  0.24830  0.95950  Biso   1.000  H
  C1180    1.0000 0.33364  0.99880  0.78520  Biso   1.000  C
  C1181    1.0000 0.30426  0.02700  0.81180  Biso   1.000  C
  C1182    1.0000 0.39463  0.82850  0.61250  Biso   1.000  C
  C1183    1.0000 0.32766  0.09970  0.85190  Biso   1.000  C
  H762     1.0000 0.31670  0.11010  0.83990  Biso   1.000  H
  C1184    1.0000 0.19951  0.96410  0.93620  Biso   1.000  C
  H763     1.0000 0.19090  0.94480  0.92260  Biso   1.000  H
  C1185    1.0000 0.16330  0.70140  0.56100  Biso   1.000  C
  C1186    1.0000 0.21207  0.00010  0.81380  Biso   1.000  C
  C1187    1.0000 0.21984  0.02510  0.84820  Biso   1.000  C
  H764     1.0000 0.21300  0.03690  0.87250  Biso   1.000  H
  C1188    1.0000 0.36283  0.09110  0.14580  Biso   1.000  C
  H765     1.0000 0.36640  0.08410  0.17580  Biso   1.000  H
  C1189    1.0000 0.34895  0.04430  0.86020  Biso   1.000  C
  H766     1.0000 0.35310  0.01430  0.85420  Biso   1.000  H
  C1190    1.0000 0.37564  0.12690  0.95790  Biso   1.000  C
  H767     1.0000 0.37810  0.09520  0.95870  Biso   1.000  H
  C1191    1.0000 0.36103  0.19170  0.92980  Biso   1.000  C
  H768     1.0000 0.35290  0.20580  0.90960  Biso   1.000  H
  C1192    1.0000 0.22985  0.98420  0.95890  Biso   1.000  C
  C1193    1.0000 0.37404  0.93230  0.66270  Biso   1.000  C
  H769     1.0000 0.37280  0.96370  0.65560  Biso   1.000  H
  C1194    1.0000 0.38305  0.20290  0.98490  Biso   1.000  C
  C1195    1.0000 0.35529  0.94320  0.72990  Biso   1.000  C
  C1196    1.0000 0.35189  0.06170  0.11970  Biso   1.000  C
  H770     1.0000 0.34830  0.03310  0.13160  Biso   1.000  H
  C1197    1.0000 0.34662  0.07440  0.07760  Biso   1.000  C
  C1198    1.0000 0.22134  0.98360  0.77900  Biso   1.000  C
  H771     1.0000 0.21560  0.96690  0.75560  Biso   1.000  H
  C1199    1.0000 0.21853  0.95220  0.93600  Biso   1.000  C
  H772     1.0000 0.22300  0.92550  0.92180  Biso   1.000  H
  C1200    1.0000 0.33532  0.04030  0.04950  Biso   1.000  C
  C1201    1.0000 0.31401  0.91670  0.94810  Biso   1.000  C
  C1202    1.0000 0.35168  0.11180  0.05910  Biso   1.000  C
  H773     1.0000 0.34850  0.11900  0.02880  Biso   1.000  H
  C1203    1.0000 0.17839  0.89990  0.70260  Biso   1.000  C
  H774     1.0000 0.18480  0.92780  0.70130  Biso   1.000  H
  C1204    1.0000 0.33643  0.12800  0.88090  Biso   1.000  C
  H775     1.0000 0.33120  0.15660  0.88790  Biso   1.000  H
  C1205    1.0000 0.17013  0.74060  0.58620  Biso   1.000  C
  C1206    1.0000 0.17454  0.01870  0.95300  Biso   1.000  C
  C1207    1.0000 0.24862  0.01490  0.81030  Biso   1.000  C
  C1208    1.0000 0.15867  0.85260  0.73900  Biso   1.000  C
  H776     1.0000 0.15070  0.84720  0.76340  Biso   1.000  H
  C1209    1.0000 0.36975  0.77260  0.81900  Biso   1.000  C
  C1210    1.0000 0.20545  0.02880  0.98210  Biso   1.000  C
  H777     1.0000 0.20100  0.05260  0.00060  Biso   1.000  H
  C1211    1.0000 0.19182  0.98990  0.81390  Biso   1.000  C
  C1212    1.0000 0.34662  0.82570  0.86800  Biso   1.000  C
  C1213    1.0000 0.38497  0.85660  0.64300  Biso   1.000  C
  C1214    1.0000 0.31496  0.98000  0.99900  Biso   1.000  C
  C1215    1.0000 0.33824  0.03190  0.00490  Biso   1.000  C
  H778     1.0000 0.34780  0.04740  0.99070  Biso   1.000  H
  C1216    1.0000 0.17088  0.82670  0.66990  Biso   1.000  C
  C1217    1.0000 0.24998  0.97210  0.96180  Biso   1.000  C
  C1218    1.0000 0.16038  0.82170  0.70770  Biso   1.000  C
  H779     1.0000 0.15400  0.79400  0.71120  Biso   1.000  H
  C1219    1.0000 0.36593  0.91480  0.70110  Biso   1.000  C
  C1220    1.0000 0.28629  0.95610  0.96810  Biso   1.000  C
  C1221    1.0000 0.18014  0.86640  0.66750  Biso   1.000  C
  H780     1.0000 0.18780  0.87210  0.64260  Biso   1.000  H
  C1222    1.0000 0.35782  0.07080  0.88760  Biso   1.000  C
  H781     1.0000 0.36860  0.05930  0.90020  Biso   1.000  H
  C1223    1.0000 0.17234  0.79820  0.63290  Biso   1.000  C
  C1224    1.0000 0.33434  0.85670  0.89660  Biso   1.000  C
  C1225    1.0000 0.31195  0.98690  0.04080  Biso   1.000  C
  H782     1.0000 0.30210  0.97110  0.05340  Biso   1.000  H
  C1226    1.0000 0.32906  0.00500  0.98100  Biso   1.000  C
  H783     1.0000 0.33190  0.00170  0.94990  Biso   1.000  H
  C1227    1.0000 0.27661  0.02200  0.85080  Biso   1.000  C
  H784     1.0000 0.27030  0.02300  0.87860  Biso   1.000  H
  C1228    1.0000 0.33991  0.92790  0.75030  Biso   1.000  C
  H785     1.0000 0.33590  0.89790  0.74440  Biso   1.000  H
  C1229    1.0000 0.22381  0.01890  0.98090  Biso   1.000  C
  H786     1.0000 0.23190  0.03820  0.99650  Biso   1.000  H
  C1230    1.0000 0.34935  0.01930  0.76030  Biso   1.000  C
  H787     1.0000 0.35200  0.05090  0.76180  Biso   1.000  H
  C1231    1.0000 0.35897  0.99080  0.73680  Biso   1.000  C
  H788     1.0000 0.36940  0.00270  0.72280  Biso   1.000  H
  C1232    1.0000 0.14530  0.69440  0.55350  Biso   1.000  C
  H789     1.0000 0.13620  0.71350  0.56580  Biso   1.000  H
  C1233    1.0000 0.27763  0.02130  0.77190  Biso   1.000  C
  H790     1.0000 0.27150  0.02170  0.74370  Biso   1.000  H
  C1234    1.0000 0.36203  0.14140  0.08480  Biso   1.000  C
  H791     1.0000 0.36500  0.17050  0.07300  Biso   1.000  H
  C1235    1.0000 0.32113  0.01400  0.06910  Biso   1.000  C
  H792     1.0000 0.31840  0.01560  0.10040  Biso   1.000  H
  C1236    1.0000 0.35238  0.11700  0.90040  Biso   1.000  C
  C1237    1.0000 0.26779  0.01800  0.81380  Biso   1.000  C
  C1238    1.0000 0.26150  0.00780  0.96940  Biso   1.000  C
  H793     1.0000 0.25700  0.03780  0.97250  Biso   1.000  H
  C1239    1.0000 0.17440  0.66690  0.54600  Biso   1.000  C
  H794     1.0000 0.18680  0.67330  0.54920  Biso   1.000  H
  C1240    1.0000 0.36494  0.82140  0.88050  Biso   1.000  C
  H795     1.0000 0.36970  0.83710  0.90590  Biso   1.000  H
  C1241    1.0000 0.37900  0.16330  0.15160  Biso   1.000  C
  C1242    1.0000 0.32802  0.89260  0.96790  Biso   1.000  C
  H796     1.0000 0.33060  0.89700  0.99910  Biso   1.000  H
  C1243    1.0000 0.14140  0.65470  0.52480  Biso   1.000  C
  H797     1.0000 0.13050  0.65530  0.50830  Biso   1.000  H
  C1244    1.0000 0.36777  0.12980  0.12490  Biso   1.000  C
  C1245    1.0000 0.17080  0.62400  0.52710  Biso   1.000  C
  H798     1.0000 0.17960  0.60210  0.52000  Biso   1.000  H
  C1246    1.0000 0.36311  0.14440  0.92950  Biso   1.000  C
  C1247    1.0000 0.25603  0.92940  0.95410  Biso   1.000  C
  H799     1.0000 0.24800  0.90530  0.94750  Biso   1.000  H
  C1248    1.0000 0.35146  0.77860  0.80650  Biso   1.000  C
  H800     1.0000 0.34680  0.76330  0.78080  Biso   1.000  H
  C1249    1.0000 0.24042  0.99210  0.77790  Biso   1.000  C
  H801     1.0000 0.24720  0.98090  0.75320  Biso   1.000  H
  C1250    1.0000 0.19461  0.00400  0.95680  Biso   1.000  C
  C1251    1.0000 0.29579  0.02520  0.85140  Biso   1.000  C
  H802     1.0000 0.30220  0.02590  0.87920  Biso   1.000  H
  C1252    1.0000 0.33801  0.86350  0.94380  Biso   1.000  C
  H803     1.0000 0.34750  0.84740  0.95790  Biso   1.000  H
  C1253    1.0000 0.29588  0.02390  0.77340  Biso   1.000  C
  H804     1.0000 0.30250  0.02340  0.74600  Biso   1.000  H
  C1254    1.0000 0.37963  0.74260  0.79080  Biso   1.000  C
  C1255    1.0000 0.27560  0.92160  0.95630  Biso   1.000  C
  H805     1.0000 0.28040  0.89250  0.94950  Biso   1.000  H
  C1256    1.0000 0.36921  0.86870  0.71110  Biso   1.000  C
  H806     1.0000 0.36500  0.85620  0.73870  Biso   1.000  H
  C1257    1.0000 0.34055  0.80680  0.83210  Biso   1.000  C
  H807     1.0000 0.32860  0.81220  0.82290  Biso   1.000  H
  C1258    1.0000 0.37529  0.79420  0.85460  Biso   1.000  C
  H808     1.0000 0.38740  0.79070  0.86300  Biso   1.000  H
  C1259    1.0000 0.27972  0.00000  0.97260  Biso   1.000  C
  H809     1.0000 0.28760  0.02470  0.97780  Biso   1.000  H
  C1260    1.0000 0.23785  0.03210  0.84580  Biso   1.000  C
  H810     1.0000 0.24340  0.04930  0.86910  Biso   1.000  H
  N105     1.0000 0.16292  0.75770  0.62540  Biso   1.000  N
  N106     1.0000 0.16744  0.89050  0.73770  Biso   1.000  N
  N107     1.0000 0.18306  0.80230  0.59750  Biso   1.000  N
  N108     1.0000 0.15007  0.73940  0.65240  Biso   1.000  N
  H811     1.0000 0.14530  0.71300  0.64540  Biso   1.000  H
  H812     1.0000 0.14660  0.75400  0.67680  Biso   1.000  H
  N109     1.0000 0.15180  0.61730  0.51960  Biso   1.000  N
  N110     1.0000 0.18198  0.76870  0.56840  Biso   1.000  N
  N111     1.0000 0.32407  0.03310  0.81020  Biso   1.000  N
  N112     1.0000 0.30481  0.94930  0.97290  Biso   1.000  N
  O157     1.0000 0.37575  0.72320  0.75710  Biso   1.000  O
  O158     1.0000 0.39506  0.27370  0.00500  Biso   1.000  O
  O159     1.0000 0.40185  0.21300  0.04780  Biso   1.000  O
  O160     1.0000 0.16481  0.99540  0.92700  Biso   1.000  O
  O161     1.0000 0.39213  0.78670  0.61330  Biso   1.000  O
  O162     1.0000 0.17038  0.04850  0.97980  Biso   1.000  O
  O163     1.0000 0.40529  0.84770  0.58350  Biso   1.000  O
  O164     1.0000 0.38272  0.20140  0.13650  Biso   1.000  O
  O165     1.0000 0.38400  0.15070  0.19080  Biso   1.000  O
  O166     1.0000 0.18380  0.00440  0.84690  Biso   1.000  O
  O167     1.0000 0.39745  0.73460  0.80710  Biso   1.000  O
  O168     1.0000 0.18629  0.96720  0.78440  Biso   1.000  O
  Cu40     1.0000 0.16305  0.94067  0.78400  Biso   1.000  Cu
  Cu41     1.0000 0.14554  0.06361  0.98610  Biso   1.000  Cu
  Cu42     1.0000 0.15700  0.02168  0.86606  Biso   1.000  Cu
  C1261    1.0000 0.82028  0.37710  0.87830  Biso   1.000  C
  H813     1.0000 0.81690  0.37030  0.84800  Biso   1.000  H
  C1262    1.0000 0.88477  0.65760  0.98590  Biso   1.000  C
  H814     1.0000 0.89280  0.64520  0.00750  Biso   1.000  H
  C1263    1.0000 0.81060  0.40800  0.90300  Biso   1.000  C
  H815     1.0000 0.80120  0.42410  0.88860  Biso   1.000  H
  C1264    1.0000 0.83008  0.45600  0.77970  Biso   1.000  C
  H816     1.0000 0.82040  0.44300  0.79610  Biso   1.000  H
  C1265    1.0000 0.87836  0.34170  0.68140  Biso   1.000  C
  H817     1.0000 0.88000  0.31050  0.68890  Biso   1.000  H
  C1266    1.0000 0.88400  0.40430  0.63450  Biso   1.000  C
  H818     1.0000 0.89020  0.41700  0.60940  Biso   1.000  H
  C1267    1.0000 0.83301  0.56010  0.83930  Biso   1.000  C
  C1268    1.0000 0.89422  0.73340  0.01500  Biso   1.000  C
  C1269    1.0000 0.87044  0.71670  0.95840  Biso   1.000  C
  H819     1.0000 0.86760  0.74830  0.95950  Biso   1.000  H
  C1270    1.0000 0.83364  0.49880  0.78520  Biso   1.000  C
  C1271    1.0000 0.80426  0.52700  0.81180  Biso   1.000  C
  C1272    1.0000 0.89463  0.32850  0.61250  Biso   1.000  C
  C1273    1.0000 0.82766  0.59970  0.85190  Biso   1.000  C
  H820     1.0000 0.81670  0.61010  0.83990  Biso   1.000  H
  C1274    1.0000 0.69951  0.46410  0.93620  Biso   1.000  C
  H821     1.0000 0.69090  0.44480  0.92260  Biso   1.000  H
  C1275    1.0000 0.66330  0.20140  0.56100  Biso   1.000  C
  C1276    1.0000 0.71207  0.50010  0.81380  Biso   1.000  C
  C1277    1.0000 0.71984  0.52510  0.84820  Biso   1.000  C
  H822     1.0000 0.71300  0.53690  0.87250  Biso   1.000  H
  C1278    1.0000 0.86283  0.59110  0.14580  Biso   1.000  C
  H823     1.0000 0.86640  0.58410  0.17580  Biso   1.000  H
  C1279    1.0000 0.84895  0.54430  0.86020  Biso   1.000  C
  H824     1.0000 0.85310  0.51430  0.85420  Biso   1.000  H
  C1280    1.0000 0.87564  0.62690  0.95790  Biso   1.000  C
  H825     1.0000 0.87810  0.59520  0.95870  Biso   1.000  H
  C1281    1.0000 0.86103  0.69170  0.92980  Biso   1.000  C
  H826     1.0000 0.85290  0.70580  0.90960  Biso   1.000  H
  C1282    1.0000 0.72985  0.48420  0.95890  Biso   1.000  C
  C1283    1.0000 0.87404  0.43230  0.66270  Biso   1.000  C
  H827     1.0000 0.87280  0.46370  0.65560  Biso   1.000  H
  C1284    1.0000 0.88305  0.70290  0.98490  Biso   1.000  C
  C1285    1.0000 0.85529  0.44320  0.72990  Biso   1.000  C
  C1286    1.0000 0.85189  0.56170  0.11970  Biso   1.000  C
  H828     1.0000 0.84830  0.53310  0.13160  Biso   1.000  H
  C1287    1.0000 0.84662  0.57440  0.07760  Biso   1.000  C
  C1288    1.0000 0.72134  0.48360  0.77900  Biso   1.000  C
  H829     1.0000 0.71560  0.46690  0.75560  Biso   1.000  H
  C1289    1.0000 0.71853  0.45220  0.93600  Biso   1.000  C
  H830     1.0000 0.72300  0.42550  0.92180  Biso   1.000  H
  C1290    1.0000 0.83532  0.54030  0.04950  Biso   1.000  C
  C1291    1.0000 0.81401  0.41670  0.94810  Biso   1.000  C
  C1292    1.0000 0.85168  0.61180  0.05910  Biso   1.000  C
  H831     1.0000 0.84850  0.61900  0.02880  Biso   1.000  H
  C1293    1.0000 0.67839  0.39990  0.70260  Biso   1.000  C
  H832     1.0000 0.68480  0.42780  0.70130  Biso   1.000  H
  C1294    1.0000 0.83643  0.62800  0.88090  Biso   1.000  C
  H833     1.0000 0.83120  0.65660  0.88790  Biso   1.000  H
  C1295    1.0000 0.67013  0.24060  0.58620  Biso   1.000  C
  C1296    1.0000 0.67454  0.51870  0.95300  Biso   1.000  C
  C1297    1.0000 0.74862  0.51490  0.81030  Biso   1.000  C
  C1298    1.0000 0.65867  0.35260  0.73900  Biso   1.000  C
  H834     1.0000 0.65070  0.34720  0.76340  Biso   1.000  H
  C1299    1.0000 0.86975  0.27260  0.81900  Biso   1.000  C
  C1300    1.0000 0.70545  0.52880  0.98210  Biso   1.000  C
  H835     1.0000 0.70100  0.55260  0.00060  Biso   1.000  H
  C1301    1.0000 0.69182  0.48990  0.81390  Biso   1.000  C
  C1302    1.0000 0.84662  0.32570  0.86800  Biso   1.000  C
  C1303    1.0000 0.88497  0.35660  0.64300  Biso   1.000  C
  C1304    1.0000 0.81496  0.48000  0.99900  Biso   1.000  C
  C1305    1.0000 0.83824  0.53190  0.00490  Biso   1.000  C
  H836     1.0000 0.84780  0.54740  0.99070  Biso   1.000  H
  C1306    1.0000 0.67088  0.32670  0.66990  Biso   1.000  C
  C1307    1.0000 0.74998  0.47210  0.96180  Biso   1.000  C
  C1308    1.0000 0.66038  0.32170  0.70770  Biso   1.000  C
  H837     1.0000 0.65400  0.29400  0.71120  Biso   1.000  H
  C1309    1.0000 0.86593  0.41480  0.70110  Biso   1.000  C
  C1310    1.0000 0.78629  0.45610  0.96810  Biso   1.000  C
  C1311    1.0000 0.68014  0.36640  0.66750  Biso   1.000  C
  H838     1.0000 0.68780  0.37210  0.64260  Biso   1.000  H
  C1312    1.0000 0.85782  0.57080  0.88760  Biso   1.000  C
  H839     1.0000 0.86860  0.55930  0.90020  Biso   1.000  H
  C1313    1.0000 0.67234  0.29820  0.63290  Biso   1.000  C
  C1314    1.0000 0.83434  0.35670  0.89660  Biso   1.000  C
  C1315    1.0000 0.81195  0.48690  0.04080  Biso   1.000  C
  H840     1.0000 0.80210  0.47110  0.05340  Biso   1.000  H
  C1316    1.0000 0.82906  0.50500  0.98100  Biso   1.000  C
  H841     1.0000 0.83190  0.50170  0.94990  Biso   1.000  H
  C1317    1.0000 0.77661  0.52200  0.85080  Biso   1.000  C
  H842     1.0000 0.77030  0.52300  0.87860  Biso   1.000  H
  C1318    1.0000 0.83991  0.42790  0.75030  Biso   1.000  C
  H843     1.0000 0.83590  0.39790  0.74440  Biso   1.000  H
  C1319    1.0000 0.72381  0.51890  0.98090  Biso   1.000  C
  H844     1.0000 0.73190  0.53820  0.99650  Biso   1.000  H
  C1320    1.0000 0.84935  0.51930  0.76030  Biso   1.000  C
  H845     1.0000 0.85200  0.55090  0.76180  Biso   1.000  H
  C1321    1.0000 0.85897  0.49080  0.73680  Biso   1.000  C
  H846     1.0000 0.86940  0.50270  0.72280  Biso   1.000  H
  C1322    1.0000 0.64530  0.19440  0.55350  Biso   1.000  C
  H847     1.0000 0.63620  0.21350  0.56580  Biso   1.000  H
  C1323    1.0000 0.77763  0.52130  0.77190  Biso   1.000  C
  H848     1.0000 0.77150  0.52170  0.74370  Biso   1.000  H
  C1324    1.0000 0.86203  0.64140  0.08480  Biso   1.000  C
  H849     1.0000 0.86500  0.67050  0.07300  Biso   1.000  H
  C1325    1.0000 0.82113  0.51400  0.06910  Biso   1.000  C
  H850     1.0000 0.81840  0.51560  0.10040  Biso   1.000  H
  C1326    1.0000 0.85238  0.61700  0.90040  Biso   1.000  C
  C1327    1.0000 0.76779  0.51800  0.81380  Biso   1.000  C
  C1328    1.0000 0.76150  0.50780  0.96940  Biso   1.000  C
  H851     1.0000 0.75700  0.53780  0.97250  Biso   1.000  H
  C1329    1.0000 0.67440  0.16690  0.54600  Biso   1.000  C
  H852     1.0000 0.68680  0.17330  0.54920  Biso   1.000  H
  C1330    1.0000 0.86494  0.32140  0.88050  Biso   1.000  C
  H853     1.0000 0.86970  0.33710  0.90590  Biso   1.000  H
  C1331    1.0000 0.87900  0.66330  0.15160  Biso   1.000  C
  C1332    1.0000 0.82802  0.39260  0.96790  Biso   1.000  C
  H854     1.0000 0.83060  0.39700  0.99910  Biso   1.000  H
  C1333    1.0000 0.64140  0.15470  0.52480  Biso   1.000  C
  H855     1.0000 0.63050  0.15530  0.50830  Biso   1.000  H
  C1334    1.0000 0.86777  0.62980  0.12490  Biso   1.000  C
  C1335    1.0000 0.67080  0.12400  0.52710  Biso   1.000  C
  H856     1.0000 0.67960  0.10210  0.52000  Biso   1.000  H
  C1336    1.0000 0.86311  0.64440  0.92950  Biso   1.000  C
  C1337    1.0000 0.75603  0.42940  0.95410  Biso   1.000  C
  H857     1.0000 0.74800  0.40530  0.94750  Biso   1.000  H
  C1338    1.0000 0.85146  0.27860  0.80650  Biso   1.000  C
  H858     1.0000 0.84680  0.26330  0.78080  Biso   1.000  H
  C1339    1.0000 0.74042  0.49210  0.77790  Biso   1.000  C
  H859     1.0000 0.74720  0.48090  0.75320  Biso   1.000  H
  C1340    1.0000 0.69461  0.50400  0.95680  Biso   1.000  C
  C1341    1.0000 0.79579  0.52520  0.85140  Biso   1.000  C
  H860     1.0000 0.80220  0.52590  0.87920  Biso   1.000  H
  C1342    1.0000 0.83801  0.36350  0.94380  Biso   1.000  C
  H861     1.0000 0.84750  0.34740  0.95790  Biso   1.000  H
  C1343    1.0000 0.79588  0.52390  0.77340  Biso   1.000  C
  H862     1.0000 0.80250  0.52340  0.74600  Biso   1.000  H
  C1344    1.0000 0.87963  0.24260  0.79080  Biso   1.000  C
  C1345    1.0000 0.77560  0.42160  0.95630  Biso   1.000  C
  H863     1.0000 0.78040  0.39250  0.94950  Biso   1.000  H
  C1346    1.0000 0.86921  0.36870  0.71110  Biso   1.000  C
  H864     1.0000 0.86500  0.35620  0.73870  Biso   1.000  H
  C1347    1.0000 0.84055  0.30680  0.83210  Biso   1.000  C
  H865     1.0000 0.82860  0.31220  0.82290  Biso   1.000  H
  C1348    1.0000 0.87529  0.29420  0.85460  Biso   1.000  C
  H866     1.0000 0.88740  0.29070  0.86300  Biso   1.000  H
  C1349    1.0000 0.77972  0.50000  0.97260  Biso   1.000  C
  H867     1.0000 0.78760  0.52470  0.97780  Biso   1.000  H
  C1350    1.0000 0.73785  0.53210  0.84580  Biso   1.000  C
  H868     1.0000 0.74340  0.54930  0.86910  Biso   1.000  H
  N113     1.0000 0.66292  0.25770  0.62540  Biso   1.000  N
  N114     1.0000 0.66744  0.39050  0.73770  Biso   1.000  N
  N115     1.0000 0.68306  0.30230  0.59750  Biso   1.000  N
  N116     1.0000 0.65007  0.23940  0.65240  Biso   1.000  N
  H869     1.0000 0.64530  0.21300  0.64540  Biso   1.000  H
  H870     1.0000 0.64660  0.25400  0.67680  Biso   1.000  H
  N117     1.0000 0.65180  0.11730  0.51960  Biso   1.000  N
  N118     1.0000 0.68198  0.26870  0.56840  Biso   1.000  N
  N119     1.0000 0.82407  0.53310  0.81020  Biso   1.000  N
  N120     1.0000 0.80481  0.44930  0.97290  Biso   1.000  N
  O169     1.0000 0.87575  0.22320  0.75710  Biso   1.000  O
  O170     1.0000 0.89506  0.77370  0.00500  Biso   1.000  O
  O171     1.0000 0.90185  0.71300  0.04780  Biso   1.000  O
  O172     1.0000 0.66481  0.49540  0.92700  Biso   1.000  O
  O173     1.0000 0.89213  0.28670  0.61330  Biso   1.000  O
  O174     1.0000 0.67038  0.54850  0.97980  Biso   1.000  O
  O175     1.0000 0.90529  0.34770  0.58350  Biso   1.000  O
  O176     1.0000 0.88272  0.70140  0.13650  Biso   1.000  O
  O177     1.0000 0.88400  0.65070  0.19080  Biso   1.000  O
  O178     1.0000 0.68380  0.50440  0.84690  Biso   1.000  O
  O179     1.0000 0.89745  0.23460  0.80710  Biso   1.000  O
  O180     1.0000 0.68629  0.46720  0.78440  Biso   1.000  O
  Cu43     1.0000 0.66305  0.44067  0.78400  Biso   1.000  Cu
  Cu44     1.0000 0.64554  0.56361  0.98610  Biso   1.000  Cu
  Cu45     1.0000 0.65700  0.52168  0.86606  Biso   1.000  Cu
  C1351    1.0000 0.82028  0.87710  0.37830  Biso   1.000  C
  H871     1.0000 0.81690  0.87030  0.34800  Biso   1.000  H
  C1352    1.0000 0.88477  0.15760  0.48590  Biso   1.000  C
  H872     1.0000 0.89280  0.14520  0.50750  Biso   1.000  H
  C1353    1.0000 0.81060  0.90800  0.40300  Biso   1.000  C
  H873     1.0000 0.80120  0.92410  0.38860  Biso   1.000  H
  C1354    1.0000 0.83008  0.95600  0.27970  Biso   1.000  C
  H874     1.0000 0.82040  0.94300  0.29610  Biso   1.000  H
  C1355    1.0000 0.87836  0.84170  0.18140  Biso   1.000  C
  H875     1.0000 0.88000  0.81050  0.18890  Biso   1.000  H
  C1356    1.0000 0.88400  0.90430  0.13450  Biso   1.000  C
  H876     1.0000 0.89020  0.91700  0.10940  Biso   1.000  H
  C1357    1.0000 0.83301  0.06010  0.33930  Biso   1.000  C
  C1358    1.0000 0.89422  0.23340  0.51500  Biso   1.000  C
  C1359    1.0000 0.87044  0.21670  0.45840  Biso   1.000  C
  H877     1.0000 0.86760  0.24830  0.45950  Biso   1.000  H
  C1360    1.0000 0.83364  0.99880  0.28520  Biso   1.000  C
  C1361    1.0000 0.80426  0.02700  0.31180  Biso   1.000  C
  C1362    1.0000 0.89463  0.82850  0.11250  Biso   1.000  C
  C1363    1.0000 0.82766  0.09970  0.35190  Biso   1.000  C
  H878     1.0000 0.81670  0.11010  0.33990  Biso   1.000  H
  C1364    1.0000 0.69951  0.96410  0.43620  Biso   1.000  C
  H879     1.0000 0.69090  0.94480  0.42260  Biso   1.000  H
  C1365    1.0000 0.66330  0.70140  0.06100  Biso   1.000  C
  C1366    1.0000 0.71207  0.00010  0.31380  Biso   1.000  C
  C1367    1.0000 0.71984  0.02510  0.34820  Biso   1.000  C
  H880     1.0000 0.71300  0.03690  0.37250  Biso   1.000  H
  C1368    1.0000 0.86283  0.09110  0.64580  Biso   1.000  C
  H881     1.0000 0.86640  0.08410  0.67580  Biso   1.000  H
  C1369    1.0000 0.84895  0.04430  0.36020  Biso   1.000  C
  H882     1.0000 0.85310  0.01430  0.35420  Biso   1.000  H
  C1370    1.0000 0.87564  0.12690  0.45790  Biso   1.000  C
  H883     1.0000 0.87810  0.09520  0.45870  Biso   1.000  H
  C1371    1.0000 0.86103  0.19170  0.42980  Biso   1.000  C
  H884     1.0000 0.85290  0.20580  0.40960  Biso   1.000  H
  C1372    1.0000 0.72985  0.98420  0.45890  Biso   1.000  C
  C1373    1.0000 0.87404  0.93230  0.16270  Biso   1.000  C
  H885     1.0000 0.87280  0.96370  0.15560  Biso   1.000  H
  C1374    1.0000 0.88305  0.20290  0.48490  Biso   1.000  C
  C1375    1.0000 0.85529  0.94320  0.22990  Biso   1.000  C
  C1376    1.0000 0.85189  0.06170  0.61970  Biso   1.000  C
  H886     1.0000 0.84830  0.03310  0.63160  Biso   1.000  H
  C1377    1.0000 0.84662  0.07440  0.57760  Biso   1.000  C
  C1378    1.0000 0.72134  0.98360  0.27900  Biso   1.000  C
  H887     1.0000 0.71560  0.96690  0.25560  Biso   1.000  H
  C1379    1.0000 0.71853  0.95220  0.43600  Biso   1.000  C
  H888     1.0000 0.72300  0.92550  0.42180  Biso   1.000  H
  C1380    1.0000 0.83532  0.04030  0.54950  Biso   1.000  C
  C1381    1.0000 0.81401  0.91670  0.44810  Biso   1.000  C
  C1382    1.0000 0.85168  0.11180  0.55910  Biso   1.000  C
  H889     1.0000 0.84850  0.11900  0.52880  Biso   1.000  H
  C1383    1.0000 0.67839  0.89990  0.20260  Biso   1.000  C
  H890     1.0000 0.68480  0.92780  0.20130  Biso   1.000  H
  C1384    1.0000 0.83643  0.12800  0.38090  Biso   1.000  C
  H891     1.0000 0.83120  0.15660  0.38790  Biso   1.000  H
  C1385    1.0000 0.67013  0.74060  0.08620  Biso   1.000  C
  C1386    1.0000 0.67454  0.01870  0.45300  Biso   1.000  C
  C1387    1.0000 0.74862  0.01490  0.31030  Biso   1.000  C
  C1388    1.0000 0.65867  0.85260  0.23900  Biso   1.000  C
  H892     1.0000 0.65070  0.84720  0.26340  Biso   1.000  H
  C1389    1.0000 0.86975  0.77260  0.31900  Biso   1.000  C
  C1390    1.0000 0.70545  0.02880  0.48210  Biso   1.000  C
  H893     1.0000 0.70100  0.05260  0.50060  Biso   1.000  H
  C1391    1.0000 0.69182  0.98990  0.31390  Biso   1.000  C
  C1392    1.0000 0.84662  0.82570  0.36800  Biso   1.000  C
  C1393    1.0000 0.88497  0.85660  0.14300  Biso   1.000  C
  C1394    1.0000 0.81496  0.98000  0.49900  Biso   1.000  C
  C1395    1.0000 0.83824  0.03190  0.50490  Biso   1.000  C
  H894     1.0000 0.84780  0.04740  0.49070  Biso   1.000  H
  C1396    1.0000 0.67088  0.82670  0.16990  Biso   1.000  C
  C1397    1.0000 0.74998  0.97210  0.46180  Biso   1.000  C
  C1398    1.0000 0.66038  0.82170  0.20770  Biso   1.000  C
  H895     1.0000 0.65400  0.79400  0.21120  Biso   1.000  H
  C1399    1.0000 0.86593  0.91480  0.20110  Biso   1.000  C
  C1400    1.0000 0.78629  0.95610  0.46810  Biso   1.000  C
  C1401    1.0000 0.68014  0.86640  0.16750  Biso   1.000  C
  H896     1.0000 0.68780  0.87210  0.14260  Biso   1.000  H
  C1402    1.0000 0.85782  0.07080  0.38760  Biso   1.000  C
  H897     1.0000 0.86860  0.05930  0.40020  Biso   1.000  H
  C1403    1.0000 0.67234  0.79820  0.13290  Biso   1.000  C
  C1404    1.0000 0.83434  0.85670  0.39660  Biso   1.000  C
  C1405    1.0000 0.81195  0.98690  0.54080  Biso   1.000  C
  H898     1.0000 0.80210  0.97110  0.55340  Biso   1.000  H
  C1406    1.0000 0.82906  0.00500  0.48100  Biso   1.000  C
  H899     1.0000 0.83190  0.00170  0.44990  Biso   1.000  H
  C1407    1.0000 0.77661  0.02200  0.35080  Biso   1.000  C
  H900     1.0000 0.77030  0.02300  0.37860  Biso   1.000  H
  C1408    1.0000 0.83991  0.92790  0.25030  Biso   1.000  C
  H901     1.0000 0.83590  0.89790  0.24440  Biso   1.000  H
  C1409    1.0000 0.72381  0.01890  0.48090  Biso   1.000  C
  H902     1.0000 0.73190  0.03820  0.49650  Biso   1.000  H
  C1410    1.0000 0.84935  0.01930  0.26030  Biso   1.000  C
  H903     1.0000 0.85200  0.05090  0.26180  Biso   1.000  H
  C1411    1.0000 0.85897  0.99080  0.23680  Biso   1.000  C
  H904     1.0000 0.86940  0.00270  0.22280  Biso   1.000  H
  C1412    1.0000 0.64530  0.69440  0.05350  Biso   1.000  C
  H905     1.0000 0.63620  0.71350  0.06580  Biso   1.000  H
  C1413    1.0000 0.77763  0.02130  0.27190  Biso   1.000  C
  H906     1.0000 0.77150  0.02170  0.24370  Biso   1.000  H
  C1414    1.0000 0.86203  0.14140  0.58480  Biso   1.000  C
  H907     1.0000 0.86500  0.17050  0.57300  Biso   1.000  H
  C1415    1.0000 0.82113  0.01400  0.56910  Biso   1.000  C
  H908     1.0000 0.81840  0.01560  0.60040  Biso   1.000  H
  C1416    1.0000 0.85238  0.11700  0.40040  Biso   1.000  C
  C1417    1.0000 0.76779  0.01800  0.31380  Biso   1.000  C
  C1418    1.0000 0.76150  0.00780  0.46940  Biso   1.000  C
  H909     1.0000 0.75700  0.03780  0.47250  Biso   1.000  H
  C1419    1.0000 0.67440  0.66690  0.04600  Biso   1.000  C
  H910     1.0000 0.68680  0.67330  0.04920  Biso   1.000  H
  C1420    1.0000 0.86494  0.82140  0.38050  Biso   1.000  C
  H911     1.0000 0.86970  0.83710  0.40590  Biso   1.000  H
  C1421    1.0000 0.87900  0.16330  0.65160  Biso   1.000  C
  C1422    1.0000 0.82802  0.89260  0.46790  Biso   1.000  C
  H912     1.0000 0.83060  0.89700  0.49910  Biso   1.000  H
  C1423    1.0000 0.64140  0.65470  0.02480  Biso   1.000  C
  H913     1.0000 0.63050  0.65530  0.00830  Biso   1.000  H
  C1424    1.0000 0.86777  0.12980  0.62490  Biso   1.000  C
  C1425    1.0000 0.67080  0.62400  0.02710  Biso   1.000  C
  H914     1.0000 0.67960  0.60210  0.02000  Biso   1.000  H
  C1426    1.0000 0.86311  0.14440  0.42950  Biso   1.000  C
  C1427    1.0000 0.75603  0.92940  0.45410  Biso   1.000  C
  H915     1.0000 0.74800  0.90530  0.44750  Biso   1.000  H
  C1428    1.0000 0.85146  0.77860  0.30650  Biso   1.000  C
  H916     1.0000 0.84680  0.76330  0.28080  Biso   1.000  H
  C1429    1.0000 0.74042  0.99210  0.27790  Biso   1.000  C
  H917     1.0000 0.74720  0.98090  0.25320  Biso   1.000  H
  C1430    1.0000 0.69461  0.00400  0.45680  Biso   1.000  C
  C1431    1.0000 0.79579  0.02520  0.35140  Biso   1.000  C
  H918     1.0000 0.80220  0.02590  0.37920  Biso   1.000  H
  C1432    1.0000 0.83801  0.86350  0.44380  Biso   1.000  C
  H919     1.0000 0.84750  0.84740  0.45790  Biso   1.000  H
  C1433    1.0000 0.79588  0.02390  0.27340  Biso   1.000  C
  H920     1.0000 0.80250  0.02340  0.24600  Biso   1.000  H
  C1434    1.0000 0.87963  0.74260  0.29080  Biso   1.000  C
  C1435    1.0000 0.77560  0.92160  0.45630  Biso   1.000  C
  H921     1.0000 0.78040  0.89250  0.44950  Biso   1.000  H
  C1436    1.0000 0.86921  0.86870  0.21110  Biso   1.000  C
  H922     1.0000 0.86500  0.85620  0.23870  Biso   1.000  H
  C1437    1.0000 0.84055  0.80680  0.33210  Biso   1.000  C
  H923     1.0000 0.82860  0.81220  0.32290  Biso   1.000  H
  C1438    1.0000 0.87529  0.79420  0.35460  Biso   1.000  C
  H924     1.0000 0.88740  0.79070  0.36300  Biso   1.000  H
  C1439    1.0000 0.77972  0.00000  0.47260  Biso   1.000  C
  H925     1.0000 0.78760  0.02470  0.47780  Biso   1.000  H
  C1440    1.0000 0.73785  0.03210  0.34580  Biso   1.000  C
  H926     1.0000 0.74340  0.04930  0.36910  Biso   1.000  H
  N121     1.0000 0.66292  0.75770  0.12540  Biso   1.000  N
  N122     1.0000 0.66744  0.89050  0.23770  Biso   1.000  N
  N123     1.0000 0.68306  0.80230  0.09750  Biso   1.000  N
  N124     1.0000 0.65007  0.73940  0.15240  Biso   1.000  N
  H927     1.0000 0.64530  0.71300  0.14540  Biso   1.000  H
  H928     1.0000 0.64660  0.75400  0.17680  Biso   1.000  H
  N125     1.0000 0.65180  0.61730  0.01960  Biso   1.000  N
  N126     1.0000 0.68198  0.76870  0.06840  Biso   1.000  N
  N127     1.0000 0.82407  0.03310  0.31020  Biso   1.000  N
  N128     1.0000 0.80481  0.94930  0.47290  Biso   1.000  N
  O181     1.0000 0.87575  0.72320  0.25710  Biso   1.000  O
  O182     1.0000 0.89506  0.27370  0.50500  Biso   1.000  O
  O183     1.0000 0.90185  0.21300  0.54780  Biso   1.000  O
  O184     1.0000 0.66481  0.99540  0.42700  Biso   1.000  O
  O185     1.0000 0.89213  0.78670  0.11330  Biso   1.000  O
  O186     1.0000 0.67038  0.04850  0.47980  Biso   1.000  O
  O187     1.0000 0.90529  0.84770  0.08350  Biso   1.000  O
  O188     1.0000 0.88272  0.20140  0.63650  Biso   1.000  O
  O189     1.0000 0.88400  0.15070  0.69080  Biso   1.000  O
  O190     1.0000 0.68380  0.00440  0.34690  Biso   1.000  O
  O191     1.0000 0.89745  0.73460  0.30710  Biso   1.000  O
  O192     1.0000 0.68629  0.96720  0.28440  Biso   1.000  O
  Cu46     1.0000 0.66305  0.94067  0.28400  Biso   1.000  Cu
  Cu47     1.0000 0.64554  0.06361  0.48610  Biso   1.000  Cu
  Cu48     1.0000 0.65700  0.02168  0.36606  Biso   1.000  Cu
