data_image0
_cell_length_a       74.91
_cell_length_b       29.614
_cell_length_c       29.755
_cell_angle_alpha    90
_cell_angle_beta     90
_cell_angle_gamma    90

_symmetry_space_group_name_H-M    "P 1"
_symmetry_int_tables_number       1

loop_
  _symmetry_equiv_pos_as_xyz
  'x, y, z'

loop_
  _atom_site_label
  _atom_site_occupancy
  _atom_site_fract_x
  _atom_site_fract_y
  _atom_site_fract_z
  _atom_site_thermal_displace_type
  _atom_site_B_iso_or_equiv
  _atom_site_type_symbol
  C1       1.0000 0.07520  0.91490  0.45620  Biso   1.000  C
  H1       1.0000 0.06320  0.91840  0.46600  Biso   1.000  H
  C2       1.0000 0.10807  0.90430  0.42880  Biso   1.000  C
  H2       1.0000 0.12000  0.90150  0.41850  Biso   1.000  H
  C3       1.0000 0.14418  0.56000  0.38340  Biso   1.000  C
  C4       1.0000 0.07960  0.87280  0.43460  Biso   1.000  C
  H3       1.0000 0.07140  0.84890  0.42960  Biso   1.000  H
  C5       1.0000 0.20398  0.47660  0.50560  Biso   1.000  C
  H4       1.0000 0.19770  0.47650  0.53330  Biso   1.000  H
  C6       1.0000 0.08692  0.95140  0.46410  Biso   1.000  C
  C7       1.0000 0.08029  0.99170  0.48840  Biso   1.000  C
  C8       1.0000 0.16596  0.50200  0.43800  Biso   1.000  C
  C9       1.0000 0.22262  0.47940  0.50300  Biso   1.000  C
  H5       1.0000 0.22910  0.47980  0.53050  Biso   1.000  H
  C10      1.0000 0.15926  0.57500  0.40580  Biso   1.000  C
  H6       1.0000 0.16300  0.60540  0.40220  Biso   1.000  H
  C11      1.0000 0.10346  0.94650  0.45100  Biso   1.000  C
  H7       1.0000 0.11210  0.96950  0.45580  Biso   1.000  H
  C12      1.0000 0.09194  0.10310  0.64110  Biso   1.000  C
  H8       1.0000 0.10000  0.09840  0.66530  Biso   1.000  H
  C13      1.0000 0.10531  0.67230  0.26310  Biso   1.000  C
  C14      1.0000 0.11445  0.64230  0.29620  Biso   1.000  C
  C15      1.0000 0.12135  0.65880  0.33550  Biso   1.000  C
  H9       1.0000 0.11950  0.68960  0.34290  Biso   1.000  H
  C16      1.0000 0.13068  0.63230  0.36390  Biso   1.000  C
  H10      1.0000 0.13510  0.64510  0.39100  Biso   1.000  H
  C17      1.0000 0.13405  0.58710  0.35500  Biso   1.000  C
  C18      1.0000 0.12559  0.56940  0.31640  Biso   1.000  C
  H11      1.0000 0.12660  0.53810  0.31000  Biso   1.000  H
  C19      1.0000 0.11583  0.59680  0.28740  Biso   1.000  C
  H12      1.0000 0.11020  0.58420  0.26170  Biso   1.000  H
  C20      1.0000 0.07903  0.07790  0.57240  Biso   1.000  C
  C21      1.0000 0.09031  0.07150  0.61050  Biso   1.000  C
  H13      1.0000 0.09670  0.04400  0.61380  Biso   1.000  H
  C22      1.0000 0.16915  0.54580  0.43390  Biso   1.000  C
  H14      1.0000 0.17870  0.55830  0.45100  Biso   1.000  H
  C23      1.0000 0.06980  0.11720  0.56980  Biso   1.000  C
  H15      1.0000 0.06220  0.12350  0.54510  Biso   1.000  H
  C24      1.0000 0.15047  0.48290  0.41390  Biso   1.000  C
  H16      1.0000 0.14760  0.45160  0.41500  Biso   1.000  H
  C25      1.0000 0.14078  0.51190  0.39060  Biso   1.000  C
  H17      1.0000 0.13030  0.50000  0.37680  Biso   1.000  H
  C26      1.0000 0.30874  0.51120  0.46630  Biso   1.000  C
  C27      1.0000 0.28813  0.50100  0.46520  Biso   1.000  C
  C28      1.0000 0.27799  0.51690  0.42930  Biso   1.000  C
  H18      1.0000 0.28350  0.53330  0.40560  Biso   1.000  H
  C29      1.0000 0.25991  0.50860  0.42850  Biso   1.000  C
  H19      1.0000 0.25300  0.51790  0.40330  Biso   1.000  H
  C30      1.0000 0.25151  0.48660  0.46460  Biso   1.000  C
  C31      1.0000 0.26231  0.47160  0.49930  Biso   1.000  C
  H20      1.0000 0.25670  0.45730  0.52420  Biso   1.000  H
  C32      1.0000 0.27990  0.47580  0.50000  Biso   1.000  C
  H21      1.0000 0.28680  0.46230  0.52320  Biso   1.000  H
  C33      1.0000 0.23200  0.48140  0.46460  Biso   1.000  C
  C34      1.0000 0.22173  0.48070  0.42440  Biso   1.000  C
  H22      1.0000 0.22740  0.48220  0.39590  Biso   1.000  H
  C35      1.0000 0.20393  0.47800  0.42730  Biso   1.000  C
  H23      1.0000 0.19730  0.47890  0.40010  Biso   1.000  H
  C36      1.0000 0.19530  0.47420  0.46420  Biso   1.000  C
  C37      1.0000 0.07203  0.14870  0.60560  Biso   1.000  C
  H24      1.0000 0.06550  0.17620  0.60490  Biso   1.000  H
  C38      1.0000 0.07769  0.04640  0.53490  Biso   1.000  C
  C39      1.0000 0.10548  0.26870  0.66730  Biso   1.000  C
  C40      1.0000 0.11675  0.29920  0.63740  Biso   1.000  C
  C41      1.0000 0.12946  0.28260  0.60870  Biso   1.000  C
  H25      1.0000 0.13180  0.25100  0.60750  Biso   1.000  H
  C42      1.0000 0.13856  0.31100  0.58250  Biso   1.000  C
  H26      1.0000 0.14700  0.29810  0.56240  Biso   1.000  H
  C43      1.0000 0.13691  0.35610  0.58170  Biso   1.000  C
  C44      1.0000 0.12348  0.37340  0.61090  Biso   1.000  C
  H27      1.0000 0.12100  0.40490  0.61140  Biso   1.000  H
  C45      1.0000 0.11429  0.34480  0.63800  Biso   1.000  C
  H28      1.0000 0.10580  0.35700  0.65830  Biso   1.000  H
  C46      1.0000 0.14754  0.38550  0.55310  Biso   1.000  C
  C47      1.0000 0.16425  0.37390  0.53430  Biso   1.000  C
  H29      1.0000 0.16950  0.34580  0.54230  Biso   1.000  H
  C48      1.0000 0.17276  0.40030  0.50640  Biso   1.000  C
  H30      1.0000 0.18360  0.38980  0.49370  Biso   1.000  H
  C49      1.0000 0.16673  0.44310  0.49450  Biso   1.000  C
  C50      1.0000 0.15070  0.45750  0.51340  Biso   1.000  C
  H31      1.0000 0.14630  0.48690  0.50670  Biso   1.000  H
  C51      1.0000 0.14095  0.42920  0.54220  Biso   1.000  C
  H32      1.0000 0.12990  0.43930  0.55440  Biso   1.000  H
  N1       1.0000 0.17605  0.47010  0.46390  Biso   1.000  N
  N2       1.0000 0.08294  0.14108  0.63980  Biso   1.000  N
  N3       1.0000 0.08697  0.00857  0.52700  Biso   1.000  N
  N4       1.0000 0.06775  0.01650  0.47210  Biso   1.000  N
  N5       1.0000 0.06621  0.05130  0.50130  Biso   1.000  N
  N6       1.0000 0.10035  0.98910  0.55430  Biso   1.000  N
  H33      1.0000 0.10340  0.00200  0.57970  Biso   1.000  H
  H34      1.0000 0.10560  0.96390  0.54580  Biso   1.000  H
  N7       1.0000 0.09799  0.87150  0.42180  Biso   1.000  N
  O1       1.0000 0.09452  0.65327  0.23550  Biso   1.000  O
  O2       1.0000 0.10817  0.71348  0.26500  Biso   1.000  O
  O3       1.0000 0.09775  0.28696  0.69980  Biso   1.000  O
  O4       1.0000 0.10563  0.22745  0.65740  Biso   1.000  O
  O5       1.0000 0.31377  0.53271  0.43570  Biso   1.000  O
  O6       1.0000 0.31670  0.49660  0.49900  Biso   1.000  O
  Zn1      1.0000 0.08733  0.19071  0.68550  Biso   1.000  Zn
  Zn2      1.0000 0.09303  0.27147  0.76790  Biso   1.000  Zn
  C52      1.0000 0.12087  0.33710  0.80360  Biso   1.000  C
  C53      1.0000 0.13223  0.36940  0.77730  Biso   1.000  C
  C54      1.0000 0.13804  0.35670  0.73500  Biso   1.000  C
  H35      1.0000 0.13490  0.32810  0.72280  Biso   1.000  H
  C55      1.0000 0.14878  0.38700  0.71040  Biso   1.000  C
  H36      1.0000 0.15280  0.37910  0.68110  Biso   1.000  H
  C56      1.0000 0.15353  0.42810  0.72850  Biso   1.000  C
  C57      1.0000 0.14833  0.44010  0.77090  Biso   1.000  C
  H37      1.0000 0.15230  0.46780  0.78360  Biso   1.000  H
  C58      1.0000 0.13693  0.41100  0.79610  Biso   1.000  C
  H38      1.0000 0.13270  0.41960  0.82490  Biso   1.000  H
  C59      1.0000 0.16456  0.46100  0.70160  Biso   1.000  C
  C60      1.0000 0.16129  0.46660  0.65470  Biso   1.000  C
  H39      1.0000 0.15220  0.44960  0.64010  Biso   1.000  H
  C61      1.0000 0.17122  0.49620  0.63150  Biso   1.000  C
  H40      1.0000 0.16900  0.50060  0.60040  Biso   1.000  H
  C62      1.0000 0.18462  0.52050  0.65240  Biso   1.000  C
  C63      1.0000 0.18843  0.51470  0.69660  Biso   1.000  C
  H41      1.0000 0.19810  0.53080  0.70950  Biso   1.000  H
  C64      1.0000 0.17868  0.48630  0.72300  Biso   1.000  C
  H42      1.0000 0.18110  0.48330  0.75420  Biso   1.000  H
  C65      1.0000 0.11905  0.76060  0.44320  Biso   1.000  C
  C66      1.0000 0.13077  0.72990  0.47110  Biso   1.000  C
  C67      1.0000 0.14728  0.72330  0.45790  Biso   1.000  C
  H43      1.0000 0.15150  0.73660  0.43090  Biso   1.000  H
  C68      1.0000 0.15908  0.69530  0.48550  Biso   1.000  C
  H44      1.0000 0.17120  0.69200  0.47710  Biso   1.000  H
  C69      1.0000 0.15321  0.67490  0.52110  Biso   1.000  C
  C70      1.0000 0.13487  0.68050  0.53440  Biso   1.000  C
  H45      1.0000 0.13030  0.66640  0.56070  Biso   1.000  H
  C71      1.0000 0.12423  0.70710  0.50750  Biso   1.000  C
  H46      1.0000 0.11190  0.70980  0.51450  Biso   1.000  H
  C72      1.0000 0.16540  0.64420  0.54900  Biso   1.000  C
  C73      1.0000 0.17929  0.62340  0.53160  Biso   1.000  C
  H47      1.0000 0.18270  0.63100  0.50180  Biso   1.000  H
  C74      1.0000 0.18929  0.59070  0.55410  Biso   1.000  C
  H48      1.0000 0.19800  0.57290  0.53890  Biso   1.000  H
  C75      1.0000 0.18601  0.58560  0.59870  Biso   1.000  C
  C76      1.0000 0.17163  0.60970  0.61980  Biso   1.000  C
  H49      1.0000 0.16920  0.60460  0.65070  Biso   1.000  H
  C77      1.0000 0.16187  0.63840  0.59750  Biso   1.000  C
  H50      1.0000 0.15270  0.65500  0.61200  Biso   1.000  H
  C78      1.0000 0.32510  0.48310  0.60550  Biso   1.000  C
  C79      1.0000 0.30561  0.49650  0.60830  Biso   1.000  C
  C80      1.0000 0.29394  0.46820  0.63090  Biso   1.000  C
  H51      1.0000 0.29810  0.44160  0.64530  Biso   1.000  H
  C81      1.0000 0.27588  0.47970  0.63190  Biso   1.000  C
  H52      1.0000 0.26770  0.46040  0.64700  Biso   1.000  H
  C82      1.0000 0.26979  0.51730  0.61220  Biso   1.000  C
  C83      1.0000 0.28120  0.54620  0.58980  Biso   1.000  C
  H53      1.0000 0.27660  0.57260  0.57580  Biso   1.000  H
  C84      1.0000 0.30027  0.53620  0.58770  Biso   1.000  C
  H54      1.0000 0.30850  0.55570  0.57310  Biso   1.000  H
  C85      1.0000 0.25016  0.52840  0.61390  Biso   1.000  C
  C86      1.0000 0.23813  0.49260  0.62210  Biso   1.000  C
  H55      1.0000 0.24250  0.46280  0.62640  Biso   1.000  H
  C87      1.0000 0.22017  0.50070  0.62400  Biso   1.000  C
  H56      1.0000 0.21210  0.47640  0.62850  Biso   1.000  H
  C88      1.0000 0.21373  0.54480  0.61930  Biso   1.000  C
  C89      1.0000 0.22505  0.57890  0.61170  Biso   1.000  C
  H57      1.0000 0.22050  0.60870  0.60870  Biso   1.000  H
  C90      1.0000 0.24397  0.57150  0.60810  Biso   1.000  C
  H58      1.0000 0.25190  0.59570  0.60180  Biso   1.000  H
  N8       1.0000 0.19508  0.55390  0.62520  Biso   1.000  N
  O7       1.0000 0.33551  0.50433  0.58030  Biso   1.000  O
  O8       1.0000 0.32948  0.45060  0.63080  Biso   1.000  O
  O9       1.0000 0.11776  0.29896  0.78720  Biso   1.000  O
  O10      1.0000 0.11601  0.35083  0.84100  Biso   1.000  O
  O11      1.0000 0.12407  0.77708  0.40900  Biso   1.000  O
  O12      1.0000 0.10249  0.76830  0.46060  Biso   1.000  O
  Zn3      1.0000 0.10448  0.81473  0.38770  Biso   1.000  Zn
  C91      1.0000 0.07520  0.41490  0.95620  Biso   1.000  C
  H59      1.0000 0.06320  0.41840  0.96600  Biso   1.000  H
  C92      1.0000 0.10807  0.40430  0.92880  Biso   1.000  C
  H60      1.0000 0.12000  0.40150  0.91850  Biso   1.000  H
  C93      1.0000 0.14418  0.06000  0.88340  Biso   1.000  C
  C94      1.0000 0.07960  0.37280  0.93460  Biso   1.000  C
  H61      1.0000 0.07140  0.34890  0.92960  Biso   1.000  H
  C95      1.0000 0.20398  0.97660  0.00560  Biso   1.000  C
  H62      1.0000 0.19770  0.97650  0.03330  Biso   1.000  H
  C96      1.0000 0.08692  0.45140  0.96410  Biso   1.000  C
  C97      1.0000 0.08029  0.49170  0.98840  Biso   1.000  C
  C98      1.0000 0.16596  0.00200  0.93800  Biso   1.000  C
  C99      1.0000 0.22262  0.97940  0.00300  Biso   1.000  C
  H63      1.0000 0.22910  0.97980  0.03050  Biso   1.000  H
  C100     1.0000 0.15926  0.07500  0.90580  Biso   1.000  C
  H64      1.0000 0.16300  0.10540  0.90220  Biso   1.000  H
  C101     1.0000 0.10346  0.44650  0.95100  Biso   1.000  C
  H65      1.0000 0.11210  0.46950  0.95580  Biso   1.000  H
  C102     1.0000 0.09194  0.60310  0.14110  Biso   1.000  C
  H66      1.0000 0.10000  0.59840  0.16530  Biso   1.000  H
  C103     1.0000 0.10531  0.17230  0.76310  Biso   1.000  C
  C104     1.0000 0.11445  0.14230  0.79620  Biso   1.000  C
  C105     1.0000 0.12135  0.15880  0.83550  Biso   1.000  C
  H67      1.0000 0.11950  0.18960  0.84290  Biso   1.000  H
  C106     1.0000 0.13068  0.13230  0.86390  Biso   1.000  C
  H68      1.0000 0.13510  0.14510  0.89100  Biso   1.000  H
  C107     1.0000 0.13405  0.08710  0.85500  Biso   1.000  C
  C108     1.0000 0.12559  0.06940  0.81640  Biso   1.000  C
  H69      1.0000 0.12660  0.03810  0.81000  Biso   1.000  H
  C109     1.0000 0.11583  0.09680  0.78740  Biso   1.000  C
  H70      1.0000 0.11020  0.08420  0.76170  Biso   1.000  H
  C110     1.0000 0.07903  0.57790  0.07240  Biso   1.000  C
  C111     1.0000 0.09031  0.57150  0.11050  Biso   1.000  C
  H71      1.0000 0.09670  0.54400  0.11380  Biso   1.000  H
  C112     1.0000 0.16915  0.04580  0.93390  Biso   1.000  C
  H72      1.0000 0.17870  0.05830  0.95100  Biso   1.000  H
  C113     1.0000 0.06980  0.61720  0.06980  Biso   1.000  C
  H73      1.0000 0.06220  0.62350  0.04510  Biso   1.000  H
  C114     1.0000 0.15047  0.98290  0.91390  Biso   1.000  C
  H74      1.0000 0.14760  0.95160  0.91500  Biso   1.000  H
  C115     1.0000 0.14078  0.01190  0.89060  Biso   1.000  C
  H75      1.0000 0.13030  0.00000  0.87680  Biso   1.000  H
  C116     1.0000 0.30874  0.01120  0.96630  Biso   1.000  C
  C117     1.0000 0.28813  0.00100  0.96520  Biso   1.000  C
  C118     1.0000 0.27799  0.01690  0.92930  Biso   1.000  C
  H76      1.0000 0.28350  0.03330  0.90560  Biso   1.000  H
  C119     1.0000 0.25991  0.00860  0.92850  Biso   1.000  C
  H77      1.0000 0.25300  0.01790  0.90330  Biso   1.000  H
  C120     1.0000 0.25151  0.98660  0.96460  Biso   1.000  C
  C121     1.0000 0.26231  0.97160  0.99930  Biso   1.000  C
  H78      1.0000 0.25670  0.95730  0.02420  Biso   1.000  H
  C122     1.0000 0.27990  0.97580  0.00000  Biso   1.000  C
  H79      1.0000 0.28680  0.96230  0.02320  Biso   1.000  H
  C123     1.0000 0.23200  0.98140  0.96460  Biso   1.000  C
  C124     1.0000 0.22173  0.98070  0.92440  Biso   1.000  C
  H80      1.0000 0.22740  0.98220  0.89590  Biso   1.000  H
  C125     1.0000 0.20393  0.97800  0.92730  Biso   1.000  C
  H81      1.0000 0.19730  0.97890  0.90010  Biso   1.000  H
  C126     1.0000 0.19530  0.97420  0.96420  Biso   1.000  C
  C127     1.0000 0.07203  0.64870  0.10560  Biso   1.000  C
  H82      1.0000 0.06550  0.67620  0.10490  Biso   1.000  H
  C128     1.0000 0.07769  0.54640  0.03490  Biso   1.000  C
  C129     1.0000 0.10548  0.76870  0.16730  Biso   1.000  C
  C130     1.0000 0.11675  0.79920  0.13740  Biso   1.000  C
  C131     1.0000 0.12946  0.78260  0.10870  Biso   1.000  C
  H83      1.0000 0.13180  0.75100  0.10750  Biso   1.000  H
  C132     1.0000 0.13856  0.81100  0.08250  Biso   1.000  C
  H84      1.0000 0.14700  0.79810  0.06240  Biso   1.000  H
  C133     1.0000 0.13691  0.85610  0.08170  Biso   1.000  C
  C134     1.0000 0.12348  0.87340  0.11090  Biso   1.000  C
  H85      1.0000 0.12100  0.90490  0.11140  Biso   1.000  H
  C135     1.0000 0.11429  0.84480  0.13800  Biso   1.000  C
  H86      1.0000 0.10580  0.85700  0.15830  Biso   1.000  H
  C136     1.0000 0.14754  0.88550  0.05310  Biso   1.000  C
  C137     1.0000 0.16425  0.87390  0.03430  Biso   1.000  C
  H87      1.0000 0.16950  0.84580  0.04230  Biso   1.000  H
  C138     1.0000 0.17276  0.90030  0.00640  Biso   1.000  C
  H88      1.0000 0.18360  0.88980  0.99370  Biso   1.000  H
  C139     1.0000 0.16673  0.94310  0.99450  Biso   1.000  C
  C140     1.0000 0.15070  0.95750  0.01340  Biso   1.000  C
  H89      1.0000 0.14630  0.98690  0.00670  Biso   1.000  H
  C141     1.0000 0.14095  0.92920  0.04220  Biso   1.000  C
  H90      1.0000 0.12990  0.93930  0.05440  Biso   1.000  H
  N9       1.0000 0.17605  0.97010  0.96390  Biso   1.000  N
  N10      1.0000 0.08294  0.64108  0.13980  Biso   1.000  N
  N11      1.0000 0.08697  0.50857  0.02700  Biso   1.000  N
  N12      1.0000 0.06775  0.51650  0.97210  Biso   1.000  N
  N13      1.0000 0.06621  0.55130  0.00130  Biso   1.000  N
  N14      1.0000 0.10035  0.48910  0.05430  Biso   1.000  N
  H91      1.0000 0.10340  0.50200  0.07970  Biso   1.000  H
  H92      1.0000 0.10560  0.46390  0.04580  Biso   1.000  H
  N15      1.0000 0.09799  0.37150  0.92180  Biso   1.000  N
  O13      1.0000 0.09452  0.15327  0.73550  Biso   1.000  O
  O14      1.0000 0.10817  0.21348  0.76500  Biso   1.000  O
  O15      1.0000 0.09775  0.78696  0.19980  Biso   1.000  O
  O16      1.0000 0.10563  0.72745  0.15740  Biso   1.000  O
  O17      1.0000 0.31377  0.03271  0.93570  Biso   1.000  O
  O18      1.0000 0.31670  0.99660  0.99900  Biso   1.000  O
  Zn4      1.0000 0.08733  0.69071  0.18550  Biso   1.000  Zn
  Zn5      1.0000 0.09303  0.77147  0.26790  Biso   1.000  Zn
  C142     1.0000 0.12087  0.83710  0.30360  Biso   1.000  C
  C143     1.0000 0.13223  0.86940  0.27730  Biso   1.000  C
  C144     1.0000 0.13804  0.85670  0.23500  Biso   1.000  C
  H93      1.0000 0.13490  0.82810  0.22280  Biso   1.000  H
  C145     1.0000 0.14878  0.88700  0.21040  Biso   1.000  C
  H94      1.0000 0.15280  0.87910  0.18110  Biso   1.000  H
  C146     1.0000 0.15353  0.92810  0.22850  Biso   1.000  C
  C147     1.0000 0.14833  0.94010  0.27090  Biso   1.000  C
  H95      1.0000 0.15230  0.96780  0.28360  Biso   1.000  H
  C148     1.0000 0.13693  0.91100  0.29610  Biso   1.000  C
  H96      1.0000 0.13270  0.91960  0.32490  Biso   1.000  H
  C149     1.0000 0.16456  0.96100  0.20160  Biso   1.000  C
  C150     1.0000 0.16129  0.96660  0.15470  Biso   1.000  C
  H97      1.0000 0.15220  0.94960  0.14010  Biso   1.000  H
  C151     1.0000 0.17122  0.99620  0.13150  Biso   1.000  C
  H98      1.0000 0.16900  0.00060  0.10040  Biso   1.000  H
  C152     1.0000 0.18462  0.02050  0.15240  Biso   1.000  C
  C153     1.0000 0.18843  0.01470  0.19660  Biso   1.000  C
  H99      1.0000 0.19810  0.03080  0.20950  Biso   1.000  H
  C154     1.0000 0.17868  0.98630  0.22300  Biso   1.000  C
  H100     1.0000 0.18110  0.98330  0.25420  Biso   1.000  H
  C155     1.0000 0.11905  0.26060  0.94320  Biso   1.000  C
  C156     1.0000 0.13077  0.22990  0.97110  Biso   1.000  C
  C157     1.0000 0.14728  0.22330  0.95790  Biso   1.000  C
  H101     1.0000 0.15150  0.23660  0.93090  Biso   1.000  H
  C158     1.0000 0.15908  0.19530  0.98550  Biso   1.000  C
  H102     1.0000 0.17120  0.19200  0.97710  Biso   1.000  H
  C159     1.0000 0.15321  0.17490  0.02110  Biso   1.000  C
  C160     1.0000 0.13487  0.18050  0.03440  Biso   1.000  C
  H103     1.0000 0.13030  0.16640  0.06070  Biso   1.000  H
  C161     1.0000 0.12423  0.20710  0.00750  Biso   1.000  C
  H104     1.0000 0.11190  0.20980  0.01450  Biso   1.000  H
  C162     1.0000 0.16540  0.14420  0.04900  Biso   1.000  C
  C163     1.0000 0.17929  0.12340  0.03160  Biso   1.000  C
  H105     1.0000 0.18270  0.13100  0.00180  Biso   1.000  H
  C164     1.0000 0.18929  0.09070  0.05410  Biso   1.000  C
  H106     1.0000 0.19800  0.07290  0.03890  Biso   1.000  H
  C165     1.0000 0.18601  0.08560  0.09870  Biso   1.000  C
  C166     1.0000 0.17163  0.10970  0.11980  Biso   1.000  C
  H107     1.0000 0.16920  0.10460  0.15070  Biso   1.000  H
  C167     1.0000 0.16187  0.13840  0.09750  Biso   1.000  C
  H108     1.0000 0.15270  0.15500  0.11200  Biso   1.000  H
  C168     1.0000 0.32510  0.98310  0.10550  Biso   1.000  C
  C169     1.0000 0.30561  0.99650  0.10830  Biso   1.000  C
  C170     1.0000 0.29394  0.96820  0.13090  Biso   1.000  C
  H109     1.0000 0.29810  0.94160  0.14530  Biso   1.000  H
  C171     1.0000 0.27588  0.97970  0.13190  Biso   1.000  C
  H110     1.0000 0.26770  0.96040  0.14700  Biso   1.000  H
  C172     1.0000 0.26979  0.01730  0.11220  Biso   1.000  C
  C173     1.0000 0.28120  0.04620  0.08980  Biso   1.000  C
  H111     1.0000 0.27660  0.07260  0.07580  Biso   1.000  H
  C174     1.0000 0.30027  0.03620  0.08770  Biso   1.000  C
  H112     1.0000 0.30850  0.05570  0.07310  Biso   1.000  H
  C175     1.0000 0.25016  0.02840  0.11390  Biso   1.000  C
  C176     1.0000 0.23813  0.99260  0.12210  Biso   1.000  C
  H113     1.0000 0.24250  0.96280  0.12640  Biso   1.000  H
  C177     1.0000 0.22017  0.00070  0.12400  Biso   1.000  C
  H114     1.0000 0.21210  0.97640  0.12850  Biso   1.000  H
  C178     1.0000 0.21373  0.04480  0.11930  Biso   1.000  C
  C179     1.0000 0.22505  0.07890  0.11170  Biso   1.000  C
  H115     1.0000 0.22050  0.10870  0.10870  Biso   1.000  H
  C180     1.0000 0.24397  0.07150  0.10810  Biso   1.000  C
  H116     1.0000 0.25190  0.09570  0.10180  Biso   1.000  H
  N16      1.0000 0.19508  0.05390  0.12520  Biso   1.000  N
  O19      1.0000 0.33551  0.00433  0.08030  Biso   1.000  O
  O20      1.0000 0.32948  0.95060  0.13080  Biso   1.000  O
  O21      1.0000 0.11776  0.79896  0.28720  Biso   1.000  O
  O22      1.0000 0.11601  0.85083  0.34100  Biso   1.000  O
  O23      1.0000 0.12407  0.27708  0.90900  Biso   1.000  O
  O24      1.0000 0.10249  0.26830  0.96060  Biso   1.000  O
  Zn6      1.0000 0.10448  0.31473  0.88770  Biso   1.000  Zn
  C181     1.0000 0.57520  0.91490  0.95620  Biso   1.000  C
  H117     1.0000 0.56320  0.91840  0.96600  Biso   1.000  H
  C182     1.0000 0.60807  0.90430  0.92880  Biso   1.000  C
  H118     1.0000 0.62000  0.90150  0.91850  Biso   1.000  H
  C183     1.0000 0.64418  0.56000  0.88340  Biso   1.000  C
  C184     1.0000 0.57960  0.87280  0.93460  Biso   1.000  C
  H119     1.0000 0.57140  0.84890  0.92960  Biso   1.000  H
  C185     1.0000 0.70398  0.47660  0.00560  Biso   1.000  C
  H120     1.0000 0.69770  0.47650  0.03330  Biso   1.000  H
  C186     1.0000 0.58692  0.95140  0.96410  Biso   1.000  C
  C187     1.0000 0.58029  0.99170  0.98840  Biso   1.000  C
  C188     1.0000 0.66596  0.50200  0.93800  Biso   1.000  C
  C189     1.0000 0.72262  0.47940  0.00300  Biso   1.000  C
  H121     1.0000 0.72910  0.47980  0.03050  Biso   1.000  H
  C190     1.0000 0.65926  0.57500  0.90580  Biso   1.000  C
  H122     1.0000 0.66300  0.60540  0.90220  Biso   1.000  H
  C191     1.0000 0.60346  0.94650  0.95100  Biso   1.000  C
  H123     1.0000 0.61210  0.96950  0.95580  Biso   1.000  H
  C192     1.0000 0.59194  0.10310  0.14110  Biso   1.000  C
  H124     1.0000 0.60000  0.09840  0.16530  Biso   1.000  H
  C193     1.0000 0.60531  0.67230  0.76310  Biso   1.000  C
  C194     1.0000 0.61445  0.64230  0.79620  Biso   1.000  C
  C195     1.0000 0.62135  0.65880  0.83550  Biso   1.000  C
  H125     1.0000 0.61950  0.68960  0.84290  Biso   1.000  H
  C196     1.0000 0.63068  0.63230  0.86390  Biso   1.000  C
  H126     1.0000 0.63510  0.64510  0.89100  Biso   1.000  H
  C197     1.0000 0.63405  0.58710  0.85500  Biso   1.000  C
  C198     1.0000 0.62559  0.56940  0.81640  Biso   1.000  C
  H127     1.0000 0.62660  0.53810  0.81000  Biso   1.000  H
  C199     1.0000 0.61583  0.59680  0.78740  Biso   1.000  C
  H128     1.0000 0.61020  0.58420  0.76170  Biso   1.000  H
  C200     1.0000 0.57903  0.07790  0.07240  Biso   1.000  C
  C201     1.0000 0.59031  0.07150  0.11050  Biso   1.000  C
  H129     1.0000 0.59670  0.04400  0.11380  Biso   1.000  H
  C202     1.0000 0.66915  0.54580  0.93390  Biso   1.000  C
  H130     1.0000 0.67870  0.55830  0.95100  Biso   1.000  H
  C203     1.0000 0.56980  0.11720  0.06980  Biso   1.000  C
  H131     1.0000 0.56220  0.12350  0.04510  Biso   1.000  H
  C204     1.0000 0.65047  0.48290  0.91390  Biso   1.000  C
  H132     1.0000 0.64760  0.45160  0.91500  Biso   1.000  H
  C205     1.0000 0.64078  0.51190  0.89060  Biso   1.000  C
  H133     1.0000 0.63030  0.50000  0.87680  Biso   1.000  H
  C206     1.0000 0.80874  0.51120  0.96630  Biso   1.000  C
  C207     1.0000 0.78813  0.50100  0.96520  Biso   1.000  C
  C208     1.0000 0.77799  0.51690  0.92930  Biso   1.000  C
  H134     1.0000 0.78350  0.53330  0.90560  Biso   1.000  H
  C209     1.0000 0.75991  0.50860  0.92850  Biso   1.000  C
  H135     1.0000 0.75300  0.51790  0.90330  Biso   1.000  H
  C210     1.0000 0.75151  0.48660  0.96460  Biso   1.000  C
  C211     1.0000 0.76231  0.47160  0.99930  Biso   1.000  C
  H136     1.0000 0.75670  0.45730  0.02420  Biso   1.000  H
  C212     1.0000 0.77990  0.47580  0.00000  Biso   1.000  C
  H137     1.0000 0.78680  0.46230  0.02320  Biso   1.000  H
  C213     1.0000 0.73200  0.48140  0.96460  Biso   1.000  C
  C214     1.0000 0.72173  0.48070  0.92440  Biso   1.000  C
  H138     1.0000 0.72740  0.48220  0.89590  Biso   1.000  H
  C215     1.0000 0.70393  0.47800  0.92730  Biso   1.000  C
  H139     1.0000 0.69730  0.47890  0.90010  Biso   1.000  H
  C216     1.0000 0.69530  0.47420  0.96420  Biso   1.000  C
  C217     1.0000 0.57203  0.14870  0.10560  Biso   1.000  C
  H140     1.0000 0.56550  0.17620  0.10490  Biso   1.000  H
  C218     1.0000 0.57769  0.04640  0.03490  Biso   1.000  C
  C219     1.0000 0.60548  0.26870  0.16730  Biso   1.000  C
  C220     1.0000 0.61675  0.29920  0.13740  Biso   1.000  C
  C221     1.0000 0.62946  0.28260  0.10870  Biso   1.000  C
  H141     1.0000 0.63180  0.25100  0.10750  Biso   1.000  H
  C222     1.0000 0.63856  0.31100  0.08250  Biso   1.000  C
  H142     1.0000 0.64700  0.29810  0.06240  Biso   1.000  H
  C223     1.0000 0.63691  0.35610  0.08170  Biso   1.000  C
  C224     1.0000 0.62348  0.37340  0.11090  Biso   1.000  C
  H143     1.0000 0.62100  0.40490  0.11140  Biso   1.000  H
  C225     1.0000 0.61429  0.34480  0.13800  Biso   1.000  C
  H144     1.0000 0.60580  0.35700  0.15830  Biso   1.000  H
  C226     1.0000 0.64754  0.38550  0.05310  Biso   1.000  C
  C227     1.0000 0.66425  0.37390  0.03430  Biso   1.000  C
  H145     1.0000 0.66950  0.34580  0.04230  Biso   1.000  H
  C228     1.0000 0.67276  0.40030  0.00640  Biso   1.000  C
  H146     1.0000 0.68360  0.38980  0.99370  Biso   1.000  H
  C229     1.0000 0.66673  0.44310  0.99450  Biso   1.000  C
  C230     1.0000 0.65070  0.45750  0.01340  Biso   1.000  C
  H147     1.0000 0.64630  0.48690  0.00670  Biso   1.000  H
  C231     1.0000 0.64095  0.42920  0.04220  Biso   1.000  C
  H148     1.0000 0.62990  0.43930  0.05440  Biso   1.000  H
  N17      1.0000 0.67605  0.47010  0.96390  Biso   1.000  N
  N18      1.0000 0.58294  0.14108  0.13980  Biso   1.000  N
  N19      1.0000 0.58697  0.00857  0.02700  Biso   1.000  N
  N20      1.0000 0.56775  0.01650  0.97210  Biso   1.000  N
  N21      1.0000 0.56621  0.05130  0.00130  Biso   1.000  N
  N22      1.0000 0.60035  0.98910  0.05430  Biso   1.000  N
  H149     1.0000 0.60340  0.00200  0.07970  Biso   1.000  H
  H150     1.0000 0.60560  0.96390  0.04580  Biso   1.000  H
  N23      1.0000 0.59799  0.87150  0.92180  Biso   1.000  N
  O25      1.0000 0.59452  0.65327  0.73550  Biso   1.000  O
  O26      1.0000 0.60817  0.71348  0.76500  Biso   1.000  O
  O27      1.0000 0.59775  0.28696  0.19980  Biso   1.000  O
  O28      1.0000 0.60563  0.22745  0.15740  Biso   1.000  O
  O29      1.0000 0.81377  0.53271  0.93570  Biso   1.000  O
  O30      1.0000 0.81670  0.49660  0.99900  Biso   1.000  O
  Zn7      1.0000 0.58733  0.19071  0.18550  Biso   1.000  Zn
  Zn8      1.0000 0.59303  0.27147  0.26790  Biso   1.000  Zn
  C232     1.0000 0.62087  0.33710  0.30360  Biso   1.000  C
  C233     1.0000 0.63223  0.36940  0.27730  Biso   1.000  C
  C234     1.0000 0.63804  0.35670  0.23500  Biso   1.000  C
  H151     1.0000 0.63490  0.32810  0.22280  Biso   1.000  H
  C235     1.0000 0.64878  0.38700  0.21040  Biso   1.000  C
  H152     1.0000 0.65280  0.37910  0.18110  Biso   1.000  H
  C236     1.0000 0.65353  0.42810  0.22850  Biso   1.000  C
  C237     1.0000 0.64833  0.44010  0.27090  Biso   1.000  C
  H153     1.0000 0.65230  0.46780  0.28360  Biso   1.000  H
  C238     1.0000 0.63693  0.41100  0.29610  Biso   1.000  C
  H154     1.0000 0.63270  0.41960  0.32490  Biso   1.000  H
  C239     1.0000 0.66456  0.46100  0.20160  Biso   1.000  C
  C240     1.0000 0.66129  0.46660  0.15470  Biso   1.000  C
  H155     1.0000 0.65220  0.44960  0.14010  Biso   1.000  H
  C241     1.0000 0.67122  0.49620  0.13150  Biso   1.000  C
  H156     1.0000 0.66900  0.50060  0.10040  Biso   1.000  H
  C242     1.0000 0.68462  0.52050  0.15240  Biso   1.000  C
  C243     1.0000 0.68843  0.51470  0.19660  Biso   1.000  C
  H157     1.0000 0.69810  0.53080  0.20950  Biso   1.000  H
  C244     1.0000 0.67868  0.48630  0.22300  Biso   1.000  C
  H158     1.0000 0.68110  0.48330  0.25420  Biso   1.000  H
  C245     1.0000 0.61905  0.76060  0.94320  Biso   1.000  C
  C246     1.0000 0.63077  0.72990  0.97110  Biso   1.000  C
  C247     1.0000 0.64728  0.72330  0.95790  Biso   1.000  C
  H159     1.0000 0.65150  0.73660  0.93090  Biso   1.000  H
  C248     1.0000 0.65908  0.69530  0.98550  Biso   1.000  C
  H160     1.0000 0.67120  0.69200  0.97710  Biso   1.000  H
  C249     1.0000 0.65321  0.67490  0.02110  Biso   1.000  C
  C250     1.0000 0.63487  0.68050  0.03440  Biso   1.000  C
  H161     1.0000 0.63030  0.66640  0.06070  Biso   1.000  H
  C251     1.0000 0.62423  0.70710  0.00750  Biso   1.000  C
  H162     1.0000 0.61190  0.70980  0.01450  Biso   1.000  H
  C252     1.0000 0.66540  0.64420  0.04900  Biso   1.000  C
  C253     1.0000 0.67929  0.62340  0.03160  Biso   1.000  C
  H163     1.0000 0.68270  0.63100  0.00180  Biso   1.000  H
  C254     1.0000 0.68929  0.59070  0.05410  Biso   1.000  C
  H164     1.0000 0.69800  0.57290  0.03890  Biso   1.000  H
  C255     1.0000 0.68601  0.58560  0.09870  Biso   1.000  C
  C256     1.0000 0.67163  0.60970  0.11980  Biso   1.000  C
  H165     1.0000 0.66920  0.60460  0.15070  Biso   1.000  H
  C257     1.0000 0.66187  0.63840  0.09750  Biso   1.000  C
  H166     1.0000 0.65270  0.65500  0.11200  Biso   1.000  H
  C258     1.0000 0.82510  0.48310  0.10550  Biso   1.000  C
  C259     1.0000 0.80561  0.49650  0.10830  Biso   1.000  C
  C260     1.0000 0.79394  0.46820  0.13090  Biso   1.000  C
  H167     1.0000 0.79810  0.44160  0.14530  Biso   1.000  H
  C261     1.0000 0.77588  0.47970  0.13190  Biso   1.000  C
  H168     1.0000 0.76770  0.46040  0.14700  Biso   1.000  H
  C262     1.0000 0.76979  0.51730  0.11220  Biso   1.000  C
  C263     1.0000 0.78120  0.54620  0.08980  Biso   1.000  C
  H169     1.0000 0.77660  0.57260  0.07580  Biso   1.000  H
  C264     1.0000 0.80027  0.53620  0.08770  Biso   1.000  C
  H170     1.0000 0.80850  0.55570  0.07310  Biso   1.000  H
  C265     1.0000 0.75016  0.52840  0.11390  Biso   1.000  C
  C266     1.0000 0.73813  0.49260  0.12210  Biso   1.000  C
  H171     1.0000 0.74250  0.46280  0.12640  Biso   1.000  H
  C267     1.0000 0.72017  0.50070  0.12400  Biso   1.000  C
  H172     1.0000 0.71210  0.47640  0.12850  Biso   1.000  H
  C268     1.0000 0.71373  0.54480  0.11930  Biso   1.000  C
  C269     1.0000 0.72505  0.57890  0.11170  Biso   1.000  C
  H173     1.0000 0.72050  0.60870  0.10870  Biso   1.000  H
  C270     1.0000 0.74397  0.57150  0.10810  Biso   1.000  C
  H174     1.0000 0.75190  0.59570  0.10180  Biso   1.000  H
  N24      1.0000 0.69508  0.55390  0.12520  Biso   1.000  N
  O31      1.0000 0.83551  0.50433  0.08030  Biso   1.000  O
  O32      1.0000 0.82948  0.45060  0.13080  Biso   1.000  O
  O33      1.0000 0.61776  0.29896  0.28720  Biso   1.000  O
  O34      1.0000 0.61601  0.35083  0.34100  Biso   1.000  O
  O35      1.0000 0.62407  0.77708  0.90900  Biso   1.000  O
  O36      1.0000 0.60249  0.76830  0.96060  Biso   1.000  O
  Zn9      1.0000 0.60448  0.81473  0.88770  Biso   1.000  Zn
  C271     1.0000 0.57520  0.41490  0.45620  Biso   1.000  C
  H175     1.0000 0.56320  0.41840  0.46600  Biso   1.000  H
  C272     1.0000 0.60807  0.40430  0.42880  Biso   1.000  C
  H176     1.0000 0.62000  0.40150  0.41850  Biso   1.000  H
  C273     1.0000 0.64418  0.06000  0.38340  Biso   1.000  C
  C274     1.0000 0.57960  0.37280  0.43460  Biso   1.000  C
  H177     1.0000 0.57140  0.34890  0.42960  Biso   1.000  H
  C275     1.0000 0.70398  0.97660  0.50560  Biso   1.000  C
  H178     1.0000 0.69770  0.97650  0.53330  Biso   1.000  H
  C276     1.0000 0.58692  0.45140  0.46410  Biso   1.000  C
  C277     1.0000 0.58029  0.49170  0.48840  Biso   1.000  C
  C278     1.0000 0.66596  0.00200  0.43800  Biso   1.000  C
  C279     1.0000 0.72262  0.97940  0.50300  Biso   1.000  C
  H179     1.0000 0.72910  0.97980  0.53050  Biso   1.000  H
  C280     1.0000 0.65926  0.07500  0.40580  Biso   1.000  C
  H180     1.0000 0.66300  0.10540  0.40220  Biso   1.000  H
  C281     1.0000 0.60346  0.44650  0.45100  Biso   1.000  C
  H181     1.0000 0.61210  0.46950  0.45580  Biso   1.000  H
  C282     1.0000 0.59194  0.60310  0.64110  Biso   1.000  C
  H182     1.0000 0.60000  0.59840  0.66530  Biso   1.000  H
  C283     1.0000 0.60531  0.17230  0.26310  Biso   1.000  C
  C284     1.0000 0.61445  0.14230  0.29620  Biso   1.000  C
  C285     1.0000 0.62135  0.15880  0.33550  Biso   1.000  C
  H183     1.0000 0.61950  0.18960  0.34290  Biso   1.000  H
  C286     1.0000 0.63068  0.13230  0.36390  Biso   1.000  C
  H184     1.0000 0.63510  0.14510  0.39100  Biso   1.000  H
  C287     1.0000 0.63405  0.08710  0.35500  Biso   1.000  C
  C288     1.0000 0.62559  0.06940  0.31640  Biso   1.000  C
  H185     1.0000 0.62660  0.03810  0.31000  Biso   1.000  H
  C289     1.0000 0.61583  0.09680  0.28740  Biso   1.000  C
  H186     1.0000 0.61020  0.08420  0.26170  Biso   1.000  H
  C290     1.0000 0.57903  0.57790  0.57240  Biso   1.000  C
  C291     1.0000 0.59031  0.57150  0.61050  Biso   1.000  C
  H187     1.0000 0.59670  0.54400  0.61380  Biso   1.000  H
  C292     1.0000 0.66915  0.04580  0.43390  Biso   1.000  C
  H188     1.0000 0.67870  0.05830  0.45100  Biso   1.000  H
  C293     1.0000 0.56980  0.61720  0.56980  Biso   1.000  C
  H189     1.0000 0.56220  0.62350  0.54510  Biso   1.000  H
  C294     1.0000 0.65047  0.98290  0.41390  Biso   1.000  C
  H190     1.0000 0.64760  0.95160  0.41500  Biso   1.000  H
  C295     1.0000 0.64078  0.01190  0.39060  Biso   1.000  C
  H191     1.0000 0.63030  0.00000  0.37680  Biso   1.000  H
  C296     1.0000 0.80874  0.01120  0.46630  Biso   1.000  C
  C297     1.0000 0.78813  0.00100  0.46520  Biso   1.000  C
  C298     1.0000 0.77799  0.01690  0.42930  Biso   1.000  C
  H192     1.0000 0.78350  0.03330  0.40560  Biso   1.000  H
  C299     1.0000 0.75991  0.00860  0.42850  Biso   1.000  C
  H193     1.0000 0.75300  0.01790  0.40330  Biso   1.000  H
  C300     1.0000 0.75151  0.98660  0.46460  Biso   1.000  C
  C301     1.0000 0.76231  0.97160  0.49930  Biso   1.000  C
  H194     1.0000 0.75670  0.95730  0.52420  Biso   1.000  H
  C302     1.0000 0.77990  0.97580  0.50000  Biso   1.000  C
  H195     1.0000 0.78680  0.96230  0.52320  Biso   1.000  H
  C303     1.0000 0.73200  0.98140  0.46460  Biso   1.000  C
  C304     1.0000 0.72173  0.98070  0.42440  Biso   1.000  C
  H196     1.0000 0.72740  0.98220  0.39590  Biso   1.000  H
  C305     1.0000 0.70393  0.97800  0.42730  Biso   1.000  C
  H197     1.0000 0.69730  0.97890  0.40010  Biso   1.000  H
  C306     1.0000 0.69530  0.97420  0.46420  Biso   1.000  C
  C307     1.0000 0.57203  0.64870  0.60560  Biso   1.000  C
  H198     1.0000 0.56550  0.67620  0.60490  Biso   1.000  H
  C308     1.0000 0.57769  0.54640  0.53490  Biso   1.000  C
  C309     1.0000 0.60548  0.76870  0.66730  Biso   1.000  C
  C310     1.0000 0.61675  0.79920  0.63740  Biso   1.000  C
  C311     1.0000 0.62946  0.78260  0.60870  Biso   1.000  C
  H199     1.0000 0.63180  0.75100  0.60750  Biso   1.000  H
  C312     1.0000 0.63856  0.81100  0.58250  Biso   1.000  C
  H200     1.0000 0.64700  0.79810  0.56240  Biso   1.000  H
  C313     1.0000 0.63691  0.85610  0.58170  Biso   1.000  C
  C314     1.0000 0.62348  0.87340  0.61090  Biso   1.000  C
  H201     1.0000 0.62100  0.90490  0.61140  Biso   1.000  H
  C315     1.0000 0.61429  0.84480  0.63800  Biso   1.000  C
  H202     1.0000 0.60580  0.85700  0.65830  Biso   1.000  H
  C316     1.0000 0.64754  0.88550  0.55310  Biso   1.000  C
  C317     1.0000 0.66425  0.87390  0.53430  Biso   1.000  C
  H203     1.0000 0.66950  0.84580  0.54230  Biso   1.000  H
  C318     1.0000 0.67276  0.90030  0.50640  Biso   1.000  C
  H204     1.0000 0.68360  0.88980  0.49370  Biso   1.000  H
  C319     1.0000 0.66673  0.94310  0.49450  Biso   1.000  C
  C320     1.0000 0.65070  0.95750  0.51340  Biso   1.000  C
  H205     1.0000 0.64630  0.98690  0.50670  Biso   1.000  H
  C321     1.0000 0.64095  0.92920  0.54220  Biso   1.000  C
  H206     1.0000 0.62990  0.93930  0.55440  Biso   1.000  H
  N25      1.0000 0.67605  0.97010  0.46390  Biso   1.000  N
  N26      1.0000 0.58294  0.64108  0.63980  Biso   1.000  N
  N27      1.0000 0.58697  0.50857  0.52700  Biso   1.000  N
  N28      1.0000 0.56775  0.51650  0.47210  Biso   1.000  N
  N29      1.0000 0.56621  0.55130  0.50130  Biso   1.000  N
  N30      1.0000 0.60035  0.48910  0.55430  Biso   1.000  N
  H207     1.0000 0.60340  0.50200  0.57970  Biso   1.000  H
  H208     1.0000 0.60560  0.46390  0.54580  Biso   1.000  H
  N31      1.0000 0.59799  0.37150  0.42180  Biso   1.000  N
  O37      1.0000 0.59452  0.15327  0.23550  Biso   1.000  O
  O38      1.0000 0.60817  0.21348  0.26500  Biso   1.000  O
  O39      1.0000 0.59775  0.78696  0.69980  Biso   1.000  O
  O40      1.0000 0.60563  0.72745  0.65740  Biso   1.000  O
  O41      1.0000 0.81377  0.03271  0.43570  Biso   1.000  O
  O42      1.0000 0.81670  0.99660  0.49900  Biso   1.000  O
  Zn10     1.0000 0.58733  0.69071  0.68550  Biso   1.000  Zn
  Zn11     1.0000 0.59303  0.77147  0.76790  Biso   1.000  Zn
  C322     1.0000 0.62087  0.83710  0.80360  Biso   1.000  C
  C323     1.0000 0.63223  0.86940  0.77730  Biso   1.000  C
  C324     1.0000 0.63804  0.85670  0.73500  Biso   1.000  C
  H209     1.0000 0.63490  0.82810  0.72280  Biso   1.000  H
  C325     1.0000 0.64878  0.88700  0.71040  Biso   1.000  C
  H210     1.0000 0.65280  0.87910  0.68110  Biso   1.000  H
  C326     1.0000 0.65353  0.92810  0.72850  Biso   1.000  C
  C327     1.0000 0.64833  0.94010  0.77090  Biso   1.000  C
  H211     1.0000 0.65230  0.96780  0.78360  Biso   1.000  H
  C328     1.0000 0.63693  0.91100  0.79610  Biso   1.000  C
  H212     1.0000 0.63270  0.91960  0.82490  Biso   1.000  H
  C329     1.0000 0.66456  0.96100  0.70160  Biso   1.000  C
  C330     1.0000 0.66129  0.96660  0.65470  Biso   1.000  C
  H213     1.0000 0.65220  0.94960  0.64010  Biso   1.000  H
  C331     1.0000 0.67122  0.99620  0.63150  Biso   1.000  C
  H214     1.0000 0.66900  0.00060  0.60040  Biso   1.000  H
  C332     1.0000 0.68462  0.02050  0.65240  Biso   1.000  C
  C333     1.0000 0.68843  0.01470  0.69660  Biso   1.000  C
  H215     1.0000 0.69810  0.03080  0.70950  Biso   1.000  H
  C334     1.0000 0.67868  0.98630  0.72300  Biso   1.000  C
  H216     1.0000 0.68110  0.98330  0.75420  Biso   1.000  H
  C335     1.0000 0.61905  0.26060  0.44320  Biso   1.000  C
  C336     1.0000 0.63077  0.22990  0.47110  Biso   1.000  C
  C337     1.0000 0.64728  0.22330  0.45790  Biso   1.000  C
  H217     1.0000 0.65150  0.23660  0.43090  Biso   1.000  H
  C338     1.0000 0.65908  0.19530  0.48550  Biso   1.000  C
  H218     1.0000 0.67120  0.19200  0.47710  Biso   1.000  H
  C339     1.0000 0.65321  0.17490  0.52110  Biso   1.000  C
  C340     1.0000 0.63487  0.18050  0.53440  Biso   1.000  C
  H219     1.0000 0.63030  0.16640  0.56070  Biso   1.000  H
  C341     1.0000 0.62423  0.20710  0.50750  Biso   1.000  C
  H220     1.0000 0.61190  0.20980  0.51450  Biso   1.000  H
  C342     1.0000 0.66540  0.14420  0.54900  Biso   1.000  C
  C343     1.0000 0.67929  0.12340  0.53160  Biso   1.000  C
  H221     1.0000 0.68270  0.13100  0.50180  Biso   1.000  H
  C344     1.0000 0.68929  0.09070  0.55410  Biso   1.000  C
  H222     1.0000 0.69800  0.07290  0.53890  Biso   1.000  H
  C345     1.0000 0.68601  0.08560  0.59870  Biso   1.000  C
  C346     1.0000 0.67163  0.10970  0.61980  Biso   1.000  C
  H223     1.0000 0.66920  0.10460  0.65070  Biso   1.000  H
  C347     1.0000 0.66187  0.13840  0.59750  Biso   1.000  C
  H224     1.0000 0.65270  0.15500  0.61200  Biso   1.000  H
  C348     1.0000 0.82510  0.98310  0.60550  Biso   1.000  C
  C349     1.0000 0.80561  0.99650  0.60830  Biso   1.000  C
  C350     1.0000 0.79394  0.96820  0.63090  Biso   1.000  C
  H225     1.0000 0.79810  0.94160  0.64530  Biso   1.000  H
  C351     1.0000 0.77588  0.97970  0.63190  Biso   1.000  C
  H226     1.0000 0.76770  0.96040  0.64700  Biso   1.000  H
  C352     1.0000 0.76979  0.01730  0.61220  Biso   1.000  C
  C353     1.0000 0.78120  0.04620  0.58980  Biso   1.000  C
  H227     1.0000 0.77660  0.07260  0.57580  Biso   1.000  H
  C354     1.0000 0.80027  0.03620  0.58770  Biso   1.000  C
  H228     1.0000 0.80850  0.05570  0.57310  Biso   1.000  H
  C355     1.0000 0.75016  0.02840  0.61390  Biso   1.000  C
  C356     1.0000 0.73813  0.99260  0.62210  Biso   1.000  C
  H229     1.0000 0.74250  0.96280  0.62640  Biso   1.000  H
  C357     1.0000 0.72017  0.00070  0.62400  Biso   1.000  C
  H230     1.0000 0.71210  0.97640  0.62850  Biso   1.000  H
  C358     1.0000 0.71373  0.04480  0.61930  Biso   1.000  C
  C359     1.0000 0.72505  0.07890  0.61170  Biso   1.000  C
  H231     1.0000 0.72050  0.10870  0.60870  Biso   1.000  H
  C360     1.0000 0.74397  0.07150  0.60810  Biso   1.000  C
  H232     1.0000 0.75190  0.09570  0.60180  Biso   1.000  H
  N32      1.0000 0.69508  0.05390  0.62520  Biso   1.000  N
  O43      1.0000 0.83551  0.00433  0.58030  Biso   1.000  O
  O44      1.0000 0.82948  0.95060  0.63080  Biso   1.000  O
  O45      1.0000 0.61776  0.79896  0.78720  Biso   1.000  O
  O46      1.0000 0.61601  0.85083  0.84100  Biso   1.000  O
  O47      1.0000 0.62407  0.27708  0.40900  Biso   1.000  O
  O48      1.0000 0.60249  0.26830  0.46060  Biso   1.000  O
  Zn12     1.0000 0.60448  0.31473  0.38770  Biso   1.000  Zn
  C361     1.0000 0.32520  0.33510  0.70620  Biso   1.000  C
  H233     1.0000 0.31320  0.33160  0.71600  Biso   1.000  H
  C362     1.0000 0.35807  0.34570  0.67880  Biso   1.000  C
  H234     1.0000 0.37000  0.34850  0.66850  Biso   1.000  H
  C363     1.0000 0.39418  0.69000  0.63340  Biso   1.000  C
  C364     1.0000 0.32960  0.37720  0.68460  Biso   1.000  C
  H235     1.0000 0.32140  0.40110  0.67960  Biso   1.000  H
  C365     1.0000 0.45398  0.77340  0.75560  Biso   1.000  C
  H236     1.0000 0.44770  0.77350  0.78330  Biso   1.000  H
  C366     1.0000 0.33692  0.29860  0.71410  Biso   1.000  C
  C367     1.0000 0.33029  0.25830  0.73840  Biso   1.000  C
  C368     1.0000 0.41596  0.74800  0.68800  Biso   1.000  C
  C369     1.0000 0.47262  0.77060  0.75300  Biso   1.000  C
  H237     1.0000 0.47910  0.77020  0.78050  Biso   1.000  H
  C370     1.0000 0.40926  0.67500  0.65580  Biso   1.000  C
  H238     1.0000 0.41300  0.64460  0.65220  Biso   1.000  H
  C371     1.0000 0.35346  0.30350  0.70100  Biso   1.000  C
  H239     1.0000 0.36210  0.28050  0.70580  Biso   1.000  H
  C372     1.0000 0.34194  0.14690  0.89110  Biso   1.000  C
  H240     1.0000 0.35000  0.15160  0.91530  Biso   1.000  H
  C373     1.0000 0.35531  0.57770  0.51310  Biso   1.000  C
  C374     1.0000 0.36445  0.60770  0.54620  Biso   1.000  C
  C375     1.0000 0.37135  0.59120  0.58550  Biso   1.000  C
  H241     1.0000 0.36950  0.56040  0.59290  Biso   1.000  H
  C376     1.0000 0.38068  0.61770  0.61390  Biso   1.000  C
  H242     1.0000 0.38510  0.60490  0.64100  Biso   1.000  H
  C377     1.0000 0.38405  0.66290  0.60500  Biso   1.000  C
  C378     1.0000 0.37559  0.68060  0.56640  Biso   1.000  C
  H243     1.0000 0.37660  0.71190  0.56000  Biso   1.000  H
  C379     1.0000 0.36583  0.65320  0.53740  Biso   1.000  C
  H244     1.0000 0.36020  0.66580  0.51170  Biso   1.000  H
  C380     1.0000 0.32903  0.17210  0.82240  Biso   1.000  C
  C381     1.0000 0.34031  0.17850  0.86050  Biso   1.000  C
  H245     1.0000 0.34670  0.20600  0.86380  Biso   1.000  H
  C382     1.0000 0.41915  0.70420  0.68390  Biso   1.000  C
  H246     1.0000 0.42870  0.69170  0.70100  Biso   1.000  H
  C383     1.0000 0.31980  0.13280  0.81980  Biso   1.000  C
  H247     1.0000 0.31220  0.12650  0.79510  Biso   1.000  H
  C384     1.0000 0.40047  0.76710  0.66390  Biso   1.000  C
  H248     1.0000 0.39760  0.79840  0.66500  Biso   1.000  H
  C385     1.0000 0.39078  0.73810  0.64060  Biso   1.000  C
  H249     1.0000 0.38030  0.75000  0.62680  Biso   1.000  H
  C386     1.0000 0.55874  0.73880  0.71630  Biso   1.000  C
  C387     1.0000 0.53813  0.74900  0.71520  Biso   1.000  C
  C388     1.0000 0.52799  0.73310  0.67930  Biso   1.000  C
  H250     1.0000 0.53350  0.71670  0.65560  Biso   1.000  H
  C389     1.0000 0.50991  0.74140  0.67850  Biso   1.000  C
  H251     1.0000 0.50300  0.73210  0.65330  Biso   1.000  H
  C390     1.0000 0.50151  0.76340  0.71460  Biso   1.000  C
  C391     1.0000 0.51231  0.77840  0.74930  Biso   1.000  C
  H252     1.0000 0.50670  0.79270  0.77420  Biso   1.000  H
  C392     1.0000 0.52990  0.77420  0.75000  Biso   1.000  C
  H253     1.0000 0.53680  0.78770  0.77320  Biso   1.000  H
  C393     1.0000 0.48200  0.76860  0.71460  Biso   1.000  C
  C394     1.0000 0.47173  0.76930  0.67440  Biso   1.000  C
  H254     1.0000 0.47740  0.76780  0.64590  Biso   1.000  H
  C395     1.0000 0.45393  0.77200  0.67730  Biso   1.000  C
  H255     1.0000 0.44730  0.77110  0.65010  Biso   1.000  H
  C396     1.0000 0.44530  0.77580  0.71420  Biso   1.000  C
  C397     1.0000 0.32203  0.10130  0.85560  Biso   1.000  C
  H256     1.0000 0.31550  0.07380  0.85490  Biso   1.000  H
  C398     1.0000 0.32769  0.20360  0.78490  Biso   1.000  C
  C399     1.0000 0.35548  0.98130  0.91730  Biso   1.000  C
  C400     1.0000 0.36675  0.95080  0.88740  Biso   1.000  C
  C401     1.0000 0.37946  0.96740  0.85870  Biso   1.000  C
  H257     1.0000 0.38180  0.99900  0.85750  Biso   1.000  H
  C402     1.0000 0.38856  0.93900  0.83250  Biso   1.000  C
  H258     1.0000 0.39700  0.95190  0.81240  Biso   1.000  H
  C403     1.0000 0.38691  0.89390  0.83170  Biso   1.000  C
  C404     1.0000 0.37348  0.87660  0.86090  Biso   1.000  C
  H259     1.0000 0.37100  0.84510  0.86140  Biso   1.000  H
  C405     1.0000 0.36429  0.90520  0.88800  Biso   1.000  C
  H260     1.0000 0.35580  0.89300  0.90830  Biso   1.000  H
  C406     1.0000 0.39754  0.86450  0.80310  Biso   1.000  C
  C407     1.0000 0.41425  0.87610  0.78430  Biso   1.000  C
  H261     1.0000 0.41950  0.90420  0.79230  Biso   1.000  H
  C408     1.0000 0.42276  0.84970  0.75640  Biso   1.000  C
  H262     1.0000 0.43360  0.86020  0.74370  Biso   1.000  H
  C409     1.0000 0.41673  0.80690  0.74450  Biso   1.000  C
  C410     1.0000 0.40070  0.79250  0.76340  Biso   1.000  C
  H263     1.0000 0.39630  0.76310  0.75670  Biso   1.000  H
  C411     1.0000 0.39095  0.82080  0.79220  Biso   1.000  C
  H264     1.0000 0.37990  0.81070  0.80440  Biso   1.000  H
  N33      1.0000 0.42605  0.77990  0.71390  Biso   1.000  N
  N34      1.0000 0.33294  0.10892  0.88980  Biso   1.000  N
  N35      1.0000 0.33697  0.24143  0.77700  Biso   1.000  N
  N36      1.0000 0.31775  0.23350  0.72210  Biso   1.000  N
  N37      1.0000 0.31621  0.19870  0.75130  Biso   1.000  N
  N38      1.0000 0.35035  0.26090  0.80430  Biso   1.000  N
  H265     1.0000 0.35340  0.24800  0.82970  Biso   1.000  H
  H266     1.0000 0.35560  0.28610  0.79580  Biso   1.000  H
  N39      1.0000 0.34799  0.37850  0.67180  Biso   1.000  N
  O49      1.0000 0.34452  0.59673  0.48550  Biso   1.000  O
  O50      1.0000 0.35817  0.53652  0.51500  Biso   1.000  O
  O51      1.0000 0.34775  0.96304  0.94980  Biso   1.000  O
  O52      1.0000 0.35563  0.02255  0.90740  Biso   1.000  O
  O53      1.0000 0.56377  0.71729  0.68570  Biso   1.000  O
  O54      1.0000 0.56670  0.75340  0.74900  Biso   1.000  O
  Zn13     1.0000 0.33733  0.05929  0.93550  Biso   1.000  Zn
  Zn14     1.0000 0.34303  0.97853  0.01790  Biso   1.000  Zn
  C412     1.0000 0.37087  0.91290  0.05360  Biso   1.000  C
  C413     1.0000 0.38223  0.88060  0.02730  Biso   1.000  C
  C414     1.0000 0.38804  0.89330  0.98500  Biso   1.000  C
  H267     1.0000 0.38490  0.92190  0.97280  Biso   1.000  H
  C415     1.0000 0.39878  0.86300  0.96040  Biso   1.000  C
  H268     1.0000 0.40280  0.87090  0.93110  Biso   1.000  H
  C416     1.0000 0.40353  0.82190  0.97850  Biso   1.000  C
  C417     1.0000 0.39833  0.80990  0.02090  Biso   1.000  C
  H269     1.0000 0.40230  0.78220  0.03360  Biso   1.000  H
  C418     1.0000 0.38693  0.83900  0.04610  Biso   1.000  C
  H270     1.0000 0.38270  0.83040  0.07490  Biso   1.000  H
  C419     1.0000 0.41456  0.78900  0.95160  Biso   1.000  C
  C420     1.0000 0.41129  0.78340  0.90470  Biso   1.000  C
  H271     1.0000 0.40220  0.80040  0.89010  Biso   1.000  H
  C421     1.0000 0.42122  0.75380  0.88150  Biso   1.000  C
  H272     1.0000 0.41900  0.74940  0.85040  Biso   1.000  H
  C422     1.0000 0.43462  0.72950  0.90240  Biso   1.000  C
  C423     1.0000 0.43843  0.73530  0.94660  Biso   1.000  C
  H273     1.0000 0.44810  0.71920  0.95950  Biso   1.000  H
  C424     1.0000 0.42868  0.76370  0.97300  Biso   1.000  C
  H274     1.0000 0.43110  0.76670  0.00420  Biso   1.000  H
  C425     1.0000 0.36905  0.48940  0.69320  Biso   1.000  C
  C426     1.0000 0.38077  0.52010  0.72110  Biso   1.000  C
  C427     1.0000 0.39728  0.52670  0.70790  Biso   1.000  C
  H275     1.0000 0.40150  0.51340  0.68090  Biso   1.000  H
  C428     1.0000 0.40908  0.55470  0.73550  Biso   1.000  C
  H276     1.0000 0.42120  0.55800  0.72710  Biso   1.000  H
  C429     1.0000 0.40321  0.57510  0.77110  Biso   1.000  C
  C430     1.0000 0.38487  0.56950  0.78440  Biso   1.000  C
  H277     1.0000 0.38030  0.58360  0.81070  Biso   1.000  H
  C431     1.0000 0.37423  0.54290  0.75750  Biso   1.000  C
  H278     1.0000 0.36190  0.54020  0.76450  Biso   1.000  H
  C432     1.0000 0.41540  0.60580  0.79900  Biso   1.000  C
  C433     1.0000 0.42929  0.62660  0.78160  Biso   1.000  C
  H279     1.0000 0.43270  0.61900  0.75180  Biso   1.000  H
  C434     1.0000 0.43929  0.65930  0.80410  Biso   1.000  C
  H280     1.0000 0.44800  0.67710  0.78890  Biso   1.000  H
  C435     1.0000 0.43601  0.66440  0.84870  Biso   1.000  C
  C436     1.0000 0.42163  0.64030  0.86980  Biso   1.000  C
  H281     1.0000 0.41920  0.64540  0.90070  Biso   1.000  H
  C437     1.0000 0.41187  0.61160  0.84750  Biso   1.000  C
  H282     1.0000 0.40270  0.59500  0.86200  Biso   1.000  H
  C438     1.0000 0.57510  0.76690  0.85550  Biso   1.000  C
  C439     1.0000 0.55561  0.75350  0.85830  Biso   1.000  C
  C440     1.0000 0.54394  0.78180  0.88090  Biso   1.000  C
  H283     1.0000 0.54810  0.80840  0.89530  Biso   1.000  H
  C441     1.0000 0.52588  0.77030  0.88190  Biso   1.000  C
  H284     1.0000 0.51770  0.78960  0.89700  Biso   1.000  H
  C442     1.0000 0.51979  0.73270  0.86220  Biso   1.000  C
  C443     1.0000 0.53120  0.70380  0.83980  Biso   1.000  C
  H285     1.0000 0.52660  0.67740  0.82580  Biso   1.000  H
  C444     1.0000 0.55027  0.71380  0.83770  Biso   1.000  C
  H286     1.0000 0.55850  0.69430  0.82310  Biso   1.000  H
  C445     1.0000 0.50016  0.72160  0.86390  Biso   1.000  C
  C446     1.0000 0.48813  0.75740  0.87210  Biso   1.000  C
  H287     1.0000 0.49250  0.78720  0.87640  Biso   1.000  H
  C447     1.0000 0.47017  0.74930  0.87400  Biso   1.000  C
  H288     1.0000 0.46210  0.77360  0.87850  Biso   1.000  H
  C448     1.0000 0.46373  0.70520  0.86930  Biso   1.000  C
  C449     1.0000 0.47505  0.67110  0.86170  Biso   1.000  C
  H289     1.0000 0.47050  0.64130  0.85870  Biso   1.000  H
  C450     1.0000 0.49397  0.67850  0.85810  Biso   1.000  C
  H290     1.0000 0.50190  0.65430  0.85180  Biso   1.000  H
  N40      1.0000 0.44508  0.69610  0.87520  Biso   1.000  N
  O55      1.0000 0.58551  0.74567  0.83030  Biso   1.000  O
  O56      1.0000 0.57948  0.79940  0.88080  Biso   1.000  O
  O57      1.0000 0.36776  0.95104  0.03720  Biso   1.000  O
  O58      1.0000 0.36601  0.89917  0.09100  Biso   1.000  O
  O59      1.0000 0.37407  0.47292  0.65900  Biso   1.000  O
  O60      1.0000 0.35249  0.48170  0.71060  Biso   1.000  O
  Zn15     1.0000 0.35448  0.43527  0.63770  Biso   1.000  Zn
  C451     1.0000 0.32520  0.83510  0.20620  Biso   1.000  C
  H291     1.0000 0.31320  0.83160  0.21600  Biso   1.000  H
  C452     1.0000 0.35807  0.84570  0.17880  Biso   1.000  C
  H292     1.0000 0.37000  0.84850  0.16850  Biso   1.000  H
  C453     1.0000 0.39418  0.19000  0.13340  Biso   1.000  C
  C454     1.0000 0.32960  0.87720  0.18460  Biso   1.000  C
  H293     1.0000 0.32140  0.90110  0.17960  Biso   1.000  H
  C455     1.0000 0.45398  0.27340  0.25560  Biso   1.000  C
  H294     1.0000 0.44770  0.27350  0.28330  Biso   1.000  H
  C456     1.0000 0.33692  0.79860  0.21410  Biso   1.000  C
  C457     1.0000 0.33029  0.75830  0.23840  Biso   1.000  C
  C458     1.0000 0.41596  0.24800  0.18800  Biso   1.000  C
  C459     1.0000 0.47262  0.27060  0.25300  Biso   1.000  C
  H295     1.0000 0.47910  0.27020  0.28050  Biso   1.000  H
  C460     1.0000 0.40926  0.17500  0.15580  Biso   1.000  C
  H296     1.0000 0.41300  0.14460  0.15220  Biso   1.000  H
  C461     1.0000 0.35346  0.80350  0.20100  Biso   1.000  C
  H297     1.0000 0.36210  0.78050  0.20580  Biso   1.000  H
  C462     1.0000 0.34194  0.64690  0.39110  Biso   1.000  C
  H298     1.0000 0.35000  0.65160  0.41530  Biso   1.000  H
  C463     1.0000 0.35531  0.07770  0.01310  Biso   1.000  C
  C464     1.0000 0.36445  0.10770  0.04620  Biso   1.000  C
  C465     1.0000 0.37135  0.09120  0.08550  Biso   1.000  C
  H299     1.0000 0.36950  0.06040  0.09290  Biso   1.000  H
  C466     1.0000 0.38068  0.11770  0.11390  Biso   1.000  C
  H300     1.0000 0.38510  0.10490  0.14100  Biso   1.000  H
  C467     1.0000 0.38405  0.16290  0.10500  Biso   1.000  C
  C468     1.0000 0.37559  0.18060  0.06640  Biso   1.000  C
  H301     1.0000 0.37660  0.21190  0.06000  Biso   1.000  H
  C469     1.0000 0.36583  0.15320  0.03740  Biso   1.000  C
  H302     1.0000 0.36020  0.16580  0.01170  Biso   1.000  H
  C470     1.0000 0.32903  0.67210  0.32240  Biso   1.000  C
  C471     1.0000 0.34031  0.67850  0.36050  Biso   1.000  C
  H303     1.0000 0.34670  0.70600  0.36380  Biso   1.000  H
  C472     1.0000 0.41915  0.20420  0.18390  Biso   1.000  C
  H304     1.0000 0.42870  0.19170  0.20100  Biso   1.000  H
  C473     1.0000 0.31980  0.63280  0.31980  Biso   1.000  C
  H305     1.0000 0.31220  0.62650  0.29510  Biso   1.000  H
  C474     1.0000 0.40047  0.26710  0.16390  Biso   1.000  C
  H306     1.0000 0.39760  0.29840  0.16500  Biso   1.000  H
  C475     1.0000 0.39078  0.23810  0.14060  Biso   1.000  C
  H307     1.0000 0.38030  0.25000  0.12680  Biso   1.000  H
  C476     1.0000 0.55874  0.23880  0.21630  Biso   1.000  C
  C477     1.0000 0.53813  0.24900  0.21520  Biso   1.000  C
  C478     1.0000 0.52799  0.23310  0.17930  Biso   1.000  C
  H308     1.0000 0.53350  0.21670  0.15560  Biso   1.000  H
  C479     1.0000 0.50991  0.24140  0.17850  Biso   1.000  C
  H309     1.0000 0.50300  0.23210  0.15330  Biso   1.000  H
  C480     1.0000 0.50151  0.26340  0.21460  Biso   1.000  C
  C481     1.0000 0.51231  0.27840  0.24930  Biso   1.000  C
  H310     1.0000 0.50670  0.29270  0.27420  Biso   1.000  H
  C482     1.0000 0.52990  0.27420  0.25000  Biso   1.000  C
  H311     1.0000 0.53680  0.28770  0.27320  Biso   1.000  H
  C483     1.0000 0.48200  0.26860  0.21460  Biso   1.000  C
  C484     1.0000 0.47173  0.26930  0.17440  Biso   1.000  C
  H312     1.0000 0.47740  0.26780  0.14590  Biso   1.000  H
  C485     1.0000 0.45393  0.27200  0.17730  Biso   1.000  C
  H313     1.0000 0.44730  0.27110  0.15010  Biso   1.000  H
  C486     1.0000 0.44530  0.27580  0.21420  Biso   1.000  C
  C487     1.0000 0.32203  0.60130  0.35560  Biso   1.000  C
  H314     1.0000 0.31550  0.57380  0.35490  Biso   1.000  H
  C488     1.0000 0.32769  0.70360  0.28490  Biso   1.000  C
  C489     1.0000 0.35548  0.48130  0.41730  Biso   1.000  C
  C490     1.0000 0.36675  0.45080  0.38740  Biso   1.000  C
  C491     1.0000 0.37946  0.46740  0.35870  Biso   1.000  C
  H315     1.0000 0.38180  0.49900  0.35750  Biso   1.000  H
  C492     1.0000 0.38856  0.43900  0.33250  Biso   1.000  C
  H316     1.0000 0.39700  0.45190  0.31240  Biso   1.000  H
  C493     1.0000 0.38691  0.39390  0.33170  Biso   1.000  C
  C494     1.0000 0.37348  0.37660  0.36090  Biso   1.000  C
  H317     1.0000 0.37100  0.34510  0.36140  Biso   1.000  H
  C495     1.0000 0.36429  0.40520  0.38800  Biso   1.000  C
  H318     1.0000 0.35580  0.39300  0.40830  Biso   1.000  H
  C496     1.0000 0.39754  0.36450  0.30310  Biso   1.000  C
  C497     1.0000 0.41425  0.37610  0.28430  Biso   1.000  C
  H319     1.0000 0.41950  0.40420  0.29230  Biso   1.000  H
  C498     1.0000 0.42276  0.34970  0.25640  Biso   1.000  C
  H320     1.0000 0.43360  0.36020  0.24370  Biso   1.000  H
  C499     1.0000 0.41673  0.30690  0.24450  Biso   1.000  C
  C500     1.0000 0.40070  0.29250  0.26340  Biso   1.000  C
  H321     1.0000 0.39630  0.26310  0.25670  Biso   1.000  H
  C501     1.0000 0.39095  0.32080  0.29220  Biso   1.000  C
  H322     1.0000 0.37990  0.31070  0.30440  Biso   1.000  H
  N41      1.0000 0.42605  0.27990  0.21390  Biso   1.000  N
  N42      1.0000 0.33294  0.60892  0.38980  Biso   1.000  N
  N43      1.0000 0.33697  0.74143  0.27700  Biso   1.000  N
  N44      1.0000 0.31775  0.73350  0.22210  Biso   1.000  N
  N45      1.0000 0.31621  0.69870  0.25130  Biso   1.000  N
  N46      1.0000 0.35035  0.76090  0.30430  Biso   1.000  N
  H323     1.0000 0.35340  0.74800  0.32970  Biso   1.000  H
  H324     1.0000 0.35560  0.78610  0.29580  Biso   1.000  H
  N47      1.0000 0.34799  0.87850  0.17180  Biso   1.000  N
  O61      1.0000 0.34452  0.09673  0.98550  Biso   1.000  O
  O62      1.0000 0.35817  0.03652  0.01500  Biso   1.000  O
  O63      1.0000 0.34775  0.46304  0.44980  Biso   1.000  O
  O64      1.0000 0.35563  0.52255  0.40740  Biso   1.000  O
  O65      1.0000 0.56377  0.21729  0.18570  Biso   1.000  O
  O66      1.0000 0.56670  0.25340  0.24900  Biso   1.000  O
  Zn16     1.0000 0.33733  0.55929  0.43550  Biso   1.000  Zn
  Zn17     1.0000 0.34303  0.47853  0.51790  Biso   1.000  Zn
  C502     1.0000 0.37087  0.41290  0.55360  Biso   1.000  C
  C503     1.0000 0.38223  0.38060  0.52730  Biso   1.000  C
  C504     1.0000 0.38804  0.39330  0.48500  Biso   1.000  C
  H325     1.0000 0.38490  0.42190  0.47280  Biso   1.000  H
  C505     1.0000 0.39878  0.36300  0.46040  Biso   1.000  C
  H326     1.0000 0.40280  0.37090  0.43110  Biso   1.000  H
  C506     1.0000 0.40353  0.32190  0.47850  Biso   1.000  C
  C507     1.0000 0.39833  0.30990  0.52090  Biso   1.000  C
  H327     1.0000 0.40230  0.28220  0.53360  Biso   1.000  H
  C508     1.0000 0.38693  0.33900  0.54610  Biso   1.000  C
  H328     1.0000 0.38270  0.33040  0.57490  Biso   1.000  H
  C509     1.0000 0.41456  0.28900  0.45160  Biso   1.000  C
  C510     1.0000 0.41129  0.28340  0.40470  Biso   1.000  C
  H329     1.0000 0.40220  0.30040  0.39010  Biso   1.000  H
  C511     1.0000 0.42122  0.25380  0.38150  Biso   1.000  C
  H330     1.0000 0.41900  0.24940  0.35040  Biso   1.000  H
  C512     1.0000 0.43462  0.22950  0.40240  Biso   1.000  C
  C513     1.0000 0.43843  0.23530  0.44660  Biso   1.000  C
  H331     1.0000 0.44810  0.21920  0.45950  Biso   1.000  H
  C514     1.0000 0.42868  0.26370  0.47300  Biso   1.000  C
  H332     1.0000 0.43110  0.26670  0.50420  Biso   1.000  H
  C515     1.0000 0.36905  0.98940  0.19320  Biso   1.000  C
  C516     1.0000 0.38077  0.02010  0.22110  Biso   1.000  C
  C517     1.0000 0.39728  0.02670  0.20790  Biso   1.000  C
  H333     1.0000 0.40150  0.01340  0.18090  Biso   1.000  H
  C518     1.0000 0.40908  0.05470  0.23550  Biso   1.000  C
  H334     1.0000 0.42120  0.05800  0.22710  Biso   1.000  H
  C519     1.0000 0.40321  0.07510  0.27110  Biso   1.000  C
  C520     1.0000 0.38487  0.06950  0.28440  Biso   1.000  C
  H335     1.0000 0.38030  0.08360  0.31070  Biso   1.000  H
  C521     1.0000 0.37423  0.04290  0.25750  Biso   1.000  C
  H336     1.0000 0.36190  0.04020  0.26450  Biso   1.000  H
  C522     1.0000 0.41540  0.10580  0.29900  Biso   1.000  C
  C523     1.0000 0.42929  0.12660  0.28160  Biso   1.000  C
  H337     1.0000 0.43270  0.11900  0.25180  Biso   1.000  H
  C524     1.0000 0.43929  0.15930  0.30410  Biso   1.000  C
  H338     1.0000 0.44800  0.17710  0.28890  Biso   1.000  H
  C525     1.0000 0.43601  0.16440  0.34870  Biso   1.000  C
  C526     1.0000 0.42163  0.14030  0.36980  Biso   1.000  C
  H339     1.0000 0.41920  0.14540  0.40070  Biso   1.000  H
  C527     1.0000 0.41187  0.11160  0.34750  Biso   1.000  C
  H340     1.0000 0.40270  0.09500  0.36200  Biso   1.000  H
  C528     1.0000 0.57510  0.26690  0.35550  Biso   1.000  C
  C529     1.0000 0.55561  0.25350  0.35830  Biso   1.000  C
  C530     1.0000 0.54394  0.28180  0.38090  Biso   1.000  C
  H341     1.0000 0.54810  0.30840  0.39530  Biso   1.000  H
  C531     1.0000 0.52588  0.27030  0.38190  Biso   1.000  C
  H342     1.0000 0.51770  0.28960  0.39700  Biso   1.000  H
  C532     1.0000 0.51979  0.23270  0.36220  Biso   1.000  C
  C533     1.0000 0.53120  0.20380  0.33980  Biso   1.000  C
  H343     1.0000 0.52660  0.17740  0.32580  Biso   1.000  H
  C534     1.0000 0.55027  0.21380  0.33770  Biso   1.000  C
  H344     1.0000 0.55850  0.19430  0.32310  Biso   1.000  H
  C535     1.0000 0.50016  0.22160  0.36390  Biso   1.000  C
  C536     1.0000 0.48813  0.25740  0.37210  Biso   1.000  C
  H345     1.0000 0.49250  0.28720  0.37640  Biso   1.000  H
  C537     1.0000 0.47017  0.24930  0.37400  Biso   1.000  C
  H346     1.0000 0.46210  0.27360  0.37850  Biso   1.000  H
  C538     1.0000 0.46373  0.20520  0.36930  Biso   1.000  C
  C539     1.0000 0.47505  0.17110  0.36170  Biso   1.000  C
  H347     1.0000 0.47050  0.14130  0.35870  Biso   1.000  H
  C540     1.0000 0.49397  0.17850  0.35810  Biso   1.000  C
  H348     1.0000 0.50190  0.15430  0.35180  Biso   1.000  H
  N48      1.0000 0.44508  0.19610  0.37520  Biso   1.000  N
  O67      1.0000 0.58551  0.24567  0.33030  Biso   1.000  O
  O68      1.0000 0.57948  0.29940  0.38080  Biso   1.000  O
  O69      1.0000 0.36776  0.45104  0.53720  Biso   1.000  O
  O70      1.0000 0.36601  0.39917  0.59100  Biso   1.000  O
  O71      1.0000 0.37407  0.97292  0.15900  Biso   1.000  O
  O72      1.0000 0.35249  0.98170  0.21060  Biso   1.000  O
  Zn18     1.0000 0.35448  0.93527  0.13770  Biso   1.000  Zn
  C541     1.0000 0.82520  0.33510  0.20620  Biso   1.000  C
  H349     1.0000 0.81320  0.33160  0.21600  Biso   1.000  H
  C542     1.0000 0.85807  0.34570  0.17880  Biso   1.000  C
  H350     1.0000 0.87000  0.34850  0.16850  Biso   1.000  H
  C543     1.0000 0.89418  0.69000  0.13340  Biso   1.000  C
  C544     1.0000 0.82960  0.37720  0.18460  Biso   1.000  C
  H351     1.0000 0.82140  0.40110  0.17960  Biso   1.000  H
  C545     1.0000 0.95398  0.77340  0.25560  Biso   1.000  C
  H352     1.0000 0.94770  0.77350  0.28330  Biso   1.000  H
  C546     1.0000 0.83692  0.29860  0.21410  Biso   1.000  C
  C547     1.0000 0.83029  0.25830  0.23840  Biso   1.000  C
  C548     1.0000 0.91596  0.74800  0.18800  Biso   1.000  C
  C549     1.0000 0.97262  0.77060  0.25300  Biso   1.000  C
  H353     1.0000 0.97910  0.77020  0.28050  Biso   1.000  H
  C550     1.0000 0.90926  0.67500  0.15580  Biso   1.000  C
  H354     1.0000 0.91300  0.64460  0.15220  Biso   1.000  H
  C551     1.0000 0.85346  0.30350  0.20100  Biso   1.000  C
  H355     1.0000 0.86210  0.28050  0.20580  Biso   1.000  H
  C552     1.0000 0.84194  0.14690  0.39110  Biso   1.000  C
  H356     1.0000 0.85000  0.15160  0.41530  Biso   1.000  H
  C553     1.0000 0.85531  0.57770  0.01310  Biso   1.000  C
  C554     1.0000 0.86445  0.60770  0.04620  Biso   1.000  C
  C555     1.0000 0.87135  0.59120  0.08550  Biso   1.000  C
  H357     1.0000 0.86950  0.56040  0.09290  Biso   1.000  H
  C556     1.0000 0.88068  0.61770  0.11390  Biso   1.000  C
  H358     1.0000 0.88510  0.60490  0.14100  Biso   1.000  H
  C557     1.0000 0.88405  0.66290  0.10500  Biso   1.000  C
  C558     1.0000 0.87559  0.68060  0.06640  Biso   1.000  C
  H359     1.0000 0.87660  0.71190  0.06000  Biso   1.000  H
  C559     1.0000 0.86583  0.65320  0.03740  Biso   1.000  C
  H360     1.0000 0.86020  0.66580  0.01170  Biso   1.000  H
  C560     1.0000 0.82903  0.17210  0.32240  Biso   1.000  C
  C561     1.0000 0.84031  0.17850  0.36050  Biso   1.000  C
  H361     1.0000 0.84670  0.20600  0.36380  Biso   1.000  H
  C562     1.0000 0.91915  0.70420  0.18390  Biso   1.000  C
  H362     1.0000 0.92870  0.69170  0.20100  Biso   1.000  H
  C563     1.0000 0.81980  0.13280  0.31980  Biso   1.000  C
  H363     1.0000 0.81220  0.12650  0.29510  Biso   1.000  H
  C564     1.0000 0.90047  0.76710  0.16390  Biso   1.000  C
  H364     1.0000 0.89760  0.79840  0.16500  Biso   1.000  H
  C565     1.0000 0.89078  0.73810  0.14060  Biso   1.000  C
  H365     1.0000 0.88030  0.75000  0.12680  Biso   1.000  H
  C566     1.0000 0.05874  0.73880  0.21630  Biso   1.000  C
  C567     1.0000 0.03813  0.74900  0.21520  Biso   1.000  C
  C568     1.0000 0.02799  0.73310  0.17930  Biso   1.000  C
  H366     1.0000 0.03350  0.71670  0.15560  Biso   1.000  H
  C569     1.0000 0.00991  0.74140  0.17850  Biso   1.000  C
  H367     1.0000 0.00300  0.73210  0.15330  Biso   1.000  H
  C570     1.0000 0.00151  0.76340  0.21460  Biso   1.000  C
  C571     1.0000 0.01231  0.77840  0.24930  Biso   1.000  C
  H368     1.0000 0.00670  0.79270  0.27420  Biso   1.000  H
  C572     1.0000 0.02990  0.77420  0.25000  Biso   1.000  C
  H369     1.0000 0.03680  0.78770  0.27320  Biso   1.000  H
  C573     1.0000 0.98200  0.76860  0.21460  Biso   1.000  C
  C574     1.0000 0.97173  0.76930  0.17440  Biso   1.000  C
  H370     1.0000 0.97740  0.76780  0.14590  Biso   1.000  H
  C575     1.0000 0.95393  0.77200  0.17730  Biso   1.000  C
  H371     1.0000 0.94730  0.77110  0.15010  Biso   1.000  H
  C576     1.0000 0.94530  0.77580  0.21420  Biso   1.000  C
  C577     1.0000 0.82203  0.10130  0.35560  Biso   1.000  C
  H372     1.0000 0.81550  0.07380  0.35490  Biso   1.000  H
  C578     1.0000 0.82769  0.20360  0.28490  Biso   1.000  C
  C579     1.0000 0.85548  0.98130  0.41730  Biso   1.000  C
  C580     1.0000 0.86675  0.95080  0.38740  Biso   1.000  C
  C581     1.0000 0.87946  0.96740  0.35870  Biso   1.000  C
  H373     1.0000 0.88180  0.99900  0.35750  Biso   1.000  H
  C582     1.0000 0.88856  0.93900  0.33250  Biso   1.000  C
  H374     1.0000 0.89700  0.95190  0.31240  Biso   1.000  H
  C583     1.0000 0.88691  0.89390  0.33170  Biso   1.000  C
  C584     1.0000 0.87348  0.87660  0.36090  Biso   1.000  C
  H375     1.0000 0.87100  0.84510  0.36140  Biso   1.000  H
  C585     1.0000 0.86429  0.90520  0.38800  Biso   1.000  C
  H376     1.0000 0.85580  0.89300  0.40830  Biso   1.000  H
  C586     1.0000 0.89754  0.86450  0.30310  Biso   1.000  C
  C587     1.0000 0.91425  0.87610  0.28430  Biso   1.000  C
  H377     1.0000 0.91950  0.90420  0.29230  Biso   1.000  H
  C588     1.0000 0.92276  0.84970  0.25640  Biso   1.000  C
  H378     1.0000 0.93360  0.86020  0.24370  Biso   1.000  H
  C589     1.0000 0.91673  0.80690  0.24450  Biso   1.000  C
  C590     1.0000 0.90070  0.79250  0.26340  Biso   1.000  C
  H379     1.0000 0.89630  0.76310  0.25670  Biso   1.000  H
  C591     1.0000 0.89095  0.82080  0.29220  Biso   1.000  C
  H380     1.0000 0.87990  0.81070  0.30440  Biso   1.000  H
  N49      1.0000 0.92605  0.77990  0.21390  Biso   1.000  N
  N50      1.0000 0.83294  0.10892  0.38980  Biso   1.000  N
  N51      1.0000 0.83697  0.24143  0.27700  Biso   1.000  N
  N52      1.0000 0.81775  0.23350  0.22210  Biso   1.000  N
  N53      1.0000 0.81621  0.19870  0.25130  Biso   1.000  N
  N54      1.0000 0.85035  0.26090  0.30430  Biso   1.000  N
  H381     1.0000 0.85340  0.24800  0.32970  Biso   1.000  H
  H382     1.0000 0.85560  0.28610  0.29580  Biso   1.000  H
  N55      1.0000 0.84799  0.37850  0.17180  Biso   1.000  N
  O73      1.0000 0.84452  0.59673  0.98550  Biso   1.000  O
  O74      1.0000 0.85817  0.53652  0.01500  Biso   1.000  O
  O75      1.0000 0.84775  0.96304  0.44980  Biso   1.000  O
  O76      1.0000 0.85563  0.02255  0.40740  Biso   1.000  O
  O77      1.0000 0.06377  0.71729  0.18570  Biso   1.000  O
  O78      1.0000 0.06670  0.75340  0.24900  Biso   1.000  O
  Zn19     1.0000 0.83733  0.05929  0.43550  Biso   1.000  Zn
  Zn20     1.0000 0.84303  0.97853  0.51790  Biso   1.000  Zn
  C592     1.0000 0.87087  0.91290  0.55360  Biso   1.000  C
  C593     1.0000 0.88223  0.88060  0.52730  Biso   1.000  C
  C594     1.0000 0.88804  0.89330  0.48500  Biso   1.000  C
  H383     1.0000 0.88490  0.92190  0.47280  Biso   1.000  H
  C595     1.0000 0.89878  0.86300  0.46040  Biso   1.000  C
  H384     1.0000 0.90280  0.87090  0.43110  Biso   1.000  H
  C596     1.0000 0.90353  0.82190  0.47850  Biso   1.000  C
  C597     1.0000 0.89833  0.80990  0.52090  Biso   1.000  C
  H385     1.0000 0.90230  0.78220  0.53360  Biso   1.000  H
  C598     1.0000 0.88693  0.83900  0.54610  Biso   1.000  C
  H386     1.0000 0.88270  0.83040  0.57490  Biso   1.000  H
  C599     1.0000 0.91456  0.78900  0.45160  Biso   1.000  C
  C600     1.0000 0.91129  0.78340  0.40470  Biso   1.000  C
  H387     1.0000 0.90220  0.80040  0.39010  Biso   1.000  H
  C601     1.0000 0.92122  0.75380  0.38150  Biso   1.000  C
  H388     1.0000 0.91900  0.74940  0.35040  Biso   1.000  H
  C602     1.0000 0.93462  0.72950  0.40240  Biso   1.000  C
  C603     1.0000 0.93843  0.73530  0.44660  Biso   1.000  C
  H389     1.0000 0.94810  0.71920  0.45950  Biso   1.000  H
  C604     1.0000 0.92868  0.76370  0.47300  Biso   1.000  C
  H390     1.0000 0.93110  0.76670  0.50420  Biso   1.000  H
  C605     1.0000 0.86905  0.48940  0.19320  Biso   1.000  C
  C606     1.0000 0.88077  0.52010  0.22110  Biso   1.000  C
  C607     1.0000 0.89728  0.52670  0.20790  Biso   1.000  C
  H391     1.0000 0.90150  0.51340  0.18090  Biso   1.000  H
  C608     1.0000 0.90908  0.55470  0.23550  Biso   1.000  C
  H392     1.0000 0.92120  0.55800  0.22710  Biso   1.000  H
  C609     1.0000 0.90321  0.57510  0.27110  Biso   1.000  C
  C610     1.0000 0.88487  0.56950  0.28440  Biso   1.000  C
  H393     1.0000 0.88030  0.58360  0.31070  Biso   1.000  H
  C611     1.0000 0.87423  0.54290  0.25750  Biso   1.000  C
  H394     1.0000 0.86190  0.54020  0.26450  Biso   1.000  H
  C612     1.0000 0.91540  0.60580  0.29900  Biso   1.000  C
  C613     1.0000 0.92929  0.62660  0.28160  Biso   1.000  C
  H395     1.0000 0.93270  0.61900  0.25180  Biso   1.000  H
  C614     1.0000 0.93929  0.65930  0.30410  Biso   1.000  C
  H396     1.0000 0.94800  0.67710  0.28890  Biso   1.000  H
  C615     1.0000 0.93601  0.66440  0.34870  Biso   1.000  C
  C616     1.0000 0.92163  0.64030  0.36980  Biso   1.000  C
  H397     1.0000 0.91920  0.64540  0.40070  Biso   1.000  H
  C617     1.0000 0.91187  0.61160  0.34750  Biso   1.000  C
  H398     1.0000 0.90270  0.59500  0.36200  Biso   1.000  H
  C618     1.0000 0.07510  0.76690  0.35550  Biso   1.000  C
  C619     1.0000 0.05561  0.75350  0.35830  Biso   1.000  C
  C620     1.0000 0.04394  0.78180  0.38090  Biso   1.000  C
  H399     1.0000 0.04810  0.80840  0.39530  Biso   1.000  H
  C621     1.0000 0.02588  0.77030  0.38190  Biso   1.000  C
  H400     1.0000 0.01770  0.78960  0.39700  Biso   1.000  H
  C622     1.0000 0.01979  0.73270  0.36220  Biso   1.000  C
  C623     1.0000 0.03120  0.70380  0.33980  Biso   1.000  C
  H401     1.0000 0.02660  0.67740  0.32580  Biso   1.000  H
  C624     1.0000 0.05027  0.71380  0.33770  Biso   1.000  C
  H402     1.0000 0.05850  0.69430  0.32310  Biso   1.000  H
  C625     1.0000 0.00016  0.72160  0.36390  Biso   1.000  C
  C626     1.0000 0.98813  0.75740  0.37210  Biso   1.000  C
  H403     1.0000 0.99250  0.78720  0.37640  Biso   1.000  H
  C627     1.0000 0.97017  0.74930  0.37400  Biso   1.000  C
  H404     1.0000 0.96210  0.77360  0.37850  Biso   1.000  H
  C628     1.0000 0.96373  0.70520  0.36930  Biso   1.000  C
  C629     1.0000 0.97505  0.67110  0.36170  Biso   1.000  C
  H405     1.0000 0.97050  0.64130  0.35870  Biso   1.000  H
  C630     1.0000 0.99397  0.67850  0.35810  Biso   1.000  C
  H406     1.0000 0.00190  0.65430  0.35180  Biso   1.000  H
  N56      1.0000 0.94508  0.69610  0.37520  Biso   1.000  N
  O79      1.0000 0.08551  0.74567  0.33030  Biso   1.000  O
  O80      1.0000 0.07948  0.79940  0.38080  Biso   1.000  O
  O81      1.0000 0.86776  0.95104  0.53720  Biso   1.000  O
  O82      1.0000 0.86601  0.89917  0.59100  Biso   1.000  O
  O83      1.0000 0.87407  0.47292  0.15900  Biso   1.000  O
  O84      1.0000 0.85249  0.48170  0.21060  Biso   1.000  O
  Zn21     1.0000 0.85448  0.43527  0.13770  Biso   1.000  Zn
  C631     1.0000 0.82520  0.83510  0.70620  Biso   1.000  C
  H407     1.0000 0.81320  0.83160  0.71600  Biso   1.000  H
  C632     1.0000 0.85807  0.84570  0.67880  Biso   1.000  C
  H408     1.0000 0.87000  0.84850  0.66850  Biso   1.000  H
  C633     1.0000 0.89418  0.19000  0.63340  Biso   1.000  C
  C634     1.0000 0.82960  0.87720  0.68460  Biso   1.000  C
  H409     1.0000 0.82140  0.90110  0.67960  Biso   1.000  H
  C635     1.0000 0.95398  0.27340  0.75560  Biso   1.000  C
  H410     1.0000 0.94770  0.27350  0.78330  Biso   1.000  H
  C636     1.0000 0.83692  0.79860  0.71410  Biso   1.000  C
  C637     1.0000 0.83029  0.75830  0.73840  Biso   1.000  C
  C638     1.0000 0.91596  0.24800  0.68800  Biso   1.000  C
  C639     1.0000 0.97262  0.27060  0.75300  Biso   1.000  C
  H411     1.0000 0.97910  0.27020  0.78050  Biso   1.000  H
  C640     1.0000 0.90926  0.17500  0.65580  Biso   1.000  C
  H412     1.0000 0.91300  0.14460  0.65220  Biso   1.000  H
  C641     1.0000 0.85346  0.80350  0.70100  Biso   1.000  C
  H413     1.0000 0.86210  0.78050  0.70580  Biso   1.000  H
  C642     1.0000 0.84194  0.64690  0.89110  Biso   1.000  C
  H414     1.0000 0.85000  0.65160  0.91530  Biso   1.000  H
  C643     1.0000 0.85531  0.07770  0.51310  Biso   1.000  C
  C644     1.0000 0.86445  0.10770  0.54620  Biso   1.000  C
  C645     1.0000 0.87135  0.09120  0.58550  Biso   1.000  C
  H415     1.0000 0.86950  0.06040  0.59290  Biso   1.000  H
  C646     1.0000 0.88068  0.11770  0.61390  Biso   1.000  C
  H416     1.0000 0.88510  0.10490  0.64100  Biso   1.000  H
  C647     1.0000 0.88405  0.16290  0.60500  Biso   1.000  C
  C648     1.0000 0.87559  0.18060  0.56640  Biso   1.000  C
  H417     1.0000 0.87660  0.21190  0.56000  Biso   1.000  H
  C649     1.0000 0.86583  0.15320  0.53740  Biso   1.000  C
  H418     1.0000 0.86020  0.16580  0.51170  Biso   1.000  H
  C650     1.0000 0.82903  0.67210  0.82240  Biso   1.000  C
  C651     1.0000 0.84031  0.67850  0.86050  Biso   1.000  C
  H419     1.0000 0.84670  0.70600  0.86380  Biso   1.000  H
  C652     1.0000 0.91915  0.20420  0.68390  Biso   1.000  C
  H420     1.0000 0.92870  0.19170  0.70100  Biso   1.000  H
  C653     1.0000 0.81980  0.63280  0.81980  Biso   1.000  C
  H421     1.0000 0.81220  0.62650  0.79510  Biso   1.000  H
  C654     1.0000 0.90047  0.26710  0.66390  Biso   1.000  C
  H422     1.0000 0.89760  0.29840  0.66500  Biso   1.000  H
  C655     1.0000 0.89078  0.23810  0.64060  Biso   1.000  C
  H423     1.0000 0.88030  0.25000  0.62680  Biso   1.000  H
  C656     1.0000 0.05874  0.23880  0.71630  Biso   1.000  C
  C657     1.0000 0.03813  0.24900  0.71520  Biso   1.000  C
  C658     1.0000 0.02799  0.23310  0.67930  Biso   1.000  C
  H424     1.0000 0.03350  0.21670  0.65560  Biso   1.000  H
  C659     1.0000 0.00991  0.24140  0.67850  Biso   1.000  C
  H425     1.0000 0.00300  0.23210  0.65330  Biso   1.000  H
  C660     1.0000 0.00151  0.26340  0.71460  Biso   1.000  C
  C661     1.0000 0.01231  0.27840  0.74930  Biso   1.000  C
  H426     1.0000 0.00670  0.29270  0.77420  Biso   1.000  H
  C662     1.0000 0.02990  0.27420  0.75000  Biso   1.000  C
  H427     1.0000 0.03680  0.28770  0.77320  Biso   1.000  H
  C663     1.0000 0.98200  0.26860  0.71460  Biso   1.000  C
  C664     1.0000 0.97173  0.26930  0.67440  Biso   1.000  C
  H428     1.0000 0.97740  0.26780  0.64590  Biso   1.000  H
  C665     1.0000 0.95393  0.27200  0.67730  Biso   1.000  C
  H429     1.0000 0.94730  0.27110  0.65010  Biso   1.000  H
  C666     1.0000 0.94530  0.27580  0.71420  Biso   1.000  C
  C667     1.0000 0.82203  0.60130  0.85560  Biso   1.000  C
  H430     1.0000 0.81550  0.57380  0.85490  Biso   1.000  H
  C668     1.0000 0.82769  0.70360  0.78490  Biso   1.000  C
  C669     1.0000 0.85548  0.48130  0.91730  Biso   1.000  C
  C670     1.0000 0.86675  0.45080  0.88740  Biso   1.000  C
  C671     1.0000 0.87946  0.46740  0.85870  Biso   1.000  C
  H431     1.0000 0.88180  0.49900  0.85750  Biso   1.000  H
  C672     1.0000 0.88856  0.43900  0.83250  Biso   1.000  C
  H432     1.0000 0.89700  0.45190  0.81240  Biso   1.000  H
  C673     1.0000 0.88691  0.39390  0.83170  Biso   1.000  C
  C674     1.0000 0.87348  0.37660  0.86090  Biso   1.000  C
  H433     1.0000 0.87100  0.34510  0.86140  Biso   1.000  H
  C675     1.0000 0.86429  0.40520  0.88800  Biso   1.000  C
  H434     1.0000 0.85580  0.39300  0.90830  Biso   1.000  H
  C676     1.0000 0.89754  0.36450  0.80310  Biso   1.000  C
  C677     1.0000 0.91425  0.37610  0.78430  Biso   1.000  C
  H435     1.0000 0.91950  0.40420  0.79230  Biso   1.000  H
  C678     1.0000 0.92276  0.34970  0.75640  Biso   1.000  C
  H436     1.0000 0.93360  0.36020  0.74370  Biso   1.000  H
  C679     1.0000 0.91673  0.30690  0.74450  Biso   1.000  C
  C680     1.0000 0.90070  0.29250  0.76340  Biso   1.000  C
  H437     1.0000 0.89630  0.26310  0.75670  Biso   1.000  H
  C681     1.0000 0.89095  0.32080  0.79220  Biso   1.000  C
  H438     1.0000 0.87990  0.31070  0.80440  Biso   1.000  H
  N57      1.0000 0.92605  0.27990  0.71390  Biso   1.000  N
  N58      1.0000 0.83294  0.60892  0.88980  Biso   1.000  N
  N59      1.0000 0.83697  0.74143  0.77700  Biso   1.000  N
  N60      1.0000 0.81775  0.73350  0.72210  Biso   1.000  N
  N61      1.0000 0.81621  0.69870  0.75130  Biso   1.000  N
  N62      1.0000 0.85035  0.76090  0.80430  Biso   1.000  N
  H439     1.0000 0.85340  0.74800  0.82970  Biso   1.000  H
  H440     1.0000 0.85560  0.78610  0.79580  Biso   1.000  H
  N63      1.0000 0.84799  0.87850  0.67180  Biso   1.000  N
  O85      1.0000 0.84452  0.09673  0.48550  Biso   1.000  O
  O86      1.0000 0.85817  0.03652  0.51500  Biso   1.000  O
  O87      1.0000 0.84775  0.46304  0.94980  Biso   1.000  O
  O88      1.0000 0.85563  0.52255  0.90740  Biso   1.000  O
  O89      1.0000 0.06377  0.21729  0.68570  Biso   1.000  O
  O90      1.0000 0.06670  0.25340  0.74900  Biso   1.000  O
  Zn22     1.0000 0.83733  0.55929  0.93550  Biso   1.000  Zn
  Zn23     1.0000 0.84303  0.47853  0.01790  Biso   1.000  Zn
  C682     1.0000 0.87087  0.41290  0.05360  Biso   1.000  C
  C683     1.0000 0.88223  0.38060  0.02730  Biso   1.000  C
  C684     1.0000 0.88804  0.39330  0.98500  Biso   1.000  C
  H441     1.0000 0.88490  0.42190  0.97280  Biso   1.000  H
  C685     1.0000 0.89878  0.36300  0.96040  Biso   1.000  C
  H442     1.0000 0.90280  0.37090  0.93110  Biso   1.000  H
  C686     1.0000 0.90353  0.32190  0.97850  Biso   1.000  C
  C687     1.0000 0.89833  0.30990  0.02090  Biso   1.000  C
  H443     1.0000 0.90230  0.28220  0.03360  Biso   1.000  H
  C688     1.0000 0.88693  0.33900  0.04610  Biso   1.000  C
  H444     1.0000 0.88270  0.33040  0.07490  Biso   1.000  H
  C689     1.0000 0.91456  0.28900  0.95160  Biso   1.000  C
  C690     1.0000 0.91129  0.28340  0.90470  Biso   1.000  C
  H445     1.0000 0.90220  0.30040  0.89010  Biso   1.000  H
  C691     1.0000 0.92122  0.25380  0.88150  Biso   1.000  C
  H446     1.0000 0.91900  0.24940  0.85040  Biso   1.000  H
  C692     1.0000 0.93462  0.22950  0.90240  Biso   1.000  C
  C693     1.0000 0.93843  0.23530  0.94660  Biso   1.000  C
  H447     1.0000 0.94810  0.21920  0.95950  Biso   1.000  H
  C694     1.0000 0.92868  0.26370  0.97300  Biso   1.000  C
  H448     1.0000 0.93110  0.26670  0.00420  Biso   1.000  H
  C695     1.0000 0.86905  0.98940  0.69320  Biso   1.000  C
  C696     1.0000 0.88077  0.02010  0.72110  Biso   1.000  C
  C697     1.0000 0.89728  0.02670  0.70790  Biso   1.000  C
  H449     1.0000 0.90150  0.01340  0.68090  Biso   1.000  H
  C698     1.0000 0.90908  0.05470  0.73550  Biso   1.000  C
  H450     1.0000 0.92120  0.05800  0.72710  Biso   1.000  H
  C699     1.0000 0.90321  0.07510  0.77110  Biso   1.000  C
  C700     1.0000 0.88487  0.06950  0.78440  Biso   1.000  C
  H451     1.0000 0.88030  0.08360  0.81070  Biso   1.000  H
  C701     1.0000 0.87423  0.04290  0.75750  Biso   1.000  C
  H452     1.0000 0.86190  0.04020  0.76450  Biso   1.000  H
  C702     1.0000 0.91540  0.10580  0.79900  Biso   1.000  C
  C703     1.0000 0.92929  0.12660  0.78160  Biso   1.000  C
  H453     1.0000 0.93270  0.11900  0.75180  Biso   1.000  H
  C704     1.0000 0.93929  0.15930  0.80410  Biso   1.000  C
  H454     1.0000 0.94800  0.17710  0.78890  Biso   1.000  H
  C705     1.0000 0.93601  0.16440  0.84870  Biso   1.000  C
  C706     1.0000 0.92163  0.14030  0.86980  Biso   1.000  C
  H455     1.0000 0.91920  0.14540  0.90070  Biso   1.000  H
  C707     1.0000 0.91187  0.11160  0.84750  Biso   1.000  C
  H456     1.0000 0.90270  0.09500  0.86200  Biso   1.000  H
  C708     1.0000 0.07510  0.26690  0.85550  Biso   1.000  C
  C709     1.0000 0.05561  0.25350  0.85830  Biso   1.000  C
  C710     1.0000 0.04394  0.28180  0.88090  Biso   1.000  C
  H457     1.0000 0.04810  0.30840  0.89530  Biso   1.000  H
  C711     1.0000 0.02588  0.27030  0.88190  Biso   1.000  C
  H458     1.0000 0.01770  0.28960  0.89700  Biso   1.000  H
  C712     1.0000 0.01979  0.23270  0.86220  Biso   1.000  C
  C713     1.0000 0.03120  0.20380  0.83980  Biso   1.000  C
  H459     1.0000 0.02660  0.17740  0.82580  Biso   1.000  H
  C714     1.0000 0.05027  0.21380  0.83770  Biso   1.000  C
  H460     1.0000 0.05850  0.19430  0.82310  Biso   1.000  H
  C715     1.0000 0.00016  0.22160  0.86390  Biso   1.000  C
  C716     1.0000 0.98813  0.25740  0.87210  Biso   1.000  C
  H461     1.0000 0.99250  0.28720  0.87640  Biso   1.000  H
  C717     1.0000 0.97017  0.24930  0.87400  Biso   1.000  C
  H462     1.0000 0.96210  0.27360  0.87850  Biso   1.000  H
  C718     1.0000 0.96373  0.20520  0.86930  Biso   1.000  C
  C719     1.0000 0.97505  0.17110  0.86170  Biso   1.000  C
  H463     1.0000 0.97050  0.14130  0.85870  Biso   1.000  H
  C720     1.0000 0.99397  0.17850  0.85810  Biso   1.000  C
  H464     1.0000 0.00190  0.15430  0.85180  Biso   1.000  H
  N64      1.0000 0.94508  0.19610  0.87520  Biso   1.000  N
  O91      1.0000 0.08551  0.24567  0.83030  Biso   1.000  O
  O92      1.0000 0.07948  0.29940  0.88080  Biso   1.000  O
  O93      1.0000 0.86776  0.45104  0.03720  Biso   1.000  O
  O94      1.0000 0.86601  0.39917  0.09100  Biso   1.000  O
  O95      1.0000 0.87407  0.97292  0.65900  Biso   1.000  O
  O96      1.0000 0.85249  0.98170  0.71060  Biso   1.000  O
  Zn24     1.0000 0.85448  0.93527  0.63770  Biso   1.000  Zn
  C721     1.0000 0.92480  0.08510  0.45620  Biso   1.000  C
  H465     1.0000 0.93680  0.08160  0.46600  Biso   1.000  H
  C722     1.0000 0.89193  0.09570  0.42880  Biso   1.000  C
  H466     1.0000 0.88000  0.09850  0.41850  Biso   1.000  H
  C723     1.0000 0.85582  0.44000  0.38340  Biso   1.000  C
  C724     1.0000 0.92040  0.12720  0.43460  Biso   1.000  C
  H467     1.0000 0.92860  0.15110  0.42960  Biso   1.000  H
  C725     1.0000 0.79602  0.52340  0.50560  Biso   1.000  C
  H468     1.0000 0.80230  0.52350  0.53330  Biso   1.000  H
  C726     1.0000 0.91308  0.04860  0.46410  Biso   1.000  C
  C727     1.0000 0.91971  0.00830  0.48840  Biso   1.000  C
  C728     1.0000 0.83404  0.49800  0.43800  Biso   1.000  C
  C729     1.0000 0.77738  0.52060  0.50300  Biso   1.000  C
  H469     1.0000 0.77090  0.52020  0.53050  Biso   1.000  H
  C730     1.0000 0.84074  0.42500  0.40580  Biso   1.000  C
  H470     1.0000 0.83700  0.39460  0.40220  Biso   1.000  H
  C731     1.0000 0.89654  0.05350  0.45100  Biso   1.000  C
  H471     1.0000 0.88790  0.03050  0.45580  Biso   1.000  H
  C732     1.0000 0.90806  0.89690  0.64110  Biso   1.000  C
  H472     1.0000 0.90000  0.90160  0.66530  Biso   1.000  H
  C733     1.0000 0.89469  0.32770  0.26310  Biso   1.000  C
  C734     1.0000 0.88555  0.35770  0.29620  Biso   1.000  C
  C735     1.0000 0.87865  0.34120  0.33550  Biso   1.000  C
  H473     1.0000 0.88050  0.31040  0.34290  Biso   1.000  H
  C736     1.0000 0.86932  0.36770  0.36390  Biso   1.000  C
  H474     1.0000 0.86490  0.35490  0.39100  Biso   1.000  H
  C737     1.0000 0.86595  0.41290  0.35500  Biso   1.000  C
  C738     1.0000 0.87441  0.43060  0.31640  Biso   1.000  C
  H475     1.0000 0.87340  0.46190  0.31000  Biso   1.000  H
  C739     1.0000 0.88417  0.40320  0.28740  Biso   1.000  C
  H476     1.0000 0.88980  0.41580  0.26170  Biso   1.000  H
  C740     1.0000 0.92097  0.92210  0.57240  Biso   1.000  C
  C741     1.0000 0.90969  0.92850  0.61050  Biso   1.000  C
  H477     1.0000 0.90330  0.95600  0.61380  Biso   1.000  H
  C742     1.0000 0.83085  0.45420  0.43390  Biso   1.000  C
  H478     1.0000 0.82130  0.44170  0.45100  Biso   1.000  H
  C743     1.0000 0.93020  0.88280  0.56980  Biso   1.000  C
  H479     1.0000 0.93780  0.87650  0.54510  Biso   1.000  H
  C744     1.0000 0.84953  0.51710  0.41390  Biso   1.000  C
  H480     1.0000 0.85240  0.54840  0.41500  Biso   1.000  H
  C745     1.0000 0.85922  0.48810  0.39060  Biso   1.000  C
  H481     1.0000 0.86970  0.50000  0.37680  Biso   1.000  H
  C746     1.0000 0.69126  0.48880  0.46630  Biso   1.000  C
  C747     1.0000 0.71187  0.49900  0.46520  Biso   1.000  C
  C748     1.0000 0.72201  0.48310  0.42930  Biso   1.000  C
  H482     1.0000 0.71650  0.46670  0.40560  Biso   1.000  H
  C749     1.0000 0.74009  0.49140  0.42850  Biso   1.000  C
  H483     1.0000 0.74700  0.48210  0.40330  Biso   1.000  H
  C750     1.0000 0.74849  0.51340  0.46460  Biso   1.000  C
  C751     1.0000 0.73769  0.52840  0.49930  Biso   1.000  C
  H484     1.0000 0.74330  0.54270  0.52420  Biso   1.000  H
  C752     1.0000 0.72010  0.52420  0.50000  Biso   1.000  C
  H485     1.0000 0.71320  0.53770  0.52320  Biso   1.000  H
  C753     1.0000 0.76800  0.51860  0.46460  Biso   1.000  C
  C754     1.0000 0.77827  0.51930  0.42440  Biso   1.000  C
  H486     1.0000 0.77260  0.51780  0.39590  Biso   1.000  H
  C755     1.0000 0.79607  0.52200  0.42730  Biso   1.000  C
  H487     1.0000 0.80270  0.52110  0.40010  Biso   1.000  H
  C756     1.0000 0.80470  0.52580  0.46420  Biso   1.000  C
  C757     1.0000 0.92797  0.85130  0.60560  Biso   1.000  C
  H488     1.0000 0.93450  0.82380  0.60490  Biso   1.000  H
  C758     1.0000 0.92231  0.95360  0.53490  Biso   1.000  C
  C759     1.0000 0.89452  0.73130  0.66730  Biso   1.000  C
  C760     1.0000 0.88325  0.70080  0.63740  Biso   1.000  C
  C761     1.0000 0.87054  0.71740  0.60870  Biso   1.000  C
  H489     1.0000 0.86820  0.74900  0.60750  Biso   1.000  H
  C762     1.0000 0.86144  0.68900  0.58250  Biso   1.000  C
  H490     1.0000 0.85300  0.70190  0.56240  Biso   1.000  H
  C763     1.0000 0.86309  0.64390  0.58170  Biso   1.000  C
  C764     1.0000 0.87652  0.62660  0.61090  Biso   1.000  C
  H491     1.0000 0.87900  0.59510  0.61140  Biso   1.000  H
  C765     1.0000 0.88571  0.65520  0.63800  Biso   1.000  C
  H492     1.0000 0.89420  0.64300  0.65830  Biso   1.000  H
  C766     1.0000 0.85246  0.61450  0.55310  Biso   1.000  C
  C767     1.0000 0.83575  0.62610  0.53430  Biso   1.000  C
  H493     1.0000 0.83050  0.65420  0.54230  Biso   1.000  H
  C768     1.0000 0.82724  0.59970  0.50640  Biso   1.000  C
  H494     1.0000 0.81640  0.61020  0.49370  Biso   1.000  H
  C769     1.0000 0.83327  0.55690  0.49450  Biso   1.000  C
  C770     1.0000 0.84930  0.54250  0.51340  Biso   1.000  C
  H495     1.0000 0.85370  0.51310  0.50670  Biso   1.000  H
  C771     1.0000 0.85905  0.57080  0.54220  Biso   1.000  C
  H496     1.0000 0.87010  0.56070  0.55440  Biso   1.000  H
  N65      1.0000 0.82395  0.52990  0.46390  Biso   1.000  N
  N66      1.0000 0.91706  0.85892  0.63980  Biso   1.000  N
  N67      1.0000 0.91303  0.99143  0.52700  Biso   1.000  N
  N68      1.0000 0.93225  0.98350  0.47210  Biso   1.000  N
  N69      1.0000 0.93379  0.94870  0.50130  Biso   1.000  N
  N70      1.0000 0.89965  0.01090  0.55430  Biso   1.000  N
  H497     1.0000 0.89660  0.99800  0.57970  Biso   1.000  H
  H498     1.0000 0.89440  0.03610  0.54580  Biso   1.000  H
  N71      1.0000 0.90201  0.12850  0.42180  Biso   1.000  N
  O97      1.0000 0.90548  0.34673  0.23550  Biso   1.000  O
  O98      1.0000 0.89183  0.28652  0.26500  Biso   1.000  O
  O99      1.0000 0.90225  0.71304  0.69980  Biso   1.000  O
  O100     1.0000 0.89437  0.77255  0.65740  Biso   1.000  O
  O101     1.0000 0.68623  0.46729  0.43570  Biso   1.000  O
  O102     1.0000 0.68330  0.50340  0.49900  Biso   1.000  O
  Zn25     1.0000 0.91267  0.80929  0.68550  Biso   1.000  Zn
  Zn26     1.0000 0.90697  0.72853  0.76790  Biso   1.000  Zn
  C772     1.0000 0.87913  0.66290  0.80360  Biso   1.000  C
  C773     1.0000 0.86777  0.63060  0.77730  Biso   1.000  C
  C774     1.0000 0.86196  0.64330  0.73500  Biso   1.000  C
  H499     1.0000 0.86510  0.67190  0.72280  Biso   1.000  H
  C775     1.0000 0.85122  0.61300  0.71040  Biso   1.000  C
  H500     1.0000 0.84720  0.62090  0.68110  Biso   1.000  H
  C776     1.0000 0.84647  0.57190  0.72850  Biso   1.000  C
  C777     1.0000 0.85167  0.55990  0.77090  Biso   1.000  C
  H501     1.0000 0.84770  0.53220  0.78360  Biso   1.000  H
  C778     1.0000 0.86307  0.58900  0.79610  Biso   1.000  C
  H502     1.0000 0.86730  0.58040  0.82490  Biso   1.000  H
  C779     1.0000 0.83544  0.53900  0.70160  Biso   1.000  C
  C780     1.0000 0.83871  0.53340  0.65470  Biso   1.000  C
  H503     1.0000 0.84780  0.55040  0.64010  Biso   1.000  H
  C781     1.0000 0.82878  0.50380  0.63150  Biso   1.000  C
  H504     1.0000 0.83100  0.49940  0.60040  Biso   1.000  H
  C782     1.0000 0.81538  0.47950  0.65240  Biso   1.000  C
  C783     1.0000 0.81157  0.48530  0.69660  Biso   1.000  C
  H505     1.0000 0.80190  0.46920  0.70950  Biso   1.000  H
  C784     1.0000 0.82132  0.51370  0.72300  Biso   1.000  C
  H506     1.0000 0.81890  0.51670  0.75420  Biso   1.000  H
  C785     1.0000 0.88095  0.23940  0.44320  Biso   1.000  C
  C786     1.0000 0.86923  0.27010  0.47110  Biso   1.000  C
  C787     1.0000 0.85272  0.27670  0.45790  Biso   1.000  C
  H507     1.0000 0.84850  0.26340  0.43090  Biso   1.000  H
  C788     1.0000 0.84092  0.30470  0.48550  Biso   1.000  C
  H508     1.0000 0.82880  0.30800  0.47710  Biso   1.000  H
  C789     1.0000 0.84679  0.32510  0.52110  Biso   1.000  C
  C790     1.0000 0.86513  0.31950  0.53440  Biso   1.000  C
  H509     1.0000 0.86970  0.33360  0.56070  Biso   1.000  H
  C791     1.0000 0.87577  0.29290  0.50750  Biso   1.000  C
  H510     1.0000 0.88810  0.29020  0.51450  Biso   1.000  H
  C792     1.0000 0.83460  0.35580  0.54900  Biso   1.000  C
  C793     1.0000 0.82071  0.37660  0.53160  Biso   1.000  C
  H511     1.0000 0.81730  0.36900  0.50180  Biso   1.000  H
  C794     1.0000 0.81071  0.40930  0.55410  Biso   1.000  C
  H512     1.0000 0.80200  0.42710  0.53890  Biso   1.000  H
  C795     1.0000 0.81399  0.41440  0.59870  Biso   1.000  C
  C796     1.0000 0.82837  0.39030  0.61980  Biso   1.000  C
  H513     1.0000 0.83080  0.39540  0.65070  Biso   1.000  H
  C797     1.0000 0.83813  0.36160  0.59750  Biso   1.000  C
  H514     1.0000 0.84730  0.34500  0.61200  Biso   1.000  H
  C798     1.0000 0.67490  0.51690  0.60550  Biso   1.000  C
  C799     1.0000 0.69439  0.50350  0.60830  Biso   1.000  C
  C800     1.0000 0.70606  0.53180  0.63090  Biso   1.000  C
  H515     1.0000 0.70190  0.55840  0.64530  Biso   1.000  H
  C801     1.0000 0.72412  0.52030  0.63190  Biso   1.000  C
  H516     1.0000 0.73230  0.53960  0.64700  Biso   1.000  H
  C802     1.0000 0.73021  0.48270  0.61220  Biso   1.000  C
  C803     1.0000 0.71880  0.45380  0.58980  Biso   1.000  C
  H517     1.0000 0.72340  0.42740  0.57580  Biso   1.000  H
  C804     1.0000 0.69973  0.46380  0.58770  Biso   1.000  C
  H518     1.0000 0.69150  0.44430  0.57310  Biso   1.000  H
  C805     1.0000 0.74984  0.47160  0.61390  Biso   1.000  C
  C806     1.0000 0.76187  0.50740  0.62210  Biso   1.000  C
  H519     1.0000 0.75750  0.53720  0.62640  Biso   1.000  H
  C807     1.0000 0.77983  0.49930  0.62400  Biso   1.000  C
  H520     1.0000 0.78790  0.52360  0.62850  Biso   1.000  H
  C808     1.0000 0.78627  0.45520  0.61930  Biso   1.000  C
  C809     1.0000 0.77495  0.42110  0.61170  Biso   1.000  C
  H521     1.0000 0.77950  0.39130  0.60870  Biso   1.000  H
  C810     1.0000 0.75603  0.42850  0.60810  Biso   1.000  C
  H522     1.0000 0.74810  0.40430  0.60180  Biso   1.000  H
  N72      1.0000 0.80492  0.44610  0.62520  Biso   1.000  N
  O103     1.0000 0.66449  0.49567  0.58030  Biso   1.000  O
  O104     1.0000 0.67052  0.54940  0.63080  Biso   1.000  O
  O105     1.0000 0.88224  0.70104  0.78720  Biso   1.000  O
  O106     1.0000 0.88399  0.64917  0.84100  Biso   1.000  O
  O107     1.0000 0.87593  0.22292  0.40900  Biso   1.000  O
  O108     1.0000 0.89751  0.23170  0.46060  Biso   1.000  O
  Zn27     1.0000 0.89552  0.18527  0.38770  Biso   1.000  Zn
  C811     1.0000 0.92480  0.58510  0.95620  Biso   1.000  C
  H523     1.0000 0.93680  0.58160  0.96600  Biso   1.000  H
  C812     1.0000 0.89193  0.59570  0.92880  Biso   1.000  C
  H524     1.0000 0.88000  0.59850  0.91850  Biso   1.000  H
  C813     1.0000 0.85582  0.94000  0.88340  Biso   1.000  C
  C814     1.0000 0.92040  0.62720  0.93460  Biso   1.000  C
  H525     1.0000 0.92860  0.65110  0.92960  Biso   1.000  H
  C815     1.0000 0.79602  0.02340  0.00560  Biso   1.000  C
  H526     1.0000 0.80230  0.02350  0.03330  Biso   1.000  H
  C816     1.0000 0.91308  0.54860  0.96410  Biso   1.000  C
  C817     1.0000 0.91971  0.50830  0.98840  Biso   1.000  C
  C818     1.0000 0.83404  0.99800  0.93800  Biso   1.000  C
  C819     1.0000 0.77738  0.02060  0.00300  Biso   1.000  C
  H527     1.0000 0.77090  0.02020  0.03050  Biso   1.000  H
  C820     1.0000 0.84074  0.92500  0.90580  Biso   1.000  C
  H528     1.0000 0.83700  0.89460  0.90220  Biso   1.000  H
  C821     1.0000 0.89654  0.55350  0.95100  Biso   1.000  C
  H529     1.0000 0.88790  0.53050  0.95580  Biso   1.000  H
  C822     1.0000 0.90806  0.39690  0.14110  Biso   1.000  C
  H530     1.0000 0.90000  0.40160  0.16530  Biso   1.000  H
  C823     1.0000 0.89469  0.82770  0.76310  Biso   1.000  C
  C824     1.0000 0.88555  0.85770  0.79620  Biso   1.000  C
  C825     1.0000 0.87865  0.84120  0.83550  Biso   1.000  C
  H531     1.0000 0.88050  0.81040  0.84290  Biso   1.000  H
  C826     1.0000 0.86932  0.86770  0.86390  Biso   1.000  C
  H532     1.0000 0.86490  0.85490  0.89100  Biso   1.000  H
  C827     1.0000 0.86595  0.91290  0.85500  Biso   1.000  C
  C828     1.0000 0.87441  0.93060  0.81640  Biso   1.000  C
  H533     1.0000 0.87340  0.96190  0.81000  Biso   1.000  H
  C829     1.0000 0.88417  0.90320  0.78740  Biso   1.000  C
  H534     1.0000 0.88980  0.91580  0.76170  Biso   1.000  H
  C830     1.0000 0.92097  0.42210  0.07240  Biso   1.000  C
  C831     1.0000 0.90969  0.42850  0.11050  Biso   1.000  C
  H535     1.0000 0.90330  0.45600  0.11380  Biso   1.000  H
  C832     1.0000 0.83085  0.95420  0.93390  Biso   1.000  C
  H536     1.0000 0.82130  0.94170  0.95100  Biso   1.000  H
  C833     1.0000 0.93020  0.38280  0.06980  Biso   1.000  C
  H537     1.0000 0.93780  0.37650  0.04510  Biso   1.000  H
  C834     1.0000 0.84953  0.01710  0.91390  Biso   1.000  C
  H538     1.0000 0.85240  0.04840  0.91500  Biso   1.000  H
  C835     1.0000 0.85922  0.98810  0.89060  Biso   1.000  C
  H539     1.0000 0.86970  0.00000  0.87680  Biso   1.000  H
  C836     1.0000 0.69126  0.98880  0.96630  Biso   1.000  C
  C837     1.0000 0.71187  0.99900  0.96520  Biso   1.000  C
  C838     1.0000 0.72201  0.98310  0.92930  Biso   1.000  C
  H540     1.0000 0.71650  0.96670  0.90560  Biso   1.000  H
  C839     1.0000 0.74009  0.99140  0.92850  Biso   1.000  C
  H541     1.0000 0.74700  0.98210  0.90330  Biso   1.000  H
  C840     1.0000 0.74849  0.01340  0.96460  Biso   1.000  C
  C841     1.0000 0.73769  0.02840  0.99930  Biso   1.000  C
  H542     1.0000 0.74330  0.04270  0.02420  Biso   1.000  H
  C842     1.0000 0.72010  0.02420  0.00000  Biso   1.000  C
  H543     1.0000 0.71320  0.03770  0.02320  Biso   1.000  H
  C843     1.0000 0.76800  0.01860  0.96460  Biso   1.000  C
  C844     1.0000 0.77827  0.01930  0.92440  Biso   1.000  C
  H544     1.0000 0.77260  0.01780  0.89590  Biso   1.000  H
  C845     1.0000 0.79607  0.02200  0.92730  Biso   1.000  C
  H545     1.0000 0.80270  0.02110  0.90010  Biso   1.000  H
  C846     1.0000 0.80470  0.02580  0.96420  Biso   1.000  C
  C847     1.0000 0.92797  0.35130  0.10560  Biso   1.000  C
  H546     1.0000 0.93450  0.32380  0.10490  Biso   1.000  H
  C848     1.0000 0.92231  0.45360  0.03490  Biso   1.000  C
  C849     1.0000 0.89452  0.23130  0.16730  Biso   1.000  C
  C850     1.0000 0.88325  0.20080  0.13740  Biso   1.000  C
  C851     1.0000 0.87054  0.21740  0.10870  Biso   1.000  C
  H547     1.0000 0.86820  0.24900  0.10750  Biso   1.000  H
  C852     1.0000 0.86144  0.18900  0.08250  Biso   1.000  C
  H548     1.0000 0.85300  0.20190  0.06240  Biso   1.000  H
  C853     1.0000 0.86309  0.14390  0.08170  Biso   1.000  C
  C854     1.0000 0.87652  0.12660  0.11090  Biso   1.000  C
  H549     1.0000 0.87900  0.09510  0.11140  Biso   1.000  H
  C855     1.0000 0.88571  0.15520  0.13800  Biso   1.000  C
  H550     1.0000 0.89420  0.14300  0.15830  Biso   1.000  H
  C856     1.0000 0.85246  0.11450  0.05310  Biso   1.000  C
  C857     1.0000 0.83575  0.12610  0.03430  Biso   1.000  C
  H551     1.0000 0.83050  0.15420  0.04230  Biso   1.000  H
  C858     1.0000 0.82724  0.09970  0.00640  Biso   1.000  C
  H552     1.0000 0.81640  0.11020  0.99370  Biso   1.000  H
  C859     1.0000 0.83327  0.05690  0.99450  Biso   1.000  C
  C860     1.0000 0.84930  0.04250  0.01340  Biso   1.000  C
  H553     1.0000 0.85370  0.01310  0.00670  Biso   1.000  H
  C861     1.0000 0.85905  0.07080  0.04220  Biso   1.000  C
  H554     1.0000 0.87010  0.06070  0.05440  Biso   1.000  H
  N73      1.0000 0.82395  0.02990  0.96390  Biso   1.000  N
  N74      1.0000 0.91706  0.35892  0.13980  Biso   1.000  N
  N75      1.0000 0.91303  0.49143  0.02700  Biso   1.000  N
  N76      1.0000 0.93225  0.48350  0.97210  Biso   1.000  N
  N77      1.0000 0.93379  0.44870  0.00130  Biso   1.000  N
  N78      1.0000 0.89965  0.51090  0.05430  Biso   1.000  N
  H555     1.0000 0.89660  0.49800  0.07970  Biso   1.000  H
  H556     1.0000 0.89440  0.53610  0.04580  Biso   1.000  H
  N79      1.0000 0.90201  0.62850  0.92180  Biso   1.000  N
  O109     1.0000 0.90548  0.84673  0.73550  Biso   1.000  O
  O110     1.0000 0.89183  0.78652  0.76500  Biso   1.000  O
  O111     1.0000 0.90225  0.21304  0.19980  Biso   1.000  O
  O112     1.0000 0.89437  0.27255  0.15740  Biso   1.000  O
  O113     1.0000 0.68623  0.96729  0.93570  Biso   1.000  O
  O114     1.0000 0.68330  0.00340  0.99900  Biso   1.000  O
  Zn28     1.0000 0.91267  0.30929  0.18550  Biso   1.000  Zn
  Zn29     1.0000 0.90697  0.22853  0.26790  Biso   1.000  Zn
  C862     1.0000 0.87913  0.16290  0.30360  Biso   1.000  C
  C863     1.0000 0.86777  0.13060  0.27730  Biso   1.000  C
  C864     1.0000 0.86196  0.14330  0.23500  Biso   1.000  C
  H557     1.0000 0.86510  0.17190  0.22280  Biso   1.000  H
  C865     1.0000 0.85122  0.11300  0.21040  Biso   1.000  C
  H558     1.0000 0.84720  0.12090  0.18110  Biso   1.000  H
  C866     1.0000 0.84647  0.07190  0.22850  Biso   1.000  C
  C867     1.0000 0.85167  0.05990  0.27090  Biso   1.000  C
  H559     1.0000 0.84770  0.03220  0.28360  Biso   1.000  H
  C868     1.0000 0.86307  0.08900  0.29610  Biso   1.000  C
  H560     1.0000 0.86730  0.08040  0.32490  Biso   1.000  H
  C869     1.0000 0.83544  0.03900  0.20160  Biso   1.000  C
  C870     1.0000 0.83871  0.03340  0.15470  Biso   1.000  C
  H561     1.0000 0.84780  0.05040  0.14010  Biso   1.000  H
  C871     1.0000 0.82878  0.00380  0.13150  Biso   1.000  C
  H562     1.0000 0.83100  0.99940  0.10040  Biso   1.000  H
  C872     1.0000 0.81538  0.97950  0.15240  Biso   1.000  C
  C873     1.0000 0.81157  0.98530  0.19660  Biso   1.000  C
  H563     1.0000 0.80190  0.96920  0.20950  Biso   1.000  H
  C874     1.0000 0.82132  0.01370  0.22300  Biso   1.000  C
  H564     1.0000 0.81890  0.01670  0.25420  Biso   1.000  H
  C875     1.0000 0.88095  0.73940  0.94320  Biso   1.000  C
  C876     1.0000 0.86923  0.77010  0.97110  Biso   1.000  C
  C877     1.0000 0.85272  0.77670  0.95790  Biso   1.000  C
  H565     1.0000 0.84850  0.76340  0.93090  Biso   1.000  H
  C878     1.0000 0.84092  0.80470  0.98550  Biso   1.000  C
  H566     1.0000 0.82880  0.80800  0.97710  Biso   1.000  H
  C879     1.0000 0.84679  0.82510  0.02110  Biso   1.000  C
  C880     1.0000 0.86513  0.81950  0.03440  Biso   1.000  C
  H567     1.0000 0.86970  0.83360  0.06070  Biso   1.000  H
  C881     1.0000 0.87577  0.79290  0.00750  Biso   1.000  C
  H568     1.0000 0.88810  0.79020  0.01450  Biso   1.000  H
  C882     1.0000 0.83460  0.85580  0.04900  Biso   1.000  C
  C883     1.0000 0.82071  0.87660  0.03160  Biso   1.000  C
  H569     1.0000 0.81730  0.86900  0.00180  Biso   1.000  H
  C884     1.0000 0.81071  0.90930  0.05410  Biso   1.000  C
  H570     1.0000 0.80200  0.92710  0.03890  Biso   1.000  H
  C885     1.0000 0.81399  0.91440  0.09870  Biso   1.000  C
  C886     1.0000 0.82837  0.89030  0.11980  Biso   1.000  C
  H571     1.0000 0.83080  0.89540  0.15070  Biso   1.000  H
  C887     1.0000 0.83813  0.86160  0.09750  Biso   1.000  C
  H572     1.0000 0.84730  0.84500  0.11200  Biso   1.000  H
  C888     1.0000 0.67490  0.01690  0.10550  Biso   1.000  C
  C889     1.0000 0.69439  0.00350  0.10830  Biso   1.000  C
  C890     1.0000 0.70606  0.03180  0.13090  Biso   1.000  C
  H573     1.0000 0.70190  0.05840  0.14530  Biso   1.000  H
  C891     1.0000 0.72412  0.02030  0.13190  Biso   1.000  C
  H574     1.0000 0.73230  0.03960  0.14700  Biso   1.000  H
  C892     1.0000 0.73021  0.98270  0.11220  Biso   1.000  C
  C893     1.0000 0.71880  0.95380  0.08980  Biso   1.000  C
  H575     1.0000 0.72340  0.92740  0.07580  Biso   1.000  H
  C894     1.0000 0.69973  0.96380  0.08770  Biso   1.000  C
  H576     1.0000 0.69150  0.94430  0.07310  Biso   1.000  H
  C895     1.0000 0.74984  0.97160  0.11390  Biso   1.000  C
  C896     1.0000 0.76187  0.00740  0.12210  Biso   1.000  C
  H577     1.0000 0.75750  0.03720  0.12640  Biso   1.000  H
  C897     1.0000 0.77983  0.99930  0.12400  Biso   1.000  C
  H578     1.0000 0.78790  0.02360  0.12850  Biso   1.000  H
  C898     1.0000 0.78627  0.95520  0.11930  Biso   1.000  C
  C899     1.0000 0.77495  0.92110  0.11170  Biso   1.000  C
  H579     1.0000 0.77950  0.89130  0.10870  Biso   1.000  H
  C900     1.0000 0.75603  0.92850  0.10810  Biso   1.000  C
  H580     1.0000 0.74810  0.90430  0.10180  Biso   1.000  H
  N80      1.0000 0.80492  0.94610  0.12520  Biso   1.000  N
  O115     1.0000 0.66449  0.99567  0.08030  Biso   1.000  O
  O116     1.0000 0.67052  0.04940  0.13080  Biso   1.000  O
  O117     1.0000 0.88224  0.20104  0.28720  Biso   1.000  O
  O118     1.0000 0.88399  0.14917  0.34100  Biso   1.000  O
  O119     1.0000 0.87593  0.72292  0.90900  Biso   1.000  O
  O120     1.0000 0.89751  0.73170  0.96060  Biso   1.000  O
  Zn30     1.0000 0.89552  0.68527  0.88770  Biso   1.000  Zn
  C901     1.0000 0.42480  0.08510  0.95620  Biso   1.000  C
  H581     1.0000 0.43680  0.08160  0.96600  Biso   1.000  H
  C902     1.0000 0.39193  0.09570  0.92880  Biso   1.000  C
  H582     1.0000 0.38000  0.09850  0.91850  Biso   1.000  H
  C903     1.0000 0.35582  0.44000  0.88340  Biso   1.000  C
  C904     1.0000 0.42040  0.12720  0.93460  Biso   1.000  C
  H583     1.0000 0.42860  0.15110  0.92960  Biso   1.000  H
  C905     1.0000 0.29602  0.52340  0.00560  Biso   1.000  C
  H584     1.0000 0.30230  0.52350  0.03330  Biso   1.000  H
  C906     1.0000 0.41308  0.04860  0.96410  Biso   1.000  C
  C907     1.0000 0.41971  0.00830  0.98840  Biso   1.000  C
  C908     1.0000 0.33404  0.49800  0.93800  Biso   1.000  C
  C909     1.0000 0.27738  0.52060  0.00300  Biso   1.000  C
  H585     1.0000 0.27090  0.52020  0.03050  Biso   1.000  H
  C910     1.0000 0.34074  0.42500  0.90580  Biso   1.000  C
  H586     1.0000 0.33700  0.39460  0.90220  Biso   1.000  H
  C911     1.0000 0.39654  0.05350  0.95100  Biso   1.000  C
  H587     1.0000 0.38790  0.03050  0.95580  Biso   1.000  H
  C912     1.0000 0.40806  0.89690  0.14110  Biso   1.000  C
  H588     1.0000 0.40000  0.90160  0.16530  Biso   1.000  H
  C913     1.0000 0.39469  0.32770  0.76310  Biso   1.000  C
  C914     1.0000 0.38555  0.35770  0.79620  Biso   1.000  C
  C915     1.0000 0.37865  0.34120  0.83550  Biso   1.000  C
  H589     1.0000 0.38050  0.31040  0.84290  Biso   1.000  H
  C916     1.0000 0.36932  0.36770  0.86390  Biso   1.000  C
  H590     1.0000 0.36490  0.35490  0.89100  Biso   1.000  H
  C917     1.0000 0.36595  0.41290  0.85500  Biso   1.000  C
  C918     1.0000 0.37441  0.43060  0.81640  Biso   1.000  C
  H591     1.0000 0.37340  0.46190  0.81000  Biso   1.000  H
  C919     1.0000 0.38417  0.40320  0.78740  Biso   1.000  C
  H592     1.0000 0.38980  0.41580  0.76170  Biso   1.000  H
  C920     1.0000 0.42097  0.92210  0.07240  Biso   1.000  C
  C921     1.0000 0.40969  0.92850  0.11050  Biso   1.000  C
  H593     1.0000 0.40330  0.95600  0.11380  Biso   1.000  H
  C922     1.0000 0.33085  0.45420  0.93390  Biso   1.000  C
  H594     1.0000 0.32130  0.44170  0.95100  Biso   1.000  H
  C923     1.0000 0.43020  0.88280  0.06980  Biso   1.000  C
  H595     1.0000 0.43780  0.87650  0.04510  Biso   1.000  H
  C924     1.0000 0.34953  0.51710  0.91390  Biso   1.000  C
  H596     1.0000 0.35240  0.54840  0.91500  Biso   1.000  H
  C925     1.0000 0.35922  0.48810  0.89060  Biso   1.000  C
  H597     1.0000 0.36970  0.50000  0.87680  Biso   1.000  H
  C926     1.0000 0.19126  0.48880  0.96630  Biso   1.000  C
  C927     1.0000 0.21187  0.49900  0.96520  Biso   1.000  C
  C928     1.0000 0.22201  0.48310  0.92930  Biso   1.000  C
  H598     1.0000 0.21650  0.46670  0.90560  Biso   1.000  H
  C929     1.0000 0.24009  0.49140  0.92850  Biso   1.000  C
  H599     1.0000 0.24700  0.48210  0.90330  Biso   1.000  H
  C930     1.0000 0.24849  0.51340  0.96460  Biso   1.000  C
  C931     1.0000 0.23769  0.52840  0.99930  Biso   1.000  C
  H600     1.0000 0.24330  0.54270  0.02420  Biso   1.000  H
  C932     1.0000 0.22010  0.52420  0.00000  Biso   1.000  C
  H601     1.0000 0.21320  0.53770  0.02320  Biso   1.000  H
  C933     1.0000 0.26800  0.51860  0.96460  Biso   1.000  C
  C934     1.0000 0.27827  0.51930  0.92440  Biso   1.000  C
  H602     1.0000 0.27260  0.51780  0.89590  Biso   1.000  H
  C935     1.0000 0.29607  0.52200  0.92730  Biso   1.000  C
  H603     1.0000 0.30270  0.52110  0.90010  Biso   1.000  H
  C936     1.0000 0.30470  0.52580  0.96420  Biso   1.000  C
  C937     1.0000 0.42797  0.85130  0.10560  Biso   1.000  C
  H604     1.0000 0.43450  0.82380  0.10490  Biso   1.000  H
  C938     1.0000 0.42231  0.95360  0.03490  Biso   1.000  C
  C939     1.0000 0.39452  0.73130  0.16730  Biso   1.000  C
  C940     1.0000 0.38325  0.70080  0.13740  Biso   1.000  C
  C941     1.0000 0.37054  0.71740  0.10870  Biso   1.000  C
  H605     1.0000 0.36820  0.74900  0.10750  Biso   1.000  H
  C942     1.0000 0.36144  0.68900  0.08250  Biso   1.000  C
  H606     1.0000 0.35300  0.70190  0.06240  Biso   1.000  H
  C943     1.0000 0.36309  0.64390  0.08170  Biso   1.000  C
  C944     1.0000 0.37652  0.62660  0.11090  Biso   1.000  C
  H607     1.0000 0.37900  0.59510  0.11140  Biso   1.000  H
  C945     1.0000 0.38571  0.65520  0.13800  Biso   1.000  C
  H608     1.0000 0.39420  0.64300  0.15830  Biso   1.000  H
  C946     1.0000 0.35246  0.61450  0.05310  Biso   1.000  C
  C947     1.0000 0.33575  0.62610  0.03430  Biso   1.000  C
  H609     1.0000 0.33050  0.65420  0.04230  Biso   1.000  H
  C948     1.0000 0.32724  0.59970  0.00640  Biso   1.000  C
  H610     1.0000 0.31640  0.61020  0.99370  Biso   1.000  H
  C949     1.0000 0.33327  0.55690  0.99450  Biso   1.000  C
  C950     1.0000 0.34930  0.54250  0.01340  Biso   1.000  C
  H611     1.0000 0.35370  0.51310  0.00670  Biso   1.000  H
  C951     1.0000 0.35905  0.57080  0.04220  Biso   1.000  C
  H612     1.0000 0.37010  0.56070  0.05440  Biso   1.000  H
  N81      1.0000 0.32395  0.52990  0.96390  Biso   1.000  N
  N82      1.0000 0.41706  0.85892  0.13980  Biso   1.000  N
  N83      1.0000 0.41303  0.99143  0.02700  Biso   1.000  N
  N84      1.0000 0.43225  0.98350  0.97210  Biso   1.000  N
  N85      1.0000 0.43379  0.94870  0.00130  Biso   1.000  N
  N86      1.0000 0.39965  0.01090  0.05430  Biso   1.000  N
  H613     1.0000 0.39660  0.99800  0.07970  Biso   1.000  H
  H614     1.0000 0.39440  0.03610  0.04580  Biso   1.000  H
  N87      1.0000 0.40201  0.12850  0.92180  Biso   1.000  N
  O121     1.0000 0.40548  0.34673  0.73550  Biso   1.000  O
  O122     1.0000 0.39183  0.28652  0.76500  Biso   1.000  O
  O123     1.0000 0.40225  0.71304  0.19980  Biso   1.000  O
  O124     1.0000 0.39437  0.77255  0.15740  Biso   1.000  O
  O125     1.0000 0.18623  0.46729  0.93570  Biso   1.000  O
  O126     1.0000 0.18330  0.50340  0.99900  Biso   1.000  O
  Zn31     1.0000 0.41267  0.80929  0.18550  Biso   1.000  Zn
  Zn32     1.0000 0.40697  0.72853  0.26790  Biso   1.000  Zn
  C952     1.0000 0.37913  0.66290  0.30360  Biso   1.000  C
  C953     1.0000 0.36777  0.63060  0.27730  Biso   1.000  C
  C954     1.0000 0.36196  0.64330  0.23500  Biso   1.000  C
  H615     1.0000 0.36510  0.67190  0.22280  Biso   1.000  H
  C955     1.0000 0.35122  0.61300  0.21040  Biso   1.000  C
  H616     1.0000 0.34720  0.62090  0.18110  Biso   1.000  H
  C956     1.0000 0.34647  0.57190  0.22850  Biso   1.000  C
  C957     1.0000 0.35167  0.55990  0.27090  Biso   1.000  C
  H617     1.0000 0.34770  0.53220  0.28360  Biso   1.000  H
  C958     1.0000 0.36307  0.58900  0.29610  Biso   1.000  C
  H618     1.0000 0.36730  0.58040  0.32490  Biso   1.000  H
  C959     1.0000 0.33544  0.53900  0.20160  Biso   1.000  C
  C960     1.0000 0.33871  0.53340  0.15470  Biso   1.000  C
  H619     1.0000 0.34780  0.55040  0.14010  Biso   1.000  H
  C961     1.0000 0.32878  0.50380  0.13150  Biso   1.000  C
  H620     1.0000 0.33100  0.49940  0.10040  Biso   1.000  H
  C962     1.0000 0.31538  0.47950  0.15240  Biso   1.000  C
  C963     1.0000 0.31157  0.48530  0.19660  Biso   1.000  C
  H621     1.0000 0.30190  0.46920  0.20950  Biso   1.000  H
  C964     1.0000 0.32132  0.51370  0.22300  Biso   1.000  C
  H622     1.0000 0.31890  0.51670  0.25420  Biso   1.000  H
  C965     1.0000 0.38095  0.23940  0.94320  Biso   1.000  C
  C966     1.0000 0.36923  0.27010  0.97110  Biso   1.000  C
  C967     1.0000 0.35272  0.27670  0.95790  Biso   1.000  C
  H623     1.0000 0.34850  0.26340  0.93090  Biso   1.000  H
  C968     1.0000 0.34092  0.30470  0.98550  Biso   1.000  C
  H624     1.0000 0.32880  0.30800  0.97710  Biso   1.000  H
  C969     1.0000 0.34679  0.32510  0.02110  Biso   1.000  C
  C970     1.0000 0.36513  0.31950  0.03440  Biso   1.000  C
  H625     1.0000 0.36970  0.33360  0.06070  Biso   1.000  H
  C971     1.0000 0.37577  0.29290  0.00750  Biso   1.000  C
  H626     1.0000 0.38810  0.29020  0.01450  Biso   1.000  H
  C972     1.0000 0.33460  0.35580  0.04900  Biso   1.000  C
  C973     1.0000 0.32071  0.37660  0.03160  Biso   1.000  C
  H627     1.0000 0.31730  0.36900  0.00180  Biso   1.000  H
  C974     1.0000 0.31071  0.40930  0.05410  Biso   1.000  C
  H628     1.0000 0.30200  0.42710  0.03890  Biso   1.000  H
  C975     1.0000 0.31399  0.41440  0.09870  Biso   1.000  C
  C976     1.0000 0.32837  0.39030  0.11980  Biso   1.000  C
  H629     1.0000 0.33080  0.39540  0.15070  Biso   1.000  H
  C977     1.0000 0.33813  0.36160  0.09750  Biso   1.000  C
  H630     1.0000 0.34730  0.34500  0.11200  Biso   1.000  H
  C978     1.0000 0.17490  0.51690  0.10550  Biso   1.000  C
  C979     1.0000 0.19439  0.50350  0.10830  Biso   1.000  C
  C980     1.0000 0.20606  0.53180  0.13090  Biso   1.000  C
  H631     1.0000 0.20190  0.55840  0.14530  Biso   1.000  H
  C981     1.0000 0.22412  0.52030  0.13190  Biso   1.000  C
  H632     1.0000 0.23230  0.53960  0.14700  Biso   1.000  H
  C982     1.0000 0.23021  0.48270  0.11220  Biso   1.000  C
  C983     1.0000 0.21880  0.45380  0.08980  Biso   1.000  C
  H633     1.0000 0.22340  0.42740  0.07580  Biso   1.000  H
  C984     1.0000 0.19973  0.46380  0.08770  Biso   1.000  C
  H634     1.0000 0.19150  0.44430  0.07310  Biso   1.000  H
  C985     1.0000 0.24984  0.47160  0.11390  Biso   1.000  C
  C986     1.0000 0.26187  0.50740  0.12210  Biso   1.000  C
  H635     1.0000 0.25750  0.53720  0.12640  Biso   1.000  H
  C987     1.0000 0.27983  0.49930  0.12400  Biso   1.000  C
  H636     1.0000 0.28790  0.52360  0.12850  Biso   1.000  H
  C988     1.0000 0.28627  0.45520  0.11930  Biso   1.000  C
  C989     1.0000 0.27495  0.42110  0.11170  Biso   1.000  C
  H637     1.0000 0.27950  0.39130  0.10870  Biso   1.000  H
  C990     1.0000 0.25603  0.42850  0.10810  Biso   1.000  C
  H638     1.0000 0.24810  0.40430  0.10180  Biso   1.000  H
  N88      1.0000 0.30492  0.44610  0.12520  Biso   1.000  N
  O127     1.0000 0.16449  0.49567  0.08030  Biso   1.000  O
  O128     1.0000 0.17052  0.54940  0.13080  Biso   1.000  O
  O129     1.0000 0.38224  0.70104  0.28720  Biso   1.000  O
  O130     1.0000 0.38399  0.64917  0.34100  Biso   1.000  O
  O131     1.0000 0.37593  0.22292  0.90900  Biso   1.000  O
  O132     1.0000 0.39751  0.23170  0.96060  Biso   1.000  O
  Zn33     1.0000 0.39552  0.18527  0.88770  Biso   1.000  Zn
  C991     1.0000 0.42480  0.58510  0.45620  Biso   1.000  C
  H639     1.0000 0.43680  0.58160  0.46600  Biso   1.000  H
  C992     1.0000 0.39193  0.59570  0.42880  Biso   1.000  C
  H640     1.0000 0.38000  0.59850  0.41850  Biso   1.000  H
  C993     1.0000 0.35582  0.94000  0.38340  Biso   1.000  C
  C994     1.0000 0.42040  0.62720  0.43460  Biso   1.000  C
  H641     1.0000 0.42860  0.65110  0.42960  Biso   1.000  H
  C995     1.0000 0.29602  0.02340  0.50560  Biso   1.000  C
  H642     1.0000 0.30230  0.02350  0.53330  Biso   1.000  H
  C996     1.0000 0.41308  0.54860  0.46410  Biso   1.000  C
  C997     1.0000 0.41971  0.50830  0.48840  Biso   1.000  C
  C998     1.0000 0.33404  0.99800  0.43800  Biso   1.000  C
  C999     1.0000 0.27738  0.02060  0.50300  Biso   1.000  C
  H643     1.0000 0.27090  0.02020  0.53050  Biso   1.000  H
  C1000    1.0000 0.34074  0.92500  0.40580  Biso   1.000  C
  H644     1.0000 0.33700  0.89460  0.40220  Biso   1.000  H
  C1001    1.0000 0.39654  0.55350  0.45100  Biso   1.000  C
  H645     1.0000 0.38790  0.53050  0.45580  Biso   1.000  H
  C1002    1.0000 0.40806  0.39690  0.64110  Biso   1.000  C
  H646     1.0000 0.40000  0.40160  0.66530  Biso   1.000  H
  C1003    1.0000 0.39469  0.82770  0.26310  Biso   1.000  C
  C1004    1.0000 0.38555  0.85770  0.29620  Biso   1.000  C
  C1005    1.0000 0.37865  0.84120  0.33550  Biso   1.000  C
  H647     1.0000 0.38050  0.81040  0.34290  Biso   1.000  H
  C1006    1.0000 0.36932  0.86770  0.36390  Biso   1.000  C
  H648     1.0000 0.36490  0.85490  0.39100  Biso   1.000  H
  C1007    1.0000 0.36595  0.91290  0.35500  Biso   1.000  C
  C1008    1.0000 0.37441  0.93060  0.31640  Biso   1.000  C
  H649     1.0000 0.37340  0.96190  0.31000  Biso   1.000  H
  C1009    1.0000 0.38417  0.90320  0.28740  Biso   1.000  C
  H650     1.0000 0.38980  0.91580  0.26170  Biso   1.000  H
  C1010    1.0000 0.42097  0.42210  0.57240  Biso   1.000  C
  C1011    1.0000 0.40969  0.42850  0.61050  Biso   1.000  C
  H651     1.0000 0.40330  0.45600  0.61380  Biso   1.000  H
  C1012    1.0000 0.33085  0.95420  0.43390  Biso   1.000  C
  H652     1.0000 0.32130  0.94170  0.45100  Biso   1.000  H
  C1013    1.0000 0.43020  0.38280  0.56980  Biso   1.000  C
  H653     1.0000 0.43780  0.37650  0.54510  Biso   1.000  H
  C1014    1.0000 0.34953  0.01710  0.41390  Biso   1.000  C
  H654     1.0000 0.35240  0.04840  0.41500  Biso   1.000  H
  C1015    1.0000 0.35922  0.98810  0.39060  Biso   1.000  C
  H655     1.0000 0.36970  0.00000  0.37680  Biso   1.000  H
  C1016    1.0000 0.19126  0.98880  0.46630  Biso   1.000  C
  C1017    1.0000 0.21187  0.99900  0.46520  Biso   1.000  C
  C1018    1.0000 0.22201  0.98310  0.42930  Biso   1.000  C
  H656     1.0000 0.21650  0.96670  0.40560  Biso   1.000  H
  C1019    1.0000 0.24009  0.99140  0.42850  Biso   1.000  C
  H657     1.0000 0.24700  0.98210  0.40330  Biso   1.000  H
  C1020    1.0000 0.24849  0.01340  0.46460  Biso   1.000  C
  C1021    1.0000 0.23769  0.02840  0.49930  Biso   1.000  C
  H658     1.0000 0.24330  0.04270  0.52420  Biso   1.000  H
  C1022    1.0000 0.22010  0.02420  0.50000  Biso   1.000  C
  H659     1.0000 0.21320  0.03770  0.52320  Biso   1.000  H
  C1023    1.0000 0.26800  0.01860  0.46460  Biso   1.000  C
  C1024    1.0000 0.27827  0.01930  0.42440  Biso   1.000  C
  H660     1.0000 0.27260  0.01780  0.39590  Biso   1.000  H
  C1025    1.0000 0.29607  0.02200  0.42730  Biso   1.000  C
  H661     1.0000 0.30270  0.02110  0.40010  Biso   1.000  H
  C1026    1.0000 0.30470  0.02580  0.46420  Biso   1.000  C
  C1027    1.0000 0.42797  0.35130  0.60560  Biso   1.000  C
  H662     1.0000 0.43450  0.32380  0.60490  Biso   1.000  H
  C1028    1.0000 0.42231  0.45360  0.53490  Biso   1.000  C
  C1029    1.0000 0.39452  0.23130  0.66730  Biso   1.000  C
  C1030    1.0000 0.38325  0.20080  0.63740  Biso   1.000  C
  C1031    1.0000 0.37054  0.21740  0.60870  Biso   1.000  C
  H663     1.0000 0.36820  0.24900  0.60750  Biso   1.000  H
  C1032    1.0000 0.36144  0.18900  0.58250  Biso   1.000  C
  H664     1.0000 0.35300  0.20190  0.56240  Biso   1.000  H
  C1033    1.0000 0.36309  0.14390  0.58170  Biso   1.000  C
  C1034    1.0000 0.37652  0.12660  0.61090  Biso   1.000  C
  H665     1.0000 0.37900  0.09510  0.61140  Biso   1.000  H
  C1035    1.0000 0.38571  0.15520  0.63800  Biso   1.000  C
  H666     1.0000 0.39420  0.14300  0.65830  Biso   1.000  H
  C1036    1.0000 0.35246  0.11450  0.55310  Biso   1.000  C
  C1037    1.0000 0.33575  0.12610  0.53430  Biso   1.000  C
  H667     1.0000 0.33050  0.15420  0.54230  Biso   1.000  H
  C1038    1.0000 0.32724  0.09970  0.50640  Biso   1.000  C
  H668     1.0000 0.31640  0.11020  0.49370  Biso   1.000  H
  C1039    1.0000 0.33327  0.05690  0.49450  Biso   1.000  C
  C1040    1.0000 0.34930  0.04250  0.51340  Biso   1.000  C
  H669     1.0000 0.35370  0.01310  0.50670  Biso   1.000  H
  C1041    1.0000 0.35905  0.07080  0.54220  Biso   1.000  C
  H670     1.0000 0.37010  0.06070  0.55440  Biso   1.000  H
  N89      1.0000 0.32395  0.02990  0.46390  Biso   1.000  N
  N90      1.0000 0.41706  0.35892  0.63980  Biso   1.000  N
  N91      1.0000 0.41303  0.49143  0.52700  Biso   1.000  N
  N92      1.0000 0.43225  0.48350  0.47210  Biso   1.000  N
  N93      1.0000 0.43379  0.44870  0.50130  Biso   1.000  N
  N94      1.0000 0.39965  0.51090  0.55430  Biso   1.000  N
  H671     1.0000 0.39660  0.49800  0.57970  Biso   1.000  H
  H672     1.0000 0.39440  0.53610  0.54580  Biso   1.000  H
  N95      1.0000 0.40201  0.62850  0.42180  Biso   1.000  N
  O133     1.0000 0.40548  0.84673  0.23550  Biso   1.000  O
  O134     1.0000 0.39183  0.78652  0.26500  Biso   1.000  O
  O135     1.0000 0.40225  0.21304  0.69980  Biso   1.000  O
  O136     1.0000 0.39437  0.27255  0.65740  Biso   1.000  O
  O137     1.0000 0.18623  0.96729  0.43570  Biso   1.000  O
  O138     1.0000 0.18330  0.00340  0.49900  Biso   1.000  O
  Zn34     1.0000 0.41267  0.30929  0.68550  Biso   1.000  Zn
  Zn35     1.0000 0.40697  0.22853  0.76790  Biso   1.000  Zn
  C1042    1.0000 0.37913  0.16290  0.80360  Biso   1.000  C
  C1043    1.0000 0.36777  0.13060  0.77730  Biso   1.000  C
  C1044    1.0000 0.36196  0.14330  0.73500  Biso   1.000  C
  H673     1.0000 0.36510  0.17190  0.72280  Biso   1.000  H
  C1045    1.0000 0.35122  0.11300  0.71040  Biso   1.000  C
  H674     1.0000 0.34720  0.12090  0.68110  Biso   1.000  H
  C1046    1.0000 0.34647  0.07190  0.72850  Biso   1.000  C
  C1047    1.0000 0.35167  0.05990  0.77090  Biso   1.000  C
  H675     1.0000 0.34770  0.03220  0.78360  Biso   1.000  H
  C1048    1.0000 0.36307  0.08900  0.79610  Biso   1.000  C
  H676     1.0000 0.36730  0.08040  0.82490  Biso   1.000  H
  C1049    1.0000 0.33544  0.03900  0.70160  Biso   1.000  C
  C1050    1.0000 0.33871  0.03340  0.65470  Biso   1.000  C
  H677     1.0000 0.34780  0.05040  0.64010  Biso   1.000  H
  C1051    1.0000 0.32878  0.00380  0.63150  Biso   1.000  C
  H678     1.0000 0.33100  0.99940  0.60040  Biso   1.000  H
  C1052    1.0000 0.31538  0.97950  0.65240  Biso   1.000  C
  C1053    1.0000 0.31157  0.98530  0.69660  Biso   1.000  C
  H679     1.0000 0.30190  0.96920  0.70950  Biso   1.000  H
  C1054    1.0000 0.32132  0.01370  0.72300  Biso   1.000  C
  H680     1.0000 0.31890  0.01670  0.75420  Biso   1.000  H
  C1055    1.0000 0.38095  0.73940  0.44320  Biso   1.000  C
  C1056    1.0000 0.36923  0.77010  0.47110  Biso   1.000  C
  C1057    1.0000 0.35272  0.77670  0.45790  Biso   1.000  C
  H681     1.0000 0.34850  0.76340  0.43090  Biso   1.000  H
  C1058    1.0000 0.34092  0.80470  0.48550  Biso   1.000  C
  H682     1.0000 0.32880  0.80800  0.47710  Biso   1.000  H
  C1059    1.0000 0.34679  0.82510  0.52110  Biso   1.000  C
  C1060    1.0000 0.36513  0.81950  0.53440  Biso   1.000  C
  H683     1.0000 0.36970  0.83360  0.56070  Biso   1.000  H
  C1061    1.0000 0.37577  0.79290  0.50750  Biso   1.000  C
  H684     1.0000 0.38810  0.79020  0.51450  Biso   1.000  H
  C1062    1.0000 0.33460  0.85580  0.54900  Biso   1.000  C
  C1063    1.0000 0.32071  0.87660  0.53160  Biso   1.000  C
  H685     1.0000 0.31730  0.86900  0.50180  Biso   1.000  H
  C1064    1.0000 0.31071  0.90930  0.55410  Biso   1.000  C
  H686     1.0000 0.30200  0.92710  0.53890  Biso   1.000  H
  C1065    1.0000 0.31399  0.91440  0.59870  Biso   1.000  C
  C1066    1.0000 0.32837  0.89030  0.61980  Biso   1.000  C
  H687     1.0000 0.33080  0.89540  0.65070  Biso   1.000  H
  C1067    1.0000 0.33813  0.86160  0.59750  Biso   1.000  C
  H688     1.0000 0.34730  0.84500  0.61200  Biso   1.000  H
  C1068    1.0000 0.17490  0.01690  0.60550  Biso   1.000  C
  C1069    1.0000 0.19439  0.00350  0.60830  Biso   1.000  C
  C1070    1.0000 0.20606  0.03180  0.63090  Biso   1.000  C
  H689     1.0000 0.20190  0.05840  0.64530  Biso   1.000  H
  C1071    1.0000 0.22412  0.02030  0.63190  Biso   1.000  C
  H690     1.0000 0.23230  0.03960  0.64700  Biso   1.000  H
  C1072    1.0000 0.23021  0.98270  0.61220  Biso   1.000  C
  C1073    1.0000 0.21880  0.95380  0.58980  Biso   1.000  C
  H691     1.0000 0.22340  0.92740  0.57580  Biso   1.000  H
  C1074    1.0000 0.19973  0.96380  0.58770  Biso   1.000  C
  H692     1.0000 0.19150  0.94430  0.57310  Biso   1.000  H
  C1075    1.0000 0.24984  0.97160  0.61390  Biso   1.000  C
  C1076    1.0000 0.26187  0.00740  0.62210  Biso   1.000  C
  H693     1.0000 0.25750  0.03720  0.62640  Biso   1.000  H
  C1077    1.0000 0.27983  0.99930  0.62400  Biso   1.000  C
  H694     1.0000 0.28790  0.02360  0.62850  Biso   1.000  H
  C1078    1.0000 0.28627  0.95520  0.61930  Biso   1.000  C
  C1079    1.0000 0.27495  0.92110  0.61170  Biso   1.000  C
  H695     1.0000 0.27950  0.89130  0.60870  Biso   1.000  H
  C1080    1.0000 0.25603  0.92850  0.60810  Biso   1.000  C
  H696     1.0000 0.24810  0.90430  0.60180  Biso   1.000  H
  N96      1.0000 0.30492  0.94610  0.62520  Biso   1.000  N
  O139     1.0000 0.16449  0.99567  0.58030  Biso   1.000  O
  O140     1.0000 0.17052  0.04940  0.63080  Biso   1.000  O
  O141     1.0000 0.38224  0.20104  0.78720  Biso   1.000  O
  O142     1.0000 0.38399  0.14917  0.84100  Biso   1.000  O
  O143     1.0000 0.37593  0.72292  0.40900  Biso   1.000  O
  O144     1.0000 0.39751  0.73170  0.46060  Biso   1.000  O
  Zn36     1.0000 0.39552  0.68527  0.38770  Biso   1.000  Zn
  C1081    1.0000 0.17480  0.16490  0.70620  Biso   1.000  C
  H697     1.0000 0.18680  0.16840  0.71600  Biso   1.000  H
  C1082    1.0000 0.14193  0.15430  0.67880  Biso   1.000  C
  H698     1.0000 0.13000  0.15150  0.66850  Biso   1.000  H
  C1083    1.0000 0.10582  0.81000  0.63340  Biso   1.000  C
  C1084    1.0000 0.17040  0.12280  0.68460  Biso   1.000  C
  H699     1.0000 0.17860  0.09890  0.67960  Biso   1.000  H
  C1085    1.0000 0.04602  0.72660  0.75560  Biso   1.000  C
  H700     1.0000 0.05230  0.72650  0.78330  Biso   1.000  H
  C1086    1.0000 0.16308  0.20140  0.71410  Biso   1.000  C
  C1087    1.0000 0.16971  0.24170  0.73840  Biso   1.000  C
  C1088    1.0000 0.08404  0.75200  0.68800  Biso   1.000  C
  C1089    1.0000 0.02738  0.72940  0.75300  Biso   1.000  C
  H701     1.0000 0.02090  0.72980  0.78050  Biso   1.000  H
  C1090    1.0000 0.09074  0.82500  0.65580  Biso   1.000  C
  H702     1.0000 0.08700  0.85540  0.65220  Biso   1.000  H
  C1091    1.0000 0.14654  0.19650  0.70100  Biso   1.000  C
  H703     1.0000 0.13790  0.21950  0.70580  Biso   1.000  H
  C1092    1.0000 0.15806  0.35310  0.89110  Biso   1.000  C
  H704     1.0000 0.15000  0.34840  0.91530  Biso   1.000  H
  C1093    1.0000 0.14469  0.92230  0.51310  Biso   1.000  C
  C1094    1.0000 0.13555  0.89230  0.54620  Biso   1.000  C
  C1095    1.0000 0.12865  0.90880  0.58550  Biso   1.000  C
  H705     1.0000 0.13050  0.93960  0.59290  Biso   1.000  H
  C1096    1.0000 0.11932  0.88230  0.61390  Biso   1.000  C
  H706     1.0000 0.11490  0.89510  0.64100  Biso   1.000  H
  C1097    1.0000 0.11595  0.83710  0.60500  Biso   1.000  C
  C1098    1.0000 0.12441  0.81940  0.56640  Biso   1.000  C
  H707     1.0000 0.12340  0.78810  0.56000  Biso   1.000  H
  C1099    1.0000 0.13417  0.84680  0.53740  Biso   1.000  C
  H708     1.0000 0.13980  0.83420  0.51170  Biso   1.000  H
  C1100    1.0000 0.17097  0.32790  0.82240  Biso   1.000  C
  C1101    1.0000 0.15969  0.32150  0.86050  Biso   1.000  C
  H709     1.0000 0.15330  0.29400  0.86380  Biso   1.000  H
  C1102    1.0000 0.08085  0.79580  0.68390  Biso   1.000  C
  H710     1.0000 0.07130  0.80830  0.70100  Biso   1.000  H
  C1103    1.0000 0.18020  0.36720  0.81980  Biso   1.000  C
  H711     1.0000 0.18780  0.37350  0.79510  Biso   1.000  H
  C1104    1.0000 0.09953  0.73290  0.66390  Biso   1.000  C
  H712     1.0000 0.10240  0.70160  0.66500  Biso   1.000  H
  C1105    1.0000 0.10922  0.76190  0.64060  Biso   1.000  C
  H713     1.0000 0.11970  0.75000  0.62680  Biso   1.000  H
  C1106    1.0000 0.94126  0.76120  0.71630  Biso   1.000  C
  C1107    1.0000 0.96187  0.75100  0.71520  Biso   1.000  C
  C1108    1.0000 0.97201  0.76690  0.67930  Biso   1.000  C
  H714     1.0000 0.96650  0.78330  0.65560  Biso   1.000  H
  C1109    1.0000 0.99009  0.75860  0.67850  Biso   1.000  C
  H715     1.0000 0.99700  0.76790  0.65330  Biso   1.000  H
  C1110    1.0000 0.99849  0.73660  0.71460  Biso   1.000  C
  C1111    1.0000 0.98769  0.72160  0.74930  Biso   1.000  C
  H716     1.0000 0.99330  0.70730  0.77420  Biso   1.000  H
  C1112    1.0000 0.97010  0.72580  0.75000  Biso   1.000  C
  H717     1.0000 0.96320  0.71230  0.77320  Biso   1.000  H
  C1113    1.0000 0.01800  0.73140  0.71460  Biso   1.000  C
  C1114    1.0000 0.02827  0.73070  0.67440  Biso   1.000  C
  H718     1.0000 0.02260  0.73220  0.64590  Biso   1.000  H
  C1115    1.0000 0.04607  0.72800  0.67730  Biso   1.000  C
  H719     1.0000 0.05270  0.72890  0.65010  Biso   1.000  H
  C1116    1.0000 0.05470  0.72420  0.71420  Biso   1.000  C
  C1117    1.0000 0.17797  0.39870  0.85560  Biso   1.000  C
  H720     1.0000 0.18450  0.42620  0.85490  Biso   1.000  H
  C1118    1.0000 0.17231  0.29640  0.78490  Biso   1.000  C
  C1119    1.0000 0.14452  0.51870  0.91730  Biso   1.000  C
  C1120    1.0000 0.13325  0.54920  0.88740  Biso   1.000  C
  C1121    1.0000 0.12054  0.53260  0.85870  Biso   1.000  C
  H721     1.0000 0.11820  0.50100  0.85750  Biso   1.000  H
  C1122    1.0000 0.11144  0.56100  0.83250  Biso   1.000  C
  H722     1.0000 0.10300  0.54810  0.81240  Biso   1.000  H
  C1123    1.0000 0.11309  0.60610  0.83170  Biso   1.000  C
  C1124    1.0000 0.12652  0.62340  0.86090  Biso   1.000  C
  H723     1.0000 0.12900  0.65490  0.86140  Biso   1.000  H
  C1125    1.0000 0.13571  0.59480  0.88800  Biso   1.000  C
  H724     1.0000 0.14420  0.60700  0.90830  Biso   1.000  H
  C1126    1.0000 0.10246  0.63550  0.80310  Biso   1.000  C
  C1127    1.0000 0.08575  0.62390  0.78430  Biso   1.000  C
  H725     1.0000 0.08050  0.59580  0.79230  Biso   1.000  H
  C1128    1.0000 0.07724  0.65030  0.75640  Biso   1.000  C
  H726     1.0000 0.06640  0.63980  0.74370  Biso   1.000  H
  C1129    1.0000 0.08327  0.69310  0.74450  Biso   1.000  C
  C1130    1.0000 0.09930  0.70750  0.76340  Biso   1.000  C
  H727     1.0000 0.10370  0.73690  0.75670  Biso   1.000  H
  C1131    1.0000 0.10905  0.67920  0.79220  Biso   1.000  C
  H728     1.0000 0.12010  0.68930  0.80440  Biso   1.000  H
  N97      1.0000 0.07395  0.72010  0.71390  Biso   1.000  N
  N98      1.0000 0.16706  0.39108  0.88980  Biso   1.000  N
  N99      1.0000 0.16303  0.25857  0.77700  Biso   1.000  N
  N100     1.0000 0.18225  0.26650  0.72210  Biso   1.000  N
  N101     1.0000 0.18379  0.30130  0.75130  Biso   1.000  N
  N102     1.0000 0.14965  0.23910  0.80430  Biso   1.000  N
  H729     1.0000 0.14660  0.25200  0.82970  Biso   1.000  H
  H730     1.0000 0.14440  0.21390  0.79580  Biso   1.000  H
  N103     1.0000 0.15201  0.12150  0.67180  Biso   1.000  N
  O145     1.0000 0.15548  0.90327  0.48550  Biso   1.000  O
  O146     1.0000 0.14183  0.96348  0.51500  Biso   1.000  O
  O147     1.0000 0.15225  0.53696  0.94980  Biso   1.000  O
  O148     1.0000 0.14437  0.47745  0.90740  Biso   1.000  O
  O149     1.0000 0.93623  0.78271  0.68570  Biso   1.000  O
  O150     1.0000 0.93330  0.74660  0.74900  Biso   1.000  O
  Zn37     1.0000 0.16267  0.44071  0.93550  Biso   1.000  Zn
  Zn38     1.0000 0.15697  0.52147  0.01790  Biso   1.000  Zn
  C1132    1.0000 0.12913  0.58710  0.05360  Biso   1.000  C
  C1133    1.0000 0.11777  0.61940  0.02730  Biso   1.000  C
  C1134    1.0000 0.11196  0.60670  0.98500  Biso   1.000  C
  H731     1.0000 0.11510  0.57810  0.97280  Biso   1.000  H
  C1135    1.0000 0.10122  0.63700  0.96040  Biso   1.000  C
  H732     1.0000 0.09720  0.62910  0.93110  Biso   1.000  H
  C1136    1.0000 0.09647  0.67810  0.97850  Biso   1.000  C
  C1137    1.0000 0.10167  0.69010  0.02090  Biso   1.000  C
  H733     1.0000 0.09770  0.71780  0.03360  Biso   1.000  H
  C1138    1.0000 0.11307  0.66100  0.04610  Biso   1.000  C
  H734     1.0000 0.11730  0.66960  0.07490  Biso   1.000  H
  C1139    1.0000 0.08544  0.71100  0.95160  Biso   1.000  C
  C1140    1.0000 0.08871  0.71660  0.90470  Biso   1.000  C
  H735     1.0000 0.09780  0.69960  0.89010  Biso   1.000  H
  C1141    1.0000 0.07878  0.74620  0.88150  Biso   1.000  C
  H736     1.0000 0.08100  0.75060  0.85040  Biso   1.000  H
  C1142    1.0000 0.06538  0.77050  0.90240  Biso   1.000  C
  C1143    1.0000 0.06157  0.76470  0.94660  Biso   1.000  C
  H737     1.0000 0.05190  0.78080  0.95950  Biso   1.000  H
  C1144    1.0000 0.07132  0.73630  0.97300  Biso   1.000  C
  H738     1.0000 0.06890  0.73330  0.00420  Biso   1.000  H
  C1145    1.0000 0.13095  0.01060  0.69320  Biso   1.000  C
  C1146    1.0000 0.11923  0.97990  0.72110  Biso   1.000  C
  C1147    1.0000 0.10272  0.97330  0.70790  Biso   1.000  C
  H739     1.0000 0.09850  0.98660  0.68090  Biso   1.000  H
  C1148    1.0000 0.09092  0.94530  0.73550  Biso   1.000  C
  H740     1.0000 0.07880  0.94200  0.72710  Biso   1.000  H
  C1149    1.0000 0.09679  0.92490  0.77110  Biso   1.000  C
  C1150    1.0000 0.11513  0.93050  0.78440  Biso   1.000  C
  H741     1.0000 0.11970  0.91640  0.81070  Biso   1.000  H
  C1151    1.0000 0.12577  0.95710  0.75750  Biso   1.000  C
  H742     1.0000 0.13810  0.95980  0.76450  Biso   1.000  H
  C1152    1.0000 0.08460  0.89420  0.79900  Biso   1.000  C
  C1153    1.0000 0.07071  0.87340  0.78160  Biso   1.000  C
  H743     1.0000 0.06730  0.88100  0.75180  Biso   1.000  H
  C1154    1.0000 0.06071  0.84070  0.80410  Biso   1.000  C
  H744     1.0000 0.05200  0.82290  0.78890  Biso   1.000  H
  C1155    1.0000 0.06399  0.83560  0.84870  Biso   1.000  C
  C1156    1.0000 0.07837  0.85970  0.86980  Biso   1.000  C
  H745     1.0000 0.08080  0.85460  0.90070  Biso   1.000  H
  C1157    1.0000 0.08813  0.88840  0.84750  Biso   1.000  C
  H746     1.0000 0.09730  0.90500  0.86200  Biso   1.000  H
  C1158    1.0000 0.92490  0.73310  0.85550  Biso   1.000  C
  C1159    1.0000 0.94439  0.74650  0.85830  Biso   1.000  C
  C1160    1.0000 0.95606  0.71820  0.88090  Biso   1.000  C
  H747     1.0000 0.95190  0.69160  0.89530  Biso   1.000  H
  C1161    1.0000 0.97412  0.72970  0.88190  Biso   1.000  C
  H748     1.0000 0.98230  0.71040  0.89700  Biso   1.000  H
  C1162    1.0000 0.98021  0.76730  0.86220  Biso   1.000  C
  C1163    1.0000 0.96880  0.79620  0.83980  Biso   1.000  C
  H749     1.0000 0.97340  0.82260  0.82580  Biso   1.000  H
  C1164    1.0000 0.94973  0.78620  0.83770  Biso   1.000  C
  H750     1.0000 0.94150  0.80570  0.82310  Biso   1.000  H
  C1165    1.0000 0.99984  0.77840  0.86390  Biso   1.000  C
  C1166    1.0000 0.01187  0.74260  0.87210  Biso   1.000  C
  H751     1.0000 0.00750  0.71280  0.87640  Biso   1.000  H
  C1167    1.0000 0.02983  0.75070  0.87400  Biso   1.000  C
  H752     1.0000 0.03790  0.72640  0.87850  Biso   1.000  H
  C1168    1.0000 0.03627  0.79480  0.86930  Biso   1.000  C
  C1169    1.0000 0.02495  0.82890  0.86170  Biso   1.000  C
  H753     1.0000 0.02950  0.85870  0.85870  Biso   1.000  H
  C1170    1.0000 0.00603  0.82150  0.85810  Biso   1.000  C
  H754     1.0000 0.99810  0.84570  0.85180  Biso   1.000  H
  N104     1.0000 0.05492  0.80390  0.87520  Biso   1.000  N
  O151     1.0000 0.91449  0.75433  0.83030  Biso   1.000  O
  O152     1.0000 0.92052  0.70060  0.88080  Biso   1.000  O
  O153     1.0000 0.13224  0.54896  0.03720  Biso   1.000  O
  O154     1.0000 0.13399  0.60083  0.09100  Biso   1.000  O
  O155     1.0000 0.12593  0.02708  0.65900  Biso   1.000  O
  O156     1.0000 0.14751  0.01830  0.71060  Biso   1.000  O
  Zn39     1.0000 0.14552  0.06473  0.63770  Biso   1.000  Zn
  C1171    1.0000 0.17480  0.66490  0.20620  Biso   1.000  C
  H755     1.0000 0.18680  0.66840  0.21600  Biso   1.000  H
  C1172    1.0000 0.14193  0.65430  0.17880  Biso   1.000  C
  H756     1.0000 0.13000  0.65150  0.16850  Biso   1.000  H
  C1173    1.0000 0.10582  0.31000  0.13340  Biso   1.000  C
  C1174    1.0000 0.17040  0.62280  0.18460  Biso   1.000  C
  H757     1.0000 0.17860  0.59890  0.17960  Biso   1.000  H
  C1175    1.0000 0.04602  0.22660  0.25560  Biso   1.000  C
  H758     1.0000 0.05230  0.22650  0.28330  Biso   1.000  H
  C1176    1.0000 0.16308  0.70140  0.21410  Biso   1.000  C
  C1177    1.0000 0.16971  0.74170  0.23840  Biso   1.000  C
  C1178    1.0000 0.08404  0.25200  0.18800  Biso   1.000  C
  C1179    1.0000 0.02738  0.22940  0.25300  Biso   1.000  C
  H759     1.0000 0.02090  0.22980  0.28050  Biso   1.000  H
  C1180    1.0000 0.09074  0.32500  0.15580  Biso   1.000  C
  H760     1.0000 0.08700  0.35540  0.15220  Biso   1.000  H
  C1181    1.0000 0.14654  0.69650  0.20100  Biso   1.000  C
  H761     1.0000 0.13790  0.71950  0.20580  Biso   1.000  H
  C1182    1.0000 0.15806  0.85310  0.39110  Biso   1.000  C
  H762     1.0000 0.15000  0.84840  0.41530  Biso   1.000  H
  C1183    1.0000 0.14469  0.42230  0.01310  Biso   1.000  C
  C1184    1.0000 0.13555  0.39230  0.04620  Biso   1.000  C
  C1185    1.0000 0.12865  0.40880  0.08550  Biso   1.000  C
  H763     1.0000 0.13050  0.43960  0.09290  Biso   1.000  H
  C1186    1.0000 0.11932  0.38230  0.11390  Biso   1.000  C
  H764     1.0000 0.11490  0.39510  0.14100  Biso   1.000  H
  C1187    1.0000 0.11595  0.33710  0.10500  Biso   1.000  C
  C1188    1.0000 0.12441  0.31940  0.06640  Biso   1.000  C
  H765     1.0000 0.12340  0.28810  0.06000  Biso   1.000  H
  C1189    1.0000 0.13417  0.34680  0.03740  Biso   1.000  C
  H766     1.0000 0.13980  0.33420  0.01170  Biso   1.000  H
  C1190    1.0000 0.17097  0.82790  0.32240  Biso   1.000  C
  C1191    1.0000 0.15969  0.82150  0.36050  Biso   1.000  C
  H767     1.0000 0.15330  0.79400  0.36380  Biso   1.000  H
  C1192    1.0000 0.08085  0.29580  0.18390  Biso   1.000  C
  H768     1.0000 0.07130  0.30830  0.20100  Biso   1.000  H
  C1193    1.0000 0.18020  0.86720  0.31980  Biso   1.000  C
  H769     1.0000 0.18780  0.87350  0.29510  Biso   1.000  H
  C1194    1.0000 0.09953  0.23290  0.16390  Biso   1.000  C
  H770     1.0000 0.10240  0.20160  0.16500  Biso   1.000  H
  C1195    1.0000 0.10922  0.26190  0.14060  Biso   1.000  C
  H771     1.0000 0.11970  0.25000  0.12680  Biso   1.000  H
  C1196    1.0000 0.94126  0.26120  0.21630  Biso   1.000  C
  C1197    1.0000 0.96187  0.25100  0.21520  Biso   1.000  C
  C1198    1.0000 0.97201  0.26690  0.17930  Biso   1.000  C
  H772     1.0000 0.96650  0.28330  0.15560  Biso   1.000  H
  C1199    1.0000 0.99009  0.25860  0.17850  Biso   1.000  C
  H773     1.0000 0.99700  0.26790  0.15330  Biso   1.000  H
  C1200    1.0000 0.99849  0.23660  0.21460  Biso   1.000  C
  C1201    1.0000 0.98769  0.22160  0.24930  Biso   1.000  C
  H774     1.0000 0.99330  0.20730  0.27420  Biso   1.000  H
  C1202    1.0000 0.97010  0.22580  0.25000  Biso   1.000  C
  H775     1.0000 0.96320  0.21230  0.27320  Biso   1.000  H
  C1203    1.0000 0.01800  0.23140  0.21460  Biso   1.000  C
  C1204    1.0000 0.02827  0.23070  0.17440  Biso   1.000  C
  H776     1.0000 0.02260  0.23220  0.14590  Biso   1.000  H
  C1205    1.0000 0.04607  0.22800  0.17730  Biso   1.000  C
  H777     1.0000 0.05270  0.22890  0.15010  Biso   1.000  H
  C1206    1.0000 0.05470  0.22420  0.21420  Biso   1.000  C
  C1207    1.0000 0.17797  0.89870  0.35560  Biso   1.000  C
  H778     1.0000 0.18450  0.92620  0.35490  Biso   1.000  H
  C1208    1.0000 0.17231  0.79640  0.28490  Biso   1.000  C
  C1209    1.0000 0.14452  0.01870  0.41730  Biso   1.000  C
  C1210    1.0000 0.13325  0.04920  0.38740  Biso   1.000  C
  C1211    1.0000 0.12054  0.03260  0.35870  Biso   1.000  C
  H779     1.0000 0.11820  0.00100  0.35750  Biso   1.000  H
  C1212    1.0000 0.11144  0.06100  0.33250  Biso   1.000  C
  H780     1.0000 0.10300  0.04810  0.31240  Biso   1.000  H
  C1213    1.0000 0.11309  0.10610  0.33170  Biso   1.000  C
  C1214    1.0000 0.12652  0.12340  0.36090  Biso   1.000  C
  H781     1.0000 0.12900  0.15490  0.36140  Biso   1.000  H
  C1215    1.0000 0.13571  0.09480  0.38800  Biso   1.000  C
  H782     1.0000 0.14420  0.10700  0.40830  Biso   1.000  H
  C1216    1.0000 0.10246  0.13550  0.30310  Biso   1.000  C
  C1217    1.0000 0.08575  0.12390  0.28430  Biso   1.000  C
  H783     1.0000 0.08050  0.09580  0.29230  Biso   1.000  H
  C1218    1.0000 0.07724  0.15030  0.25640  Biso   1.000  C
  H784     1.0000 0.06640  0.13980  0.24370  Biso   1.000  H
  C1219    1.0000 0.08327  0.19310  0.24450  Biso   1.000  C
  C1220    1.0000 0.09930  0.20750  0.26340  Biso   1.000  C
  H785     1.0000 0.10370  0.23690  0.25670  Biso   1.000  H
  C1221    1.0000 0.10905  0.17920  0.29220  Biso   1.000  C
  H786     1.0000 0.12010  0.18930  0.30440  Biso   1.000  H
  N105     1.0000 0.07395  0.22010  0.21390  Biso   1.000  N
  N106     1.0000 0.16706  0.89108  0.38980  Biso   1.000  N
  N107     1.0000 0.16303  0.75857  0.27700  Biso   1.000  N
  N108     1.0000 0.18225  0.76650  0.22210  Biso   1.000  N
  N109     1.0000 0.18379  0.80130  0.25130  Biso   1.000  N
  N110     1.0000 0.14965  0.73910  0.30430  Biso   1.000  N
  H787     1.0000 0.14660  0.75200  0.32970  Biso   1.000  H
  H788     1.0000 0.14440  0.71390  0.29580  Biso   1.000  H
  N111     1.0000 0.15201  0.62150  0.17180  Biso   1.000  N
  O157     1.0000 0.15548  0.40327  0.98550  Biso   1.000  O
  O158     1.0000 0.14183  0.46348  0.01500  Biso   1.000  O
  O159     1.0000 0.15225  0.03696  0.44980  Biso   1.000  O
  O160     1.0000 0.14437  0.97745  0.40740  Biso   1.000  O
  O161     1.0000 0.93623  0.28271  0.18570  Biso   1.000  O
  O162     1.0000 0.93330  0.24660  0.24900  Biso   1.000  O
  Zn40     1.0000 0.16267  0.94071  0.43550  Biso   1.000  Zn
  Zn41     1.0000 0.15697  0.02147  0.51790  Biso   1.000  Zn
  C1222    1.0000 0.12913  0.08710  0.55360  Biso   1.000  C
  C1223    1.0000 0.11777  0.11940  0.52730  Biso   1.000  C
  C1224    1.0000 0.11196  0.10670  0.48500  Biso   1.000  C
  H789     1.0000 0.11510  0.07810  0.47280  Biso   1.000  H
  C1225    1.0000 0.10122  0.13700  0.46040  Biso   1.000  C
  H790     1.0000 0.09720  0.12910  0.43110  Biso   1.000  H
  C1226    1.0000 0.09647  0.17810  0.47850  Biso   1.000  C
  C1227    1.0000 0.10167  0.19010  0.52090  Biso   1.000  C
  H791     1.0000 0.09770  0.21780  0.53360  Biso   1.000  H
  C1228    1.0000 0.11307  0.16100  0.54610  Biso   1.000  C
  H792     1.0000 0.11730  0.16960  0.57490  Biso   1.000  H
  C1229    1.0000 0.08544  0.21100  0.45160  Biso   1.000  C
  C1230    1.0000 0.08871  0.21660  0.40470  Biso   1.000  C
  H793     1.0000 0.09780  0.19960  0.39010  Biso   1.000  H
  C1231    1.0000 0.07878  0.24620  0.38150  Biso   1.000  C
  H794     1.0000 0.08100  0.25060  0.35040  Biso   1.000  H
  C1232    1.0000 0.06538  0.27050  0.40240  Biso   1.000  C
  C1233    1.0000 0.06157  0.26470  0.44660  Biso   1.000  C
  H795     1.0000 0.05190  0.28080  0.45950  Biso   1.000  H
  C1234    1.0000 0.07132  0.23630  0.47300  Biso   1.000  C
  H796     1.0000 0.06890  0.23330  0.50420  Biso   1.000  H
  C1235    1.0000 0.13095  0.51060  0.19320  Biso   1.000  C
  C1236    1.0000 0.11923  0.47990  0.22110  Biso   1.000  C
  C1237    1.0000 0.10272  0.47330  0.20790  Biso   1.000  C
  H797     1.0000 0.09850  0.48660  0.18090  Biso   1.000  H
  C1238    1.0000 0.09092  0.44530  0.23550  Biso   1.000  C
  H798     1.0000 0.07880  0.44200  0.22710  Biso   1.000  H
  C1239    1.0000 0.09679  0.42490  0.27110  Biso   1.000  C
  C1240    1.0000 0.11513  0.43050  0.28440  Biso   1.000  C
  H799     1.0000 0.11970  0.41640  0.31070  Biso   1.000  H
  C1241    1.0000 0.12577  0.45710  0.25750  Biso   1.000  C
  H800     1.0000 0.13810  0.45980  0.26450  Biso   1.000  H
  C1242    1.0000 0.08460  0.39420  0.29900  Biso   1.000  C
  C1243    1.0000 0.07071  0.37340  0.28160  Biso   1.000  C
  H801     1.0000 0.06730  0.38100  0.25180  Biso   1.000  H
  C1244    1.0000 0.06071  0.34070  0.30410  Biso   1.000  C
  H802     1.0000 0.05200  0.32290  0.28890  Biso   1.000  H
  C1245    1.0000 0.06399  0.33560  0.34870  Biso   1.000  C
  C1246    1.0000 0.07837  0.35970  0.36980  Biso   1.000  C
  H803     1.0000 0.08080  0.35460  0.40070  Biso   1.000  H
  C1247    1.0000 0.08813  0.38840  0.34750  Biso   1.000  C
  H804     1.0000 0.09730  0.40500  0.36200  Biso   1.000  H
  C1248    1.0000 0.92490  0.23310  0.35550  Biso   1.000  C
  C1249    1.0000 0.94439  0.24650  0.35830  Biso   1.000  C
  C1250    1.0000 0.95606  0.21820  0.38090  Biso   1.000  C
  H805     1.0000 0.95190  0.19160  0.39530  Biso   1.000  H
  C1251    1.0000 0.97412  0.22970  0.38190  Biso   1.000  C
  H806     1.0000 0.98230  0.21040  0.39700  Biso   1.000  H
  C1252    1.0000 0.98021  0.26730  0.36220  Biso   1.000  C
  C1253    1.0000 0.96880  0.29620  0.33980  Biso   1.000  C
  H807     1.0000 0.97340  0.32260  0.32580  Biso   1.000  H
  C1254    1.0000 0.94973  0.28620  0.33770  Biso   1.000  C
  H808     1.0000 0.94150  0.30570  0.32310  Biso   1.000  H
  C1255    1.0000 0.99984  0.27840  0.36390  Biso   1.000  C
  C1256    1.0000 0.01187  0.24260  0.37210  Biso   1.000  C
  H809     1.0000 0.00750  0.21280  0.37640  Biso   1.000  H
  C1257    1.0000 0.02983  0.25070  0.37400  Biso   1.000  C
  H810     1.0000 0.03790  0.22640  0.37850  Biso   1.000  H
  C1258    1.0000 0.03627  0.29480  0.36930  Biso   1.000  C
  C1259    1.0000 0.02495  0.32890  0.36170  Biso   1.000  C
  H811     1.0000 0.02950  0.35870  0.35870  Biso   1.000  H
  C1260    1.0000 0.00603  0.32150  0.35810  Biso   1.000  C
  H812     1.0000 0.99810  0.34570  0.35180  Biso   1.000  H
  N112     1.0000 0.05492  0.30390  0.37520  Biso   1.000  N
  O163     1.0000 0.91449  0.25433  0.33030  Biso   1.000  O
  O164     1.0000 0.92052  0.20060  0.38080  Biso   1.000  O
  O165     1.0000 0.13224  0.04896  0.53720  Biso   1.000  O
  O166     1.0000 0.13399  0.10083  0.59100  Biso   1.000  O
  O167     1.0000 0.12593  0.52708  0.15900  Biso   1.000  O
  O168     1.0000 0.14751  0.51830  0.21060  Biso   1.000  O
  Zn42     1.0000 0.14552  0.56473  0.13770  Biso   1.000  Zn
  C1261    1.0000 0.67480  0.16490  0.20620  Biso   1.000  C
  H813     1.0000 0.68680  0.16840  0.21600  Biso   1.000  H
  C1262    1.0000 0.64193  0.15430  0.17880  Biso   1.000  C
  H814     1.0000 0.63000  0.15150  0.16850  Biso   1.000  H
  C1263    1.0000 0.60582  0.81000  0.13340  Biso   1.000  C
  C1264    1.0000 0.67040  0.12280  0.18460  Biso   1.000  C
  H815     1.0000 0.67860  0.09890  0.17960  Biso   1.000  H
  C1265    1.0000 0.54602  0.72660  0.25560  Biso   1.000  C
  H816     1.0000 0.55230  0.72650  0.28330  Biso   1.000  H
  C1266    1.0000 0.66308  0.20140  0.21410  Biso   1.000  C
  C1267    1.0000 0.66971  0.24170  0.23840  Biso   1.000  C
  C1268    1.0000 0.58404  0.75200  0.18800  Biso   1.000  C
  C1269    1.0000 0.52738  0.72940  0.25300  Biso   1.000  C
  H817     1.0000 0.52090  0.72980  0.28050  Biso   1.000  H
  C1270    1.0000 0.59074  0.82500  0.15580  Biso   1.000  C
  H818     1.0000 0.58700  0.85540  0.15220  Biso   1.000  H
  C1271    1.0000 0.64654  0.19650  0.20100  Biso   1.000  C
  H819     1.0000 0.63790  0.21950  0.20580  Biso   1.000  H
  C1272    1.0000 0.65806  0.35310  0.39110  Biso   1.000  C
  H820     1.0000 0.65000  0.34840  0.41530  Biso   1.000  H
  C1273    1.0000 0.64469  0.92230  0.01310  Biso   1.000  C
  C1274    1.0000 0.63555  0.89230  0.04620  Biso   1.000  C
  C1275    1.0000 0.62865  0.90880  0.08550  Biso   1.000  C
  H821     1.0000 0.63050  0.93960  0.09290  Biso   1.000  H
  C1276    1.0000 0.61932  0.88230  0.11390  Biso   1.000  C
  H822     1.0000 0.61490  0.89510  0.14100  Biso   1.000  H
  C1277    1.0000 0.61595  0.83710  0.10500  Biso   1.000  C
  C1278    1.0000 0.62441  0.81940  0.06640  Biso   1.000  C
  H823     1.0000 0.62340  0.78810  0.06000  Biso   1.000  H
  C1279    1.0000 0.63417  0.84680  0.03740  Biso   1.000  C
  H824     1.0000 0.63980  0.83420  0.01170  Biso   1.000  H
  C1280    1.0000 0.67097  0.32790  0.32240  Biso   1.000  C
  C1281    1.0000 0.65969  0.32150  0.36050  Biso   1.000  C
  H825     1.0000 0.65330  0.29400  0.36380  Biso   1.000  H
  C1282    1.0000 0.58085  0.79580  0.18390  Biso   1.000  C
  H826     1.0000 0.57130  0.80830  0.20100  Biso   1.000  H
  C1283    1.0000 0.68020  0.36720  0.31980  Biso   1.000  C
  H827     1.0000 0.68780  0.37350  0.29510  Biso   1.000  H
  C1284    1.0000 0.59953  0.73290  0.16390  Biso   1.000  C
  H828     1.0000 0.60240  0.70160  0.16500  Biso   1.000  H
  C1285    1.0000 0.60922  0.76190  0.14060  Biso   1.000  C
  H829     1.0000 0.61970  0.75000  0.12680  Biso   1.000  H
  C1286    1.0000 0.44126  0.76120  0.21630  Biso   1.000  C
  C1287    1.0000 0.46187  0.75100  0.21520  Biso   1.000  C
  C1288    1.0000 0.47201  0.76690  0.17930  Biso   1.000  C
  H830     1.0000 0.46650  0.78330  0.15560  Biso   1.000  H
  C1289    1.0000 0.49009  0.75860  0.17850  Biso   1.000  C
  H831     1.0000 0.49700  0.76790  0.15330  Biso   1.000  H
  C1290    1.0000 0.49849  0.73660  0.21460  Biso   1.000  C
  C1291    1.0000 0.48769  0.72160  0.24930  Biso   1.000  C
  H832     1.0000 0.49330  0.70730  0.27420  Biso   1.000  H
  C1292    1.0000 0.47010  0.72580  0.25000  Biso   1.000  C
  H833     1.0000 0.46320  0.71230  0.27320  Biso   1.000  H
  C1293    1.0000 0.51800  0.73140  0.21460  Biso   1.000  C
  C1294    1.0000 0.52827  0.73070  0.17440  Biso   1.000  C
  H834     1.0000 0.52260  0.73220  0.14590  Biso   1.000  H
  C1295    1.0000 0.54607  0.72800  0.17730  Biso   1.000  C
  H835     1.0000 0.55270  0.72890  0.15010  Biso   1.000  H
  C1296    1.0000 0.55470  0.72420  0.21420  Biso   1.000  C
  C1297    1.0000 0.67797  0.39870  0.35560  Biso   1.000  C
  H836     1.0000 0.68450  0.42620  0.35490  Biso   1.000  H
  C1298    1.0000 0.67231  0.29640  0.28490  Biso   1.000  C
  C1299    1.0000 0.64452  0.51870  0.41730  Biso   1.000  C
  C1300    1.0000 0.63325  0.54920  0.38740  Biso   1.000  C
  C1301    1.0000 0.62054  0.53260  0.35870  Biso   1.000  C
  H837     1.0000 0.61820  0.50100  0.35750  Biso   1.000  H
  C1302    1.0000 0.61144  0.56100  0.33250  Biso   1.000  C
  H838     1.0000 0.60300  0.54810  0.31240  Biso   1.000  H
  C1303    1.0000 0.61309  0.60610  0.33170  Biso   1.000  C
  C1304    1.0000 0.62652  0.62340  0.36090  Biso   1.000  C
  H839     1.0000 0.62900  0.65490  0.36140  Biso   1.000  H
  C1305    1.0000 0.63571  0.59480  0.38800  Biso   1.000  C
  H840     1.0000 0.64420  0.60700  0.40830  Biso   1.000  H
  C1306    1.0000 0.60246  0.63550  0.30310  Biso   1.000  C
  C1307    1.0000 0.58575  0.62390  0.28430  Biso   1.000  C
  H841     1.0000 0.58050  0.59580  0.29230  Biso   1.000  H
  C1308    1.0000 0.57724  0.65030  0.25640  Biso   1.000  C
  H842     1.0000 0.56640  0.63980  0.24370  Biso   1.000  H
  C1309    1.0000 0.58327  0.69310  0.24450  Biso   1.000  C
  C1310    1.0000 0.59930  0.70750  0.26340  Biso   1.000  C
  H843     1.0000 0.60370  0.73690  0.25670  Biso   1.000  H
  C1311    1.0000 0.60905  0.67920  0.29220  Biso   1.000  C
  H844     1.0000 0.62010  0.68930  0.30440  Biso   1.000  H
  N113     1.0000 0.57395  0.72010  0.21390  Biso   1.000  N
  N114     1.0000 0.66706  0.39108  0.38980  Biso   1.000  N
  N115     1.0000 0.66303  0.25857  0.27700  Biso   1.000  N
  N116     1.0000 0.68225  0.26650  0.22210  Biso   1.000  N
  N117     1.0000 0.68379  0.30130  0.25130  Biso   1.000  N
  N118     1.0000 0.64965  0.23910  0.30430  Biso   1.000  N
  H845     1.0000 0.64660  0.25200  0.32970  Biso   1.000  H
  H846     1.0000 0.64440  0.21390  0.29580  Biso   1.000  H
  N119     1.0000 0.65201  0.12150  0.17180  Biso   1.000  N
  O169     1.0000 0.65548  0.90327  0.98550  Biso   1.000  O
  O170     1.0000 0.64183  0.96348  0.01500  Biso   1.000  O
  O171     1.0000 0.65225  0.53696  0.44980  Biso   1.000  O
  O172     1.0000 0.64437  0.47745  0.40740  Biso   1.000  O
  O173     1.0000 0.43623  0.78271  0.18570  Biso   1.000  O
  O174     1.0000 0.43330  0.74660  0.24900  Biso   1.000  O
  Zn43     1.0000 0.66267  0.44071  0.43550  Biso   1.000  Zn
  Zn44     1.0000 0.65697  0.52147  0.51790  Biso   1.000  Zn
  C1312    1.0000 0.62913  0.58710  0.55360  Biso   1.000  C
  C1313    1.0000 0.61777  0.61940  0.52730  Biso   1.000  C
  C1314    1.0000 0.61196  0.60670  0.48500  Biso   1.000  C
  H847     1.0000 0.61510  0.57810  0.47280  Biso   1.000  H
  C1315    1.0000 0.60122  0.63700  0.46040  Biso   1.000  C
  H848     1.0000 0.59720  0.62910  0.43110  Biso   1.000  H
  C1316    1.0000 0.59647  0.67810  0.47850  Biso   1.000  C
  C1317    1.0000 0.60167  0.69010  0.52090  Biso   1.000  C
  H849     1.0000 0.59770  0.71780  0.53360  Biso   1.000  H
  C1318    1.0000 0.61307  0.66100  0.54610  Biso   1.000  C
  H850     1.0000 0.61730  0.66960  0.57490  Biso   1.000  H
  C1319    1.0000 0.58544  0.71100  0.45160  Biso   1.000  C
  C1320    1.0000 0.58871  0.71660  0.40470  Biso   1.000  C
  H851     1.0000 0.59780  0.69960  0.39010  Biso   1.000  H
  C1321    1.0000 0.57878  0.74620  0.38150  Biso   1.000  C
  H852     1.0000 0.58100  0.75060  0.35040  Biso   1.000  H
  C1322    1.0000 0.56538  0.77050  0.40240  Biso   1.000  C
  C1323    1.0000 0.56157  0.76470  0.44660  Biso   1.000  C
  H853     1.0000 0.55190  0.78080  0.45950  Biso   1.000  H
  C1324    1.0000 0.57132  0.73630  0.47300  Biso   1.000  C
  H854     1.0000 0.56890  0.73330  0.50420  Biso   1.000  H
  C1325    1.0000 0.63095  0.01060  0.19320  Biso   1.000  C
  C1326    1.0000 0.61923  0.97990  0.22110  Biso   1.000  C
  C1327    1.0000 0.60272  0.97330  0.20790  Biso   1.000  C
  H855     1.0000 0.59850  0.98660  0.18090  Biso   1.000  H
  C1328    1.0000 0.59092  0.94530  0.23550  Biso   1.000  C
  H856     1.0000 0.57880  0.94200  0.22710  Biso   1.000  H
  C1329    1.0000 0.59679  0.92490  0.27110  Biso   1.000  C
  C1330    1.0000 0.61513  0.93050  0.28440  Biso   1.000  C
  H857     1.0000 0.61970  0.91640  0.31070  Biso   1.000  H
  C1331    1.0000 0.62577  0.95710  0.25750  Biso   1.000  C
  H858     1.0000 0.63810  0.95980  0.26450  Biso   1.000  H
  C1332    1.0000 0.58460  0.89420  0.29900  Biso   1.000  C
  C1333    1.0000 0.57071  0.87340  0.28160  Biso   1.000  C
  H859     1.0000 0.56730  0.88100  0.25180  Biso   1.000  H
  C1334    1.0000 0.56071  0.84070  0.30410  Biso   1.000  C
  H860     1.0000 0.55200  0.82290  0.28890  Biso   1.000  H
  C1335    1.0000 0.56399  0.83560  0.34870  Biso   1.000  C
  C1336    1.0000 0.57837  0.85970  0.36980  Biso   1.000  C
  H861     1.0000 0.58080  0.85460  0.40070  Biso   1.000  H
  C1337    1.0000 0.58813  0.88840  0.34750  Biso   1.000  C
  H862     1.0000 0.59730  0.90500  0.36200  Biso   1.000  H
  C1338    1.0000 0.42490  0.73310  0.35550  Biso   1.000  C
  C1339    1.0000 0.44439  0.74650  0.35830  Biso   1.000  C
  C1340    1.0000 0.45606  0.71820  0.38090  Biso   1.000  C
  H863     1.0000 0.45190  0.69160  0.39530  Biso   1.000  H
  C1341    1.0000 0.47412  0.72970  0.38190  Biso   1.000  C
  H864     1.0000 0.48230  0.71040  0.39700  Biso   1.000  H
  C1342    1.0000 0.48021  0.76730  0.36220  Biso   1.000  C
  C1343    1.0000 0.46880  0.79620  0.33980  Biso   1.000  C
  H865     1.0000 0.47340  0.82260  0.32580  Biso   1.000  H
  C1344    1.0000 0.44973  0.78620  0.33770  Biso   1.000  C
  H866     1.0000 0.44150  0.80570  0.32310  Biso   1.000  H
  C1345    1.0000 0.49984  0.77840  0.36390  Biso   1.000  C
  C1346    1.0000 0.51187  0.74260  0.37210  Biso   1.000  C
  H867     1.0000 0.50750  0.71280  0.37640  Biso   1.000  H
  C1347    1.0000 0.52983  0.75070  0.37400  Biso   1.000  C
  H868     1.0000 0.53790  0.72640  0.37850  Biso   1.000  H
  C1348    1.0000 0.53627  0.79480  0.36930  Biso   1.000  C
  C1349    1.0000 0.52495  0.82890  0.36170  Biso   1.000  C
  H869     1.0000 0.52950  0.85870  0.35870  Biso   1.000  H
  C1350    1.0000 0.50603  0.82150  0.35810  Biso   1.000  C
  H870     1.0000 0.49810  0.84570  0.35180  Biso   1.000  H
  N120     1.0000 0.55492  0.80390  0.37520  Biso   1.000  N
  O175     1.0000 0.41449  0.75433  0.33030  Biso   1.000  O
  O176     1.0000 0.42052  0.70060  0.38080  Biso   1.000  O
  O177     1.0000 0.63224  0.54896  0.53720  Biso   1.000  O
  O178     1.0000 0.63399  0.60083  0.59100  Biso   1.000  O
  O179     1.0000 0.62593  0.02708  0.15900  Biso   1.000  O
  O180     1.0000 0.64751  0.01830  0.21060  Biso   1.000  O
  Zn45     1.0000 0.64552  0.06473  0.13770  Biso   1.000  Zn
  C1351    1.0000 0.67480  0.66490  0.70620  Biso   1.000  C
  H871     1.0000 0.68680  0.66840  0.71600  Biso   1.000  H
  C1352    1.0000 0.64193  0.65430  0.67880  Biso   1.000  C
  H872     1.0000 0.63000  0.65150  0.66850  Biso   1.000  H
  C1353    1.0000 0.60582  0.31000  0.63340  Biso   1.000  C
  C1354    1.0000 0.67040  0.62280  0.68460  Biso   1.000  C
  H873     1.0000 0.67860  0.59890  0.67960  Biso   1.000  H
  C1355    1.0000 0.54602  0.22660  0.75560  Biso   1.000  C
  H874     1.0000 0.55230  0.22650  0.78330  Biso   1.000  H
  C1356    1.0000 0.66308  0.70140  0.71410  Biso   1.000  C
  C1357    1.0000 0.66971  0.74170  0.73840  Biso   1.000  C
  C1358    1.0000 0.58404  0.25200  0.68800  Biso   1.000  C
  C1359    1.0000 0.52738  0.22940  0.75300  Biso   1.000  C
  H875     1.0000 0.52090  0.22980  0.78050  Biso   1.000  H
  C1360    1.0000 0.59074  0.32500  0.65580  Biso   1.000  C
  H876     1.0000 0.58700  0.35540  0.65220  Biso   1.000  H
  C1361    1.0000 0.64654  0.69650  0.70100  Biso   1.000  C
  H877     1.0000 0.63790  0.71950  0.70580  Biso   1.000  H
  C1362    1.0000 0.65806  0.85310  0.89110  Biso   1.000  C
  H878     1.0000 0.65000  0.84840  0.91530  Biso   1.000  H
  C1363    1.0000 0.64469  0.42230  0.51310  Biso   1.000  C
  C1364    1.0000 0.63555  0.39230  0.54620  Biso   1.000  C
  C1365    1.0000 0.62865  0.40880  0.58550  Biso   1.000  C
  H879     1.0000 0.63050  0.43960  0.59290  Biso   1.000  H
  C1366    1.0000 0.61932  0.38230  0.61390  Biso   1.000  C
  H880     1.0000 0.61490  0.39510  0.64100  Biso   1.000  H
  C1367    1.0000 0.61595  0.33710  0.60500  Biso   1.000  C
  C1368    1.0000 0.62441  0.31940  0.56640  Biso   1.000  C
  H881     1.0000 0.62340  0.28810  0.56000  Biso   1.000  H
  C1369    1.0000 0.63417  0.34680  0.53740  Biso   1.000  C
  H882     1.0000 0.63980  0.33420  0.51170  Biso   1.000  H
  C1370    1.0000 0.67097  0.82790  0.82240  Biso   1.000  C
  C1371    1.0000 0.65969  0.82150  0.86050  Biso   1.000  C
  H883     1.0000 0.65330  0.79400  0.86380  Biso   1.000  H
  C1372    1.0000 0.58085  0.29580  0.68390  Biso   1.000  C
  H884     1.0000 0.57130  0.30830  0.70100  Biso   1.000  H
  C1373    1.0000 0.68020  0.86720  0.81980  Biso   1.000  C
  H885     1.0000 0.68780  0.87350  0.79510  Biso   1.000  H
  C1374    1.0000 0.59953  0.23290  0.66390  Biso   1.000  C
  H886     1.0000 0.60240  0.20160  0.66500  Biso   1.000  H
  C1375    1.0000 0.60922  0.26190  0.64060  Biso   1.000  C
  H887     1.0000 0.61970  0.25000  0.62680  Biso   1.000  H
  C1376    1.0000 0.44126  0.26120  0.71630  Biso   1.000  C
  C1377    1.0000 0.46187  0.25100  0.71520  Biso   1.000  C
  C1378    1.0000 0.47201  0.26690  0.67930  Biso   1.000  C
  H888     1.0000 0.46650  0.28330  0.65560  Biso   1.000  H
  C1379    1.0000 0.49009  0.25860  0.67850  Biso   1.000  C
  H889     1.0000 0.49700  0.26790  0.65330  Biso   1.000  H
  C1380    1.0000 0.49849  0.23660  0.71460  Biso   1.000  C
  C1381    1.0000 0.48769  0.22160  0.74930  Biso   1.000  C
  H890     1.0000 0.49330  0.20730  0.77420  Biso   1.000  H
  C1382    1.0000 0.47010  0.22580  0.75000  Biso   1.000  C
  H891     1.0000 0.46320  0.21230  0.77320  Biso   1.000  H
  C1383    1.0000 0.51800  0.23140  0.71460  Biso   1.000  C
  C1384    1.0000 0.52827  0.23070  0.67440  Biso   1.000  C
  H892     1.0000 0.52260  0.23220  0.64590  Biso   1.000  H
  C1385    1.0000 0.54607  0.22800  0.67730  Biso   1.000  C
  H893     1.0000 0.55270  0.22890  0.65010  Biso   1.000  H
  C1386    1.0000 0.55470  0.22420  0.71420  Biso   1.000  C
  C1387    1.0000 0.67797  0.89870  0.85560  Biso   1.000  C
  H894     1.0000 0.68450  0.92620  0.85490  Biso   1.000  H
  C1388    1.0000 0.67231  0.79640  0.78490  Biso   1.000  C
  C1389    1.0000 0.64452  0.01870  0.91730  Biso   1.000  C
  C1390    1.0000 0.63325  0.04920  0.88740  Biso   1.000  C
  C1391    1.0000 0.62054  0.03260  0.85870  Biso   1.000  C
  H895     1.0000 0.61820  0.00100  0.85750  Biso   1.000  H
  C1392    1.0000 0.61144  0.06100  0.83250  Biso   1.000  C
  H896     1.0000 0.60300  0.04810  0.81240  Biso   1.000  H
  C1393    1.0000 0.61309  0.10610  0.83170  Biso   1.000  C
  C1394    1.0000 0.62652  0.12340  0.86090  Biso   1.000  C
  H897     1.0000 0.62900  0.15490  0.86140  Biso   1.000  H
  C1395    1.0000 0.63571  0.09480  0.88800  Biso   1.000  C
  H898     1.0000 0.64420  0.10700  0.90830  Biso   1.000  H
  C1396    1.0000 0.60246  0.13550  0.80310  Biso   1.000  C
  C1397    1.0000 0.58575  0.12390  0.78430  Biso   1.000  C
  H899     1.0000 0.58050  0.09580  0.79230  Biso   1.000  H
  C1398    1.0000 0.57724  0.15030  0.75640  Biso   1.000  C
  H900     1.0000 0.56640  0.13980  0.74370  Biso   1.000  H
  C1399    1.0000 0.58327  0.19310  0.74450  Biso   1.000  C
  C1400    1.0000 0.59930  0.20750  0.76340  Biso   1.000  C
  H901     1.0000 0.60370  0.23690  0.75670  Biso   1.000  H
  C1401    1.0000 0.60905  0.17920  0.79220  Biso   1.000  C
  H902     1.0000 0.62010  0.18930  0.80440  Biso   1.000  H
  N121     1.0000 0.57395  0.22010  0.71390  Biso   1.000  N
  N122     1.0000 0.66706  0.89108  0.88980  Biso   1.000  N
  N123     1.0000 0.66303  0.75857  0.77700  Biso   1.000  N
  N124     1.0000 0.68225  0.76650  0.72210  Biso   1.000  N
  N125     1.0000 0.68379  0.80130  0.75130  Biso   1.000  N
  N126     1.0000 0.64965  0.73910  0.80430  Biso   1.000  N
  H903     1.0000 0.64660  0.75200  0.82970  Biso   1.000  H
  H904     1.0000 0.64440  0.71390  0.79580  Biso   1.000  H
  N127     1.0000 0.65201  0.62150  0.67180  Biso   1.000  N
  O181     1.0000 0.65548  0.40327  0.48550  Biso   1.000  O
  O182     1.0000 0.64183  0.46348  0.51500  Biso   1.000  O
  O183     1.0000 0.65225  0.03696  0.94980  Biso   1.000  O
  O184     1.0000 0.64437  0.97745  0.90740  Biso   1.000  O
  O185     1.0000 0.43623  0.28271  0.68570  Biso   1.000  O
  O186     1.0000 0.43330  0.24660  0.74900  Biso   1.000  O
  Zn46     1.0000 0.66267  0.94071  0.93550  Biso   1.000  Zn
  Zn47     1.0000 0.65697  0.02147  0.01790  Biso   1.000  Zn
  C1402    1.0000 0.62913  0.08710  0.05360  Biso   1.000  C
  C1403    1.0000 0.61777  0.11940  0.02730  Biso   1.000  C
  C1404    1.0000 0.61196  0.10670  0.98500  Biso   1.000  C
  H905     1.0000 0.61510  0.07810  0.97280  Biso   1.000  H
  C1405    1.0000 0.60122  0.13700  0.96040  Biso   1.000  C
  H906     1.0000 0.59720  0.12910  0.93110  Biso   1.000  H
  C1406    1.0000 0.59647  0.17810  0.97850  Biso   1.000  C
  C1407    1.0000 0.60167  0.19010  0.02090  Biso   1.000  C
  H907     1.0000 0.59770  0.21780  0.03360  Biso   1.000  H
  C1408    1.0000 0.61307  0.16100  0.04610  Biso   1.000  C
  H908     1.0000 0.61730  0.16960  0.07490  Biso   1.000  H
  C1409    1.0000 0.58544  0.21100  0.95160  Biso   1.000  C
  C1410    1.0000 0.58871  0.21660  0.90470  Biso   1.000  C
  H909     1.0000 0.59780  0.19960  0.89010  Biso   1.000  H
  C1411    1.0000 0.57878  0.24620  0.88150  Biso   1.000  C
  H910     1.0000 0.58100  0.25060  0.85040  Biso   1.000  H
  C1412    1.0000 0.56538  0.27050  0.90240  Biso   1.000  C
  C1413    1.0000 0.56157  0.26470  0.94660  Biso   1.000  C
  H911     1.0000 0.55190  0.28080  0.95950  Biso   1.000  H
  C1414    1.0000 0.57132  0.23630  0.97300  Biso   1.000  C
  H912     1.0000 0.56890  0.23330  0.00420  Biso   1.000  H
  C1415    1.0000 0.63095  0.51060  0.69320  Biso   1.000  C
  C1416    1.0000 0.61923  0.47990  0.72110  Biso   1.000  C
  C1417    1.0000 0.60272  0.47330  0.70790  Biso   1.000  C
  H913     1.0000 0.59850  0.48660  0.68090  Biso   1.000  H
  C1418    1.0000 0.59092  0.44530  0.73550  Biso   1.000  C
  H914     1.0000 0.57880  0.44200  0.72710  Biso   1.000  H
  C1419    1.0000 0.59679  0.42490  0.77110  Biso   1.000  C
  C1420    1.0000 0.61513  0.43050  0.78440  Biso   1.000  C
  H915     1.0000 0.61970  0.41640  0.81070  Biso   1.000  H
  C1421    1.0000 0.62577  0.45710  0.75750  Biso   1.000  C
  H916     1.0000 0.63810  0.45980  0.76450  Biso   1.000  H
  C1422    1.0000 0.58460  0.39420  0.79900  Biso   1.000  C
  C1423    1.0000 0.57071  0.37340  0.78160  Biso   1.000  C
  H917     1.0000 0.56730  0.38100  0.75180  Biso   1.000  H
  C1424    1.0000 0.56071  0.34070  0.80410  Biso   1.000  C
  H918     1.0000 0.55200  0.32290  0.78890  Biso   1.000  H
  C1425    1.0000 0.56399  0.33560  0.84870  Biso   1.000  C
  C1426    1.0000 0.57837  0.35970  0.86980  Biso   1.000  C
  H919     1.0000 0.58080  0.35460  0.90070  Biso   1.000  H
  C1427    1.0000 0.58813  0.38840  0.84750  Biso   1.000  C
  H920     1.0000 0.59730  0.40500  0.86200  Biso   1.000  H
  C1428    1.0000 0.42490  0.23310  0.85550  Biso   1.000  C
  C1429    1.0000 0.44439  0.24650  0.85830  Biso   1.000  C
  C1430    1.0000 0.45606  0.21820  0.88090  Biso   1.000  C
  H921     1.0000 0.45190  0.19160  0.89530  Biso   1.000  H
  C1431    1.0000 0.47412  0.22970  0.88190  Biso   1.000  C
  H922     1.0000 0.48230  0.21040  0.89700  Biso   1.000  H
  C1432    1.0000 0.48021  0.26730  0.86220  Biso   1.000  C
  C1433    1.0000 0.46880  0.29620  0.83980  Biso   1.000  C
  H923     1.0000 0.47340  0.32260  0.82580  Biso   1.000  H
  C1434    1.0000 0.44973  0.28620  0.83770  Biso   1.000  C
  H924     1.0000 0.44150  0.30570  0.82310  Biso   1.000  H
  C1435    1.0000 0.49984  0.27840  0.86390  Biso   1.000  C
  C1436    1.0000 0.51187  0.24260  0.87210  Biso   1.000  C
  H925     1.0000 0.50750  0.21280  0.87640  Biso   1.000  H
  C1437    1.0000 0.52983  0.25070  0.87400  Biso   1.000  C
  H926     1.0000 0.53790  0.22640  0.87850  Biso   1.000  H
  C1438    1.0000 0.53627  0.29480  0.86930  Biso   1.000  C
  C1439    1.0000 0.52495  0.32890  0.86170  Biso   1.000  C
  H927     1.0000 0.52950  0.35870  0.85870  Biso   1.000  H
  C1440    1.0000 0.50603  0.32150  0.85810  Biso   1.000  C
  H928     1.0000 0.49810  0.34570  0.85180  Biso   1.000  H
  N128     1.0000 0.55492  0.30390  0.87520  Biso   1.000  N
  O187     1.0000 0.41449  0.25433  0.83030  Biso   1.000  O
  O188     1.0000 0.42052  0.20060  0.88080  Biso   1.000  O
  O189     1.0000 0.63224  0.04896  0.03720  Biso   1.000  O
  O190     1.0000 0.63399  0.10083  0.09100  Biso   1.000  O
  O191     1.0000 0.62593  0.52708  0.65900  Biso   1.000  O
  O192     1.0000 0.64751  0.51830  0.71060  Biso   1.000  O
  Zn48     1.0000 0.64552  0.56473  0.63770  Biso   1.000  Zn
