data_image0
_cell_length_a       34.1449
_cell_length_b       34.1449
_cell_length_c       19.8843
_cell_angle_alpha    90
_cell_angle_beta     90
_cell_angle_gamma    90

_symmetry_space_group_name_H-M    "P 1"
_symmetry_int_tables_number       1

loop_
  _symmetry_equiv_pos_as_xyz
  'x, y, z'

loop_
  _atom_site_label
  _atom_site_occupancy
  _atom_site_fract_x
  _atom_site_fract_y
  _atom_site_fract_z
  _atom_site_thermal_displace_type
  _atom_site_B_iso_or_equiv
  _atom_site_type_symbol
  Cu1      1.0000 0.24658  0.25458  0.31462  Biso   1.000  Cu
  O1       1.0000 0.19785  0.28048  0.30070  Biso   1.000  O
  O2       1.0000 0.45842  0.46701  0.06600  Biso   1.000  O
  C1       1.0000 0.13460  0.31240  0.15690  Biso   1.000  C
  H1       1.0000 0.15000  0.30550  0.12010  Biso   1.000  H
  C2       1.0000 0.31560  0.36460  0.15420  Biso   1.000  C
  H2       1.0000 0.31170  0.34840  0.11730  Biso   1.000  H
  C3       1.0000 0.07428  0.34107  0.20230  Biso   1.000  C
  C4       1.0000 0.09780  0.33120  0.15110  Biso   1.000  C
  H3       1.0000 0.08920  0.33730  0.10790  Biso   1.000  H
  C5       1.0000 0.33180  0.40350  0.15130  Biso   1.000  C
  H4       1.0000 0.33640  0.41350  0.10850  Biso   1.000  H
  C6       1.0000 0.34134  0.42730  0.20350  Biso   1.000  C
  O3       1.0000 0.03312  0.45924  0.06770  Biso   1.000  O
  C7       1.0000 0.31310  0.37570  0.28480  Biso   1.000  C
  H5       1.0000 0.30790  0.36810  0.32890  Biso   1.000  H
  O4       1.0000 0.27389  0.30299  0.30370  Biso   1.000  O
  C8       1.0000 0.30510  0.35340  0.23020  Biso   1.000  C
  O5       1.0000 0.28161  0.29761  0.19170  Biso   1.000  O
  C9       1.0000 0.03465  0.39326  0.15100  Biso   1.000  C
  H6       1.0000 0.05810  0.40470  0.13760  Biso   1.000  H
  C10      1.0000 0.35970  0.46448  0.19310  Biso   1.000  C
  C11      1.0000 0.39457  0.46422  0.14990  Biso   1.000  C
  C12      1.0000 0.03591  0.35940  0.19030  Biso   1.000  C
  C13      1.0000 0.12319  0.31490  0.27960  Biso   1.000  C
  H7       1.0000 0.13080  0.31080  0.32400  Biso   1.000  H
  O6       1.0000 0.20407  0.27237  0.18320  Biso   1.000  O
  C14      1.0000 0.08670  0.33180  0.26080  Biso   1.000  C
  H8       1.0000 0.06960  0.33690  0.29600  Biso   1.000  H
  C15      1.0000 0.14583  0.30511  0.22560  Biso   1.000  C
  C16      1.0000 0.33120  0.41360  0.26600  Biso   1.000  C
  H9       1.0000 0.33630  0.43050  0.30150  Biso   1.000  H
  C17      1.0000 0.28520  0.31430  0.23860  Biso   1.000  C
  C18      1.0000 0.18616  0.28434  0.24190  Biso   1.000  C
  H10      1.0000 0.02200  0.30700  0.26600  Biso   1.000  H
  H11      1.0000 0.30600  0.47300  0.27400  Biso   1.000  H
  H12      1.0000 0.41010  0.44220  0.14700  Biso   1.000  H
  Cu2      1.0000 0.74658  0.75458  0.81462  Biso   1.000  Cu
  O7       1.0000 0.69785  0.78048  0.80070  Biso   1.000  O
  O8       1.0000 0.95842  0.96701  0.56600  Biso   1.000  O
  C19      1.0000 0.63460  0.81240  0.65690  Biso   1.000  C
  H13      1.0000 0.65000  0.80550  0.62010  Biso   1.000  H
  C20      1.0000 0.81560  0.86460  0.65420  Biso   1.000  C
  H14      1.0000 0.81170  0.84840  0.61730  Biso   1.000  H
  C21      1.0000 0.57428  0.84107  0.70230  Biso   1.000  C
  C22      1.0000 0.59780  0.83120  0.65110  Biso   1.000  C
  H15      1.0000 0.58920  0.83730  0.60790  Biso   1.000  H
  C23      1.0000 0.83180  0.90350  0.65130  Biso   1.000  C
  H16      1.0000 0.83640  0.91350  0.60850  Biso   1.000  H
  C24      1.0000 0.84134  0.92730  0.70350  Biso   1.000  C
  O9       1.0000 0.53312  0.95924  0.56770  Biso   1.000  O
  C25      1.0000 0.81310  0.87570  0.78480  Biso   1.000  C
  H17      1.0000 0.80790  0.86810  0.82890  Biso   1.000  H
  O10      1.0000 0.77389  0.80299  0.80370  Biso   1.000  O
  C26      1.0000 0.80510  0.85340  0.73020  Biso   1.000  C
  O11      1.0000 0.78161  0.79761  0.69170  Biso   1.000  O
  C27      1.0000 0.53465  0.89326  0.65100  Biso   1.000  C
  H18      1.0000 0.55810  0.90470  0.63760  Biso   1.000  H
  C28      1.0000 0.85970  0.96448  0.69310  Biso   1.000  C
  C29      1.0000 0.89457  0.96422  0.64990  Biso   1.000  C
  C30      1.0000 0.53591  0.85940  0.69030  Biso   1.000  C
  C31      1.0000 0.62319  0.81490  0.77960  Biso   1.000  C
  H19      1.0000 0.63080  0.81080  0.82400  Biso   1.000  H
  O12      1.0000 0.70407  0.77237  0.68320  Biso   1.000  O
  C32      1.0000 0.58670  0.83180  0.76080  Biso   1.000  C
  H20      1.0000 0.56960  0.83690  0.79600  Biso   1.000  H
  C33      1.0000 0.64583  0.80511  0.72560  Biso   1.000  C
  C34      1.0000 0.83120  0.91360  0.76600  Biso   1.000  C
  H21      1.0000 0.83630  0.93050  0.80150  Biso   1.000  H
  C35      1.0000 0.78520  0.81430  0.73860  Biso   1.000  C
  C36      1.0000 0.68616  0.78434  0.74190  Biso   1.000  C
  H22      1.0000 0.52200  0.80700  0.76600  Biso   1.000  H
  H23      1.0000 0.80600  0.97300  0.77400  Biso   1.000  H
  H24      1.0000 0.91010  0.94220  0.64700  Biso   1.000  H
  Cu3      1.0000 0.75342  0.74542  0.31462  Biso   1.000  Cu
  O13      1.0000 0.80215  0.71952  0.30070  Biso   1.000  O
  O14      1.0000 0.54158  0.53299  0.06600  Biso   1.000  O
  C37      1.0000 0.86540  0.68760  0.15690  Biso   1.000  C
  H25      1.0000 0.85000  0.69450  0.12010  Biso   1.000  H
  C38      1.0000 0.68440  0.63540  0.15420  Biso   1.000  C
  H26      1.0000 0.68830  0.65160  0.11730  Biso   1.000  H
  C39      1.0000 0.92572  0.65893  0.20230  Biso   1.000  C
  C40      1.0000 0.90220  0.66880  0.15110  Biso   1.000  C
  H27      1.0000 0.91080  0.66270  0.10790  Biso   1.000  H
  C41      1.0000 0.66820  0.59650  0.15130  Biso   1.000  C
  H28      1.0000 0.66360  0.58650  0.10850  Biso   1.000  H
  C42      1.0000 0.65866  0.57270  0.20350  Biso   1.000  C
  O15      1.0000 0.96688  0.54076  0.06770  Biso   1.000  O
  C43      1.0000 0.68690  0.62430  0.28480  Biso   1.000  C
  H29      1.0000 0.69210  0.63190  0.32890  Biso   1.000  H
  O16      1.0000 0.72611  0.69701  0.30370  Biso   1.000  O
  C44      1.0000 0.69490  0.64660  0.23020  Biso   1.000  C
  O17      1.0000 0.71839  0.70239  0.19170  Biso   1.000  O
  C45      1.0000 0.96535  0.60674  0.15100  Biso   1.000  C
  H30      1.0000 0.94190  0.59530  0.13760  Biso   1.000  H
  C46      1.0000 0.64030  0.53552  0.19310  Biso   1.000  C
  C47      1.0000 0.60543  0.53578  0.14990  Biso   1.000  C
  C48      1.0000 0.96409  0.64060  0.19030  Biso   1.000  C
  C49      1.0000 0.87681  0.68510  0.27960  Biso   1.000  C
  H31      1.0000 0.86920  0.68920  0.32400  Biso   1.000  H
  O18      1.0000 0.79593  0.72763  0.18320  Biso   1.000  O
  C50      1.0000 0.91330  0.66820  0.26080  Biso   1.000  C
  H32      1.0000 0.93040  0.66310  0.29600  Biso   1.000  H
  C51      1.0000 0.85417  0.69489  0.22560  Biso   1.000  C
  C52      1.0000 0.66880  0.58640  0.26600  Biso   1.000  C
  H33      1.0000 0.66370  0.56950  0.30150  Biso   1.000  H
  C53      1.0000 0.71480  0.68570  0.23860  Biso   1.000  C
  C54      1.0000 0.81384  0.71566  0.24190  Biso   1.000  C
  H34      1.0000 0.97800  0.69300  0.26600  Biso   1.000  H
  H35      1.0000 0.69400  0.52700  0.27400  Biso   1.000  H
  H36      1.0000 0.58990  0.55780  0.14700  Biso   1.000  H
  Cu4      1.0000 0.25342  0.24542  0.81462  Biso   1.000  Cu
  O19      1.0000 0.30215  0.21952  0.80070  Biso   1.000  O
  O20      1.0000 0.04158  0.03299  0.56600  Biso   1.000  O
  C55      1.0000 0.36540  0.18760  0.65690  Biso   1.000  C
  H37      1.0000 0.35000  0.19450  0.62010  Biso   1.000  H
  C56      1.0000 0.18440  0.13540  0.65420  Biso   1.000  C
  H38      1.0000 0.18830  0.15160  0.61730  Biso   1.000  H
  C57      1.0000 0.42572  0.15893  0.70230  Biso   1.000  C
  C58      1.0000 0.40220  0.16880  0.65110  Biso   1.000  C
  H39      1.0000 0.41080  0.16270  0.60790  Biso   1.000  H
  C59      1.0000 0.16820  0.09650  0.65130  Biso   1.000  C
  H40      1.0000 0.16360  0.08650  0.60850  Biso   1.000  H
  C60      1.0000 0.15866  0.07270  0.70350  Biso   1.000  C
  O21      1.0000 0.46688  0.04076  0.56770  Biso   1.000  O
  C61      1.0000 0.18690  0.12430  0.78480  Biso   1.000  C
  H41      1.0000 0.19210  0.13190  0.82890  Biso   1.000  H
  O22      1.0000 0.22611  0.19701  0.80370  Biso   1.000  O
  C62      1.0000 0.19490  0.14660  0.73020  Biso   1.000  C
  O23      1.0000 0.21839  0.20239  0.69170  Biso   1.000  O
  C63      1.0000 0.46535  0.10674  0.65100  Biso   1.000  C
  H42      1.0000 0.44190  0.09530  0.63760  Biso   1.000  H
  C64      1.0000 0.14030  0.03552  0.69310  Biso   1.000  C
  C65      1.0000 0.10543  0.03578  0.64990  Biso   1.000  C
  C66      1.0000 0.46409  0.14060  0.69030  Biso   1.000  C
  C67      1.0000 0.37681  0.18510  0.77960  Biso   1.000  C
  H43      1.0000 0.36920  0.18920  0.82400  Biso   1.000  H
  O24      1.0000 0.29593  0.22763  0.68320  Biso   1.000  O
  C68      1.0000 0.41330  0.16820  0.76080  Biso   1.000  C
  H44      1.0000 0.43040  0.16310  0.79600  Biso   1.000  H
  C69      1.0000 0.35417  0.19489  0.72560  Biso   1.000  C
  C70      1.0000 0.16880  0.08640  0.76600  Biso   1.000  C
  H45      1.0000 0.16370  0.06950  0.80150  Biso   1.000  H
  C71      1.0000 0.21480  0.18570  0.73860  Biso   1.000  C
  C72      1.0000 0.31384  0.21566  0.74190  Biso   1.000  C
  H46      1.0000 0.47800  0.19300  0.76600  Biso   1.000  H
  H47      1.0000 0.19400  0.02700  0.77400  Biso   1.000  H
  H48      1.0000 0.08990  0.05780  0.64700  Biso   1.000  H
  Cu5      1.0000 0.75342  0.25458  0.68538  Biso   1.000  Cu
  O25      1.0000 0.80215  0.28048  0.69930  Biso   1.000  O
  O26      1.0000 0.54158  0.46701  0.93400  Biso   1.000  O
  C73      1.0000 0.86540  0.31240  0.84310  Biso   1.000  C
  H49      1.0000 0.85000  0.30550  0.87990  Biso   1.000  H
  C74      1.0000 0.68440  0.36460  0.84580  Biso   1.000  C
  H50      1.0000 0.68830  0.34840  0.88270  Biso   1.000  H
  C75      1.0000 0.92572  0.34107  0.79770  Biso   1.000  C
  C76      1.0000 0.90220  0.33120  0.84890  Biso   1.000  C
  H51      1.0000 0.91080  0.33730  0.89210  Biso   1.000  H
  C77      1.0000 0.66820  0.40350  0.84870  Biso   1.000  C
  H52      1.0000 0.66360  0.41350  0.89150  Biso   1.000  H
  C78      1.0000 0.65866  0.42730  0.79650  Biso   1.000  C
  O27      1.0000 0.96688  0.45924  0.93230  Biso   1.000  O
  C79      1.0000 0.68690  0.37570  0.71520  Biso   1.000  C
  H53      1.0000 0.69210  0.36810  0.67110  Biso   1.000  H
  O28      1.0000 0.72611  0.30299  0.69630  Biso   1.000  O
  C80      1.0000 0.69490  0.35340  0.76980  Biso   1.000  C
  O29      1.0000 0.71839  0.29761  0.80830  Biso   1.000  O
  C81      1.0000 0.96535  0.39326  0.84900  Biso   1.000  C
  H54      1.0000 0.94190  0.40470  0.86240  Biso   1.000  H
  C82      1.0000 0.64030  0.46448  0.80690  Biso   1.000  C
  C83      1.0000 0.60543  0.46422  0.85010  Biso   1.000  C
  C84      1.0000 0.96409  0.35940  0.80970  Biso   1.000  C
  C85      1.0000 0.87681  0.31490  0.72040  Biso   1.000  C
  H55      1.0000 0.86920  0.31080  0.67600  Biso   1.000  H
  O30      1.0000 0.79593  0.27237  0.81680  Biso   1.000  O
  C86      1.0000 0.91330  0.33180  0.73920  Biso   1.000  C
  H56      1.0000 0.93040  0.33690  0.70400  Biso   1.000  H
  C87      1.0000 0.85417  0.30511  0.77440  Biso   1.000  C
  C88      1.0000 0.66880  0.41360  0.73400  Biso   1.000  C
  H57      1.0000 0.66370  0.43050  0.69850  Biso   1.000  H
  C89      1.0000 0.71480  0.31430  0.76140  Biso   1.000  C
  C90      1.0000 0.81384  0.28434  0.75810  Biso   1.000  C
  H58      1.0000 0.97800  0.30700  0.73400  Biso   1.000  H
  H59      1.0000 0.69400  0.47300  0.72600  Biso   1.000  H
  H60      1.0000 0.58990  0.44220  0.85300  Biso   1.000  H
  Cu6      1.0000 0.25342  0.75458  0.18538  Biso   1.000  Cu
  O31      1.0000 0.30215  0.78048  0.19930  Biso   1.000  O
  O32      1.0000 0.04158  0.96701  0.43400  Biso   1.000  O
  C91      1.0000 0.36540  0.81240  0.34310  Biso   1.000  C
  H61      1.0000 0.35000  0.80550  0.37990  Biso   1.000  H
  C92      1.0000 0.18440  0.86460  0.34580  Biso   1.000  C
  H62      1.0000 0.18830  0.84840  0.38270  Biso   1.000  H
  C93      1.0000 0.42572  0.84107  0.29770  Biso   1.000  C
  C94      1.0000 0.40220  0.83120  0.34890  Biso   1.000  C
  H63      1.0000 0.41080  0.83730  0.39210  Biso   1.000  H
  C95      1.0000 0.16820  0.90350  0.34870  Biso   1.000  C
  H64      1.0000 0.16360  0.91350  0.39150  Biso   1.000  H
  C96      1.0000 0.15866  0.92730  0.29650  Biso   1.000  C
  O33      1.0000 0.46688  0.95924  0.43230  Biso   1.000  O
  C97      1.0000 0.18690  0.87570  0.21520  Biso   1.000  C
  H65      1.0000 0.19210  0.86810  0.17110  Biso   1.000  H
  O34      1.0000 0.22611  0.80299  0.19630  Biso   1.000  O
  C98      1.0000 0.19490  0.85340  0.26980  Biso   1.000  C
  O35      1.0000 0.21839  0.79761  0.30830  Biso   1.000  O
  C99      1.0000 0.46535  0.89326  0.34900  Biso   1.000  C
  H66      1.0000 0.44190  0.90470  0.36240  Biso   1.000  H
  C100     1.0000 0.14030  0.96448  0.30690  Biso   1.000  C
  C101     1.0000 0.10543  0.96422  0.35010  Biso   1.000  C
  C102     1.0000 0.46409  0.85940  0.30970  Biso   1.000  C
  C103     1.0000 0.37681  0.81490  0.22040  Biso   1.000  C
  H67      1.0000 0.36920  0.81080  0.17600  Biso   1.000  H
  O36      1.0000 0.29593  0.77237  0.31680  Biso   1.000  O
  C104     1.0000 0.41330  0.83180  0.23920  Biso   1.000  C
  H68      1.0000 0.43040  0.83690  0.20400  Biso   1.000  H
  C105     1.0000 0.35417  0.80511  0.27440  Biso   1.000  C
  C106     1.0000 0.16880  0.91360  0.23400  Biso   1.000  C
  H69      1.0000 0.16370  0.93050  0.19850  Biso   1.000  H
  C107     1.0000 0.21480  0.81430  0.26140  Biso   1.000  C
  C108     1.0000 0.31384  0.78434  0.25810  Biso   1.000  C
  H70      1.0000 0.47800  0.80700  0.23400  Biso   1.000  H
  H71      1.0000 0.19400  0.97300  0.22600  Biso   1.000  H
  H72      1.0000 0.08990  0.94220  0.35300  Biso   1.000  H
  Cu7      1.0000 0.24658  0.74542  0.68538  Biso   1.000  Cu
  O37      1.0000 0.19785  0.71952  0.69930  Biso   1.000  O
  O38      1.0000 0.45842  0.53299  0.93400  Biso   1.000  O
  C109     1.0000 0.13460  0.68760  0.84310  Biso   1.000  C
  H73      1.0000 0.15000  0.69450  0.87990  Biso   1.000  H
  C110     1.0000 0.31560  0.63540  0.84580  Biso   1.000  C
  H74      1.0000 0.31170  0.65160  0.88270  Biso   1.000  H
  C111     1.0000 0.07428  0.65893  0.79770  Biso   1.000  C
  C112     1.0000 0.09780  0.66880  0.84890  Biso   1.000  C
  H75      1.0000 0.08920  0.66270  0.89210  Biso   1.000  H
  C113     1.0000 0.33180  0.59650  0.84870  Biso   1.000  C
  H76      1.0000 0.33640  0.58650  0.89150  Biso   1.000  H
  C114     1.0000 0.34134  0.57270  0.79650  Biso   1.000  C
  O39      1.0000 0.03312  0.54076  0.93230  Biso   1.000  O
  C115     1.0000 0.31310  0.62430  0.71520  Biso   1.000  C
  H77      1.0000 0.30790  0.63190  0.67110  Biso   1.000  H
  O40      1.0000 0.27389  0.69701  0.69630  Biso   1.000  O
  C116     1.0000 0.30510  0.64660  0.76980  Biso   1.000  C
  O41      1.0000 0.28161  0.70239  0.80830  Biso   1.000  O
  C117     1.0000 0.03465  0.60674  0.84900  Biso   1.000  C
  H78      1.0000 0.05810  0.59530  0.86240  Biso   1.000  H
  C118     1.0000 0.35970  0.53552  0.80690  Biso   1.000  C
  C119     1.0000 0.39457  0.53578  0.85010  Biso   1.000  C
  C120     1.0000 0.03591  0.64060  0.80970  Biso   1.000  C
  C121     1.0000 0.12319  0.68510  0.72040  Biso   1.000  C
  H79      1.0000 0.13080  0.68920  0.67600  Biso   1.000  H
  O42      1.0000 0.20407  0.72763  0.81680  Biso   1.000  O
  C122     1.0000 0.08670  0.66820  0.73920  Biso   1.000  C
  H80      1.0000 0.06960  0.66310  0.70400  Biso   1.000  H
  C123     1.0000 0.14583  0.69489  0.77440  Biso   1.000  C
  C124     1.0000 0.33120  0.58640  0.73400  Biso   1.000  C
  H81      1.0000 0.33630  0.56950  0.69850  Biso   1.000  H
  C125     1.0000 0.28520  0.68570  0.76140  Biso   1.000  C
  C126     1.0000 0.18616  0.71566  0.75810  Biso   1.000  C
  H82      1.0000 0.02200  0.69300  0.73400  Biso   1.000  H
  H83      1.0000 0.30600  0.52700  0.72600  Biso   1.000  H
  H84      1.0000 0.41010  0.55780  0.85300  Biso   1.000  H
  Cu8      1.0000 0.74658  0.24542  0.18538  Biso   1.000  Cu
  O43      1.0000 0.69785  0.21952  0.19930  Biso   1.000  O
  O44      1.0000 0.95842  0.03299  0.43400  Biso   1.000  O
  C127     1.0000 0.63460  0.18760  0.34310  Biso   1.000  C
  H85      1.0000 0.65000  0.19450  0.37990  Biso   1.000  H
  C128     1.0000 0.81560  0.13540  0.34580  Biso   1.000  C
  H86      1.0000 0.81170  0.15160  0.38270  Biso   1.000  H
  C129     1.0000 0.57428  0.15893  0.29770  Biso   1.000  C
  C130     1.0000 0.59780  0.16880  0.34890  Biso   1.000  C
  H87      1.0000 0.58920  0.16270  0.39210  Biso   1.000  H
  C131     1.0000 0.83180  0.09650  0.34870  Biso   1.000  C
  H88      1.0000 0.83640  0.08650  0.39150  Biso   1.000  H
  C132     1.0000 0.84134  0.07270  0.29650  Biso   1.000  C
  O45      1.0000 0.53312  0.04076  0.43230  Biso   1.000  O
  C133     1.0000 0.81310  0.12430  0.21520  Biso   1.000  C
  H89      1.0000 0.80790  0.13190  0.17110  Biso   1.000  H
  O46      1.0000 0.77389  0.19701  0.19630  Biso   1.000  O
  C134     1.0000 0.80510  0.14660  0.26980  Biso   1.000  C
  O47      1.0000 0.78161  0.20239  0.30830  Biso   1.000  O
  C135     1.0000 0.53465  0.10674  0.34900  Biso   1.000  C
  H90      1.0000 0.55810  0.09530  0.36240  Biso   1.000  H
  C136     1.0000 0.85970  0.03552  0.30690  Biso   1.000  C
  C137     1.0000 0.89457  0.03578  0.35010  Biso   1.000  C
  C138     1.0000 0.53591  0.14060  0.30970  Biso   1.000  C
  C139     1.0000 0.62319  0.18510  0.22040  Biso   1.000  C
  H91      1.0000 0.63080  0.18920  0.17600  Biso   1.000  H
  O48      1.0000 0.70407  0.22763  0.31680  Biso   1.000  O
  C140     1.0000 0.58670  0.16820  0.23920  Biso   1.000  C
  H92      1.0000 0.56960  0.16310  0.20400  Biso   1.000  H
  C141     1.0000 0.64583  0.19489  0.27440  Biso   1.000  C
  C142     1.0000 0.83120  0.08640  0.23400  Biso   1.000  C
  H93      1.0000 0.83630  0.06950  0.19850  Biso   1.000  H
  C143     1.0000 0.78520  0.18570  0.26140  Biso   1.000  C
  C144     1.0000 0.68616  0.21566  0.25810  Biso   1.000  C
  H94      1.0000 0.52200  0.19300  0.23400  Biso   1.000  H
  H95      1.0000 0.80600  0.02700  0.22600  Biso   1.000  H
  H96      1.0000 0.91010  0.05780  0.35300  Biso   1.000  H
  Cu9      1.0000 0.75342  0.74542  0.68538  Biso   1.000  Cu
  O49      1.0000 0.80215  0.71952  0.69930  Biso   1.000  O
  O50      1.0000 0.54158  0.53299  0.93400  Biso   1.000  O
  C145     1.0000 0.86540  0.68760  0.84310  Biso   1.000  C
  H97      1.0000 0.85000  0.69450  0.87990  Biso   1.000  H
  C146     1.0000 0.68440  0.63540  0.84580  Biso   1.000  C
  H98      1.0000 0.68830  0.65160  0.88270  Biso   1.000  H
  C147     1.0000 0.92572  0.65893  0.79770  Biso   1.000  C
  C148     1.0000 0.90220  0.66880  0.84890  Biso   1.000  C
  H99      1.0000 0.91080  0.66270  0.89210  Biso   1.000  H
  C149     1.0000 0.66820  0.59650  0.84870  Biso   1.000  C
  H100     1.0000 0.66360  0.58650  0.89150  Biso   1.000  H
  C150     1.0000 0.65866  0.57270  0.79650  Biso   1.000  C
  O51      1.0000 0.96688  0.54076  0.93230  Biso   1.000  O
  C151     1.0000 0.68690  0.62430  0.71520  Biso   1.000  C
  H101     1.0000 0.69210  0.63190  0.67110  Biso   1.000  H
  O52      1.0000 0.72611  0.69701  0.69630  Biso   1.000  O
  C152     1.0000 0.69490  0.64660  0.76980  Biso   1.000  C
  O53      1.0000 0.71839  0.70239  0.80830  Biso   1.000  O
  C153     1.0000 0.96535  0.60674  0.84900  Biso   1.000  C
  H102     1.0000 0.94190  0.59530  0.86240  Biso   1.000  H
  C154     1.0000 0.64030  0.53552  0.80690  Biso   1.000  C
  C155     1.0000 0.60543  0.53578  0.85010  Biso   1.000  C
  C156     1.0000 0.96409  0.64060  0.80970  Biso   1.000  C
  C157     1.0000 0.87681  0.68510  0.72040  Biso   1.000  C
  H103     1.0000 0.86920  0.68920  0.67600  Biso   1.000  H
  O54      1.0000 0.79593  0.72763  0.81680  Biso   1.000  O
  C158     1.0000 0.91330  0.66820  0.73920  Biso   1.000  C
  H104     1.0000 0.93040  0.66310  0.70400  Biso   1.000  H
  C159     1.0000 0.85417  0.69489  0.77440  Biso   1.000  C
  C160     1.0000 0.66880  0.58640  0.73400  Biso   1.000  C
  H105     1.0000 0.66370  0.56950  0.69850  Biso   1.000  H
  C161     1.0000 0.71480  0.68570  0.76140  Biso   1.000  C
  C162     1.0000 0.81384  0.71566  0.75810  Biso   1.000  C
  H106     1.0000 0.97800  0.69300  0.73400  Biso   1.000  H
  H107     1.0000 0.69400  0.52700  0.72600  Biso   1.000  H
  H108     1.0000 0.58990  0.55780  0.85300  Biso   1.000  H
  Cu10     1.0000 0.25342  0.24542  0.18538  Biso   1.000  Cu
  O55      1.0000 0.30215  0.21952  0.19930  Biso   1.000  O
  O56      1.0000 0.04158  0.03299  0.43400  Biso   1.000  O
  C163     1.0000 0.36540  0.18760  0.34310  Biso   1.000  C
  H109     1.0000 0.35000  0.19450  0.37990  Biso   1.000  H
  C164     1.0000 0.18440  0.13540  0.34580  Biso   1.000  C
  H110     1.0000 0.18830  0.15160  0.38270  Biso   1.000  H
  C165     1.0000 0.42572  0.15893  0.29770  Biso   1.000  C
  C166     1.0000 0.40220  0.16880  0.34890  Biso   1.000  C
  H111     1.0000 0.41080  0.16270  0.39210  Biso   1.000  H
  C167     1.0000 0.16820  0.09650  0.34870  Biso   1.000  C
  H112     1.0000 0.16360  0.08650  0.39150  Biso   1.000  H
  C168     1.0000 0.15866  0.07270  0.29650  Biso   1.000  C
  O57      1.0000 0.46688  0.04076  0.43230  Biso   1.000  O
  C169     1.0000 0.18690  0.12430  0.21520  Biso   1.000  C
  H113     1.0000 0.19210  0.13190  0.17110  Biso   1.000  H
  O58      1.0000 0.22611  0.19701  0.19630  Biso   1.000  O
  C170     1.0000 0.19490  0.14660  0.26980  Biso   1.000  C
  O59      1.0000 0.21839  0.20239  0.30830  Biso   1.000  O
  C171     1.0000 0.46535  0.10674  0.34900  Biso   1.000  C
  H114     1.0000 0.44190  0.09530  0.36240  Biso   1.000  H
  C172     1.0000 0.14030  0.03552  0.30690  Biso   1.000  C
  C173     1.0000 0.10543  0.03578  0.35010  Biso   1.000  C
  C174     1.0000 0.46409  0.14060  0.30970  Biso   1.000  C
  C175     1.0000 0.37681  0.18510  0.22040  Biso   1.000  C
  H115     1.0000 0.36920  0.18920  0.17600  Biso   1.000  H
  O60      1.0000 0.29593  0.22763  0.31680  Biso   1.000  O
  C176     1.0000 0.41330  0.16820  0.23920  Biso   1.000  C
  H116     1.0000 0.43040  0.16310  0.20400  Biso   1.000  H
  C177     1.0000 0.35417  0.19489  0.27440  Biso   1.000  C
  C178     1.0000 0.16880  0.08640  0.23400  Biso   1.000  C
  H117     1.0000 0.16370  0.06950  0.19850  Biso   1.000  H
  C179     1.0000 0.21480  0.18570  0.26140  Biso   1.000  C
  C180     1.0000 0.31384  0.21566  0.25810  Biso   1.000  C
  H118     1.0000 0.47800  0.19300  0.23400  Biso   1.000  H
  H119     1.0000 0.19400  0.02700  0.22600  Biso   1.000  H
  H120     1.0000 0.08990  0.05780  0.35300  Biso   1.000  H
  Cu11     1.0000 0.24658  0.25458  0.68538  Biso   1.000  Cu
  O61      1.0000 0.19785  0.28048  0.69930  Biso   1.000  O
  O62      1.0000 0.45842  0.46701  0.93400  Biso   1.000  O
  C181     1.0000 0.13460  0.31240  0.84310  Biso   1.000  C
  H121     1.0000 0.15000  0.30550  0.87990  Biso   1.000  H
  C182     1.0000 0.31560  0.36460  0.84580  Biso   1.000  C
  H122     1.0000 0.31170  0.34840  0.88270  Biso   1.000  H
  C183     1.0000 0.07428  0.34107  0.79770  Biso   1.000  C
  C184     1.0000 0.09780  0.33120  0.84890  Biso   1.000  C
  H123     1.0000 0.08920  0.33730  0.89210  Biso   1.000  H
  C185     1.0000 0.33180  0.40350  0.84870  Biso   1.000  C
  H124     1.0000 0.33640  0.41350  0.89150  Biso   1.000  H
  C186     1.0000 0.34134  0.42730  0.79650  Biso   1.000  C
  O63      1.0000 0.03312  0.45924  0.93230  Biso   1.000  O
  C187     1.0000 0.31310  0.37570  0.71520  Biso   1.000  C
  H125     1.0000 0.30790  0.36810  0.67110  Biso   1.000  H
  O64      1.0000 0.27389  0.30299  0.69630  Biso   1.000  O
  C188     1.0000 0.30510  0.35340  0.76980  Biso   1.000  C
  O65      1.0000 0.28161  0.29761  0.80830  Biso   1.000  O
  C189     1.0000 0.03465  0.39326  0.84900  Biso   1.000  C
  H126     1.0000 0.05810  0.40470  0.86240  Biso   1.000  H
  C190     1.0000 0.35970  0.46448  0.80690  Biso   1.000  C
  C191     1.0000 0.39457  0.46422  0.85010  Biso   1.000  C
  C192     1.0000 0.03591  0.35940  0.80970  Biso   1.000  C
  C193     1.0000 0.12319  0.31490  0.72040  Biso   1.000  C
  H127     1.0000 0.13080  0.31080  0.67600  Biso   1.000  H
  O66      1.0000 0.20407  0.27237  0.81680  Biso   1.000  O
  C194     1.0000 0.08670  0.33180  0.73920  Biso   1.000  C
  H128     1.0000 0.06960  0.33690  0.70400  Biso   1.000  H
  C195     1.0000 0.14583  0.30511  0.77440  Biso   1.000  C
  C196     1.0000 0.33120  0.41360  0.73400  Biso   1.000  C
  H129     1.0000 0.33630  0.43050  0.69850  Biso   1.000  H
  C197     1.0000 0.28520  0.31430  0.76140  Biso   1.000  C
  C198     1.0000 0.18616  0.28434  0.75810  Biso   1.000  C
  H130     1.0000 0.02200  0.30700  0.73400  Biso   1.000  H
  H131     1.0000 0.30600  0.47300  0.72600  Biso   1.000  H
  H132     1.0000 0.41010  0.44220  0.85300  Biso   1.000  H
  Cu12     1.0000 0.74658  0.75458  0.18538  Biso   1.000  Cu
  O67      1.0000 0.69785  0.78048  0.19930  Biso   1.000  O
  O68      1.0000 0.95842  0.96701  0.43400  Biso   1.000  O
  C199     1.0000 0.63460  0.81240  0.34310  Biso   1.000  C
  H133     1.0000 0.65000  0.80550  0.37990  Biso   1.000  H
  C200     1.0000 0.81560  0.86460  0.34580  Biso   1.000  C
  H134     1.0000 0.81170  0.84840  0.38270  Biso   1.000  H
  C201     1.0000 0.57428  0.84107  0.29770  Biso   1.000  C
  C202     1.0000 0.59780  0.83120  0.34890  Biso   1.000  C
  H135     1.0000 0.58920  0.83730  0.39210  Biso   1.000  H
  C203     1.0000 0.83180  0.90350  0.34870  Biso   1.000  C
  H136     1.0000 0.83640  0.91350  0.39150  Biso   1.000  H
  C204     1.0000 0.84134  0.92730  0.29650  Biso   1.000  C
  O69      1.0000 0.53312  0.95924  0.43230  Biso   1.000  O
  C205     1.0000 0.81310  0.87570  0.21520  Biso   1.000  C
  H137     1.0000 0.80790  0.86810  0.17110  Biso   1.000  H
  O70      1.0000 0.77389  0.80299  0.19630  Biso   1.000  O
  C206     1.0000 0.80510  0.85340  0.26980  Biso   1.000  C
  O71      1.0000 0.78161  0.79761  0.30830  Biso   1.000  O
  C207     1.0000 0.53465  0.89326  0.34900  Biso   1.000  C
  H138     1.0000 0.55810  0.90470  0.36240  Biso   1.000  H
  C208     1.0000 0.85970  0.96448  0.30690  Biso   1.000  C
  C209     1.0000 0.89457  0.96422  0.35010  Biso   1.000  C
  C210     1.0000 0.53591  0.85940  0.30970  Biso   1.000  C
  C211     1.0000 0.62319  0.81490  0.22040  Biso   1.000  C
  H139     1.0000 0.63080  0.81080  0.17600  Biso   1.000  H
  O72      1.0000 0.70407  0.77237  0.31680  Biso   1.000  O
  C212     1.0000 0.58670  0.83180  0.23920  Biso   1.000  C
  H140     1.0000 0.56960  0.83690  0.20400  Biso   1.000  H
  C213     1.0000 0.64583  0.80511  0.27440  Biso   1.000  C
  C214     1.0000 0.83120  0.91360  0.23400  Biso   1.000  C
  H141     1.0000 0.83630  0.93050  0.19850  Biso   1.000  H
  C215     1.0000 0.78520  0.81430  0.26140  Biso   1.000  C
  C216     1.0000 0.68616  0.78434  0.25810  Biso   1.000  C
  H142     1.0000 0.52200  0.80700  0.23400  Biso   1.000  H
  H143     1.0000 0.80600  0.97300  0.22600  Biso   1.000  H
  H144     1.0000 0.91010  0.94220  0.35300  Biso   1.000  H
  Cu13     1.0000 0.24658  0.74542  0.31462  Biso   1.000  Cu
  O73      1.0000 0.19785  0.71952  0.30070  Biso   1.000  O
  O74      1.0000 0.45842  0.53299  0.06600  Biso   1.000  O
  C217     1.0000 0.13460  0.68760  0.15690  Biso   1.000  C
  H145     1.0000 0.15000  0.69450  0.12010  Biso   1.000  H
  C218     1.0000 0.31560  0.63540  0.15420  Biso   1.000  C
  H146     1.0000 0.31170  0.65160  0.11730  Biso   1.000  H
  C219     1.0000 0.07428  0.65893  0.20230  Biso   1.000  C
  C220     1.0000 0.09780  0.66880  0.15110  Biso   1.000  C
  H147     1.0000 0.08920  0.66270  0.10790  Biso   1.000  H
  C221     1.0000 0.33180  0.59650  0.15130  Biso   1.000  C
  H148     1.0000 0.33640  0.58650  0.10850  Biso   1.000  H
  C222     1.0000 0.34134  0.57270  0.20350  Biso   1.000  C
  O75      1.0000 0.03312  0.54076  0.06770  Biso   1.000  O
  C223     1.0000 0.31310  0.62430  0.28480  Biso   1.000  C
  H149     1.0000 0.30790  0.63190  0.32890  Biso   1.000  H
  O76      1.0000 0.27389  0.69701  0.30370  Biso   1.000  O
  C224     1.0000 0.30510  0.64660  0.23020  Biso   1.000  C
  O77      1.0000 0.28161  0.70239  0.19170  Biso   1.000  O
  C225     1.0000 0.03465  0.60674  0.15100  Biso   1.000  C
  H150     1.0000 0.05810  0.59530  0.13760  Biso   1.000  H
  C226     1.0000 0.35970  0.53552  0.19310  Biso   1.000  C
  C227     1.0000 0.39457  0.53578  0.14990  Biso   1.000  C
  C228     1.0000 0.03591  0.64060  0.19030  Biso   1.000  C
  C229     1.0000 0.12319  0.68510  0.27960  Biso   1.000  C
  H151     1.0000 0.13080  0.68920  0.32400  Biso   1.000  H
  O78      1.0000 0.20407  0.72763  0.18320  Biso   1.000  O
  C230     1.0000 0.08670  0.66820  0.26080  Biso   1.000  C
  H152     1.0000 0.06960  0.66310  0.29600  Biso   1.000  H
  C231     1.0000 0.14583  0.69489  0.22560  Biso   1.000  C
  C232     1.0000 0.33120  0.58640  0.26600  Biso   1.000  C
  H153     1.0000 0.33630  0.56950  0.30150  Biso   1.000  H
  C233     1.0000 0.28520  0.68570  0.23860  Biso   1.000  C
  C234     1.0000 0.18616  0.71566  0.24190  Biso   1.000  C
  H154     1.0000 0.02200  0.69300  0.26600  Biso   1.000  H
  H155     1.0000 0.30600  0.52700  0.27400  Biso   1.000  H
  H156     1.0000 0.41010  0.55780  0.14700  Biso   1.000  H
  Cu14     1.0000 0.74658  0.24542  0.81462  Biso   1.000  Cu
  O79      1.0000 0.69785  0.21952  0.80070  Biso   1.000  O
  O80      1.0000 0.95842  0.03299  0.56600  Biso   1.000  O
  C235     1.0000 0.63460  0.18760  0.65690  Biso   1.000  C
  H157     1.0000 0.65000  0.19450  0.62010  Biso   1.000  H
  C236     1.0000 0.81560  0.13540  0.65420  Biso   1.000  C
  H158     1.0000 0.81170  0.15160  0.61730  Biso   1.000  H
  C237     1.0000 0.57428  0.15893  0.70230  Biso   1.000  C
  C238     1.0000 0.59780  0.16880  0.65110  Biso   1.000  C
  H159     1.0000 0.58920  0.16270  0.60790  Biso   1.000  H
  C239     1.0000 0.83180  0.09650  0.65130  Biso   1.000  C
  H160     1.0000 0.83640  0.08650  0.60850  Biso   1.000  H
  C240     1.0000 0.84134  0.07270  0.70350  Biso   1.000  C
  O81      1.0000 0.53312  0.04076  0.56770  Biso   1.000  O
  C241     1.0000 0.81310  0.12430  0.78480  Biso   1.000  C
  H161     1.0000 0.80790  0.13190  0.82890  Biso   1.000  H
  O82      1.0000 0.77389  0.19701  0.80370  Biso   1.000  O
  C242     1.0000 0.80510  0.14660  0.73020  Biso   1.000  C
  O83      1.0000 0.78161  0.20239  0.69170  Biso   1.000  O
  C243     1.0000 0.53465  0.10674  0.65100  Biso   1.000  C
  H162     1.0000 0.55810  0.09530  0.63760  Biso   1.000  H
  C244     1.0000 0.85970  0.03552  0.69310  Biso   1.000  C
  C245     1.0000 0.89457  0.03578  0.64990  Biso   1.000  C
  C246     1.0000 0.53591  0.14060  0.69030  Biso   1.000  C
  C247     1.0000 0.62319  0.18510  0.77960  Biso   1.000  C
  H163     1.0000 0.63080  0.18920  0.82400  Biso   1.000  H
  O84      1.0000 0.70407  0.22763  0.68320  Biso   1.000  O
  C248     1.0000 0.58670  0.16820  0.76080  Biso   1.000  C
  H164     1.0000 0.56960  0.16310  0.79600  Biso   1.000  H
  C249     1.0000 0.64583  0.19489  0.72560  Biso   1.000  C
  C250     1.0000 0.83120  0.08640  0.76600  Biso   1.000  C
  H165     1.0000 0.83630  0.06950  0.80150  Biso   1.000  H
  C251     1.0000 0.78520  0.18570  0.73860  Biso   1.000  C
  C252     1.0000 0.68616  0.21566  0.74190  Biso   1.000  C
  H166     1.0000 0.52200  0.19300  0.76600  Biso   1.000  H
  H167     1.0000 0.80600  0.02700  0.77400  Biso   1.000  H
  H168     1.0000 0.91010  0.05780  0.64700  Biso   1.000  H
  Cu15     1.0000 0.75342  0.25458  0.31462  Biso   1.000  Cu
  O85      1.0000 0.80215  0.28048  0.30070  Biso   1.000  O
  O86      1.0000 0.54158  0.46701  0.06600  Biso   1.000  O
  C253     1.0000 0.86540  0.31240  0.15690  Biso   1.000  C
  H169     1.0000 0.85000  0.30550  0.12010  Biso   1.000  H
  C254     1.0000 0.68440  0.36460  0.15420  Biso   1.000  C
  H170     1.0000 0.68830  0.34840  0.11730  Biso   1.000  H
  C255     1.0000 0.92572  0.34107  0.20230  Biso   1.000  C
  C256     1.0000 0.90220  0.33120  0.15110  Biso   1.000  C
  H171     1.0000 0.91080  0.33730  0.10790  Biso   1.000  H
  C257     1.0000 0.66820  0.40350  0.15130  Biso   1.000  C
  H172     1.0000 0.66360  0.41350  0.10850  Biso   1.000  H
  C258     1.0000 0.65866  0.42730  0.20350  Biso   1.000  C
  O87      1.0000 0.96688  0.45924  0.06770  Biso   1.000  O
  C259     1.0000 0.68690  0.37570  0.28480  Biso   1.000  C
  H173     1.0000 0.69210  0.36810  0.32890  Biso   1.000  H
  O88      1.0000 0.72611  0.30299  0.30370  Biso   1.000  O
  C260     1.0000 0.69490  0.35340  0.23020  Biso   1.000  C
  O89      1.0000 0.71839  0.29761  0.19170  Biso   1.000  O
  C261     1.0000 0.96535  0.39326  0.15100  Biso   1.000  C
  H174     1.0000 0.94190  0.40470  0.13760  Biso   1.000  H
  C262     1.0000 0.64030  0.46448  0.19310  Biso   1.000  C
  C263     1.0000 0.60543  0.46422  0.14990  Biso   1.000  C
  C264     1.0000 0.96409  0.35940  0.19030  Biso   1.000  C
  C265     1.0000 0.87681  0.31490  0.27960  Biso   1.000  C
  H175     1.0000 0.86920  0.31080  0.32400  Biso   1.000  H
  O90      1.0000 0.79593  0.27237  0.18320  Biso   1.000  O
  C266     1.0000 0.91330  0.33180  0.26080  Biso   1.000  C
  H176     1.0000 0.93040  0.33690  0.29600  Biso   1.000  H
  C267     1.0000 0.85417  0.30511  0.22560  Biso   1.000  C
  C268     1.0000 0.66880  0.41360  0.26600  Biso   1.000  C
  H177     1.0000 0.66370  0.43050  0.30150  Biso   1.000  H
  C269     1.0000 0.71480  0.31430  0.23860  Biso   1.000  C
  C270     1.0000 0.81384  0.28434  0.24190  Biso   1.000  C
  H178     1.0000 0.97800  0.30700  0.26600  Biso   1.000  H
  H179     1.0000 0.69400  0.47300  0.27400  Biso   1.000  H
  H180     1.0000 0.58990  0.44220  0.14700  Biso   1.000  H
  Cu16     1.0000 0.25342  0.75458  0.81462  Biso   1.000  Cu
  O91      1.0000 0.30215  0.78048  0.80070  Biso   1.000  O
  O92      1.0000 0.04158  0.96701  0.56600  Biso   1.000  O
  C271     1.0000 0.36540  0.81240  0.65690  Biso   1.000  C
  H181     1.0000 0.35000  0.80550  0.62010  Biso   1.000  H
  C272     1.0000 0.18440  0.86460  0.65420  Biso   1.000  C
  H182     1.0000 0.18830  0.84840  0.61730  Biso   1.000  H
  C273     1.0000 0.42572  0.84107  0.70230  Biso   1.000  C
  C274     1.0000 0.40220  0.83120  0.65110  Biso   1.000  C
  H183     1.0000 0.41080  0.83730  0.60790  Biso   1.000  H
  C275     1.0000 0.16820  0.90350  0.65130  Biso   1.000  C
  H184     1.0000 0.16360  0.91350  0.60850  Biso   1.000  H
  C276     1.0000 0.15866  0.92730  0.70350  Biso   1.000  C
  O93      1.0000 0.46688  0.95924  0.56770  Biso   1.000  O
  C277     1.0000 0.18690  0.87570  0.78480  Biso   1.000  C
  H185     1.0000 0.19210  0.86810  0.82890  Biso   1.000  H
  O94      1.0000 0.22611  0.80299  0.80370  Biso   1.000  O
  C278     1.0000 0.19490  0.85340  0.73020  Biso   1.000  C
  O95      1.0000 0.21839  0.79761  0.69170  Biso   1.000  O
  C279     1.0000 0.46535  0.89326  0.65100  Biso   1.000  C
  H186     1.0000 0.44190  0.90470  0.63760  Biso   1.000  H
  C280     1.0000 0.14030  0.96448  0.69310  Biso   1.000  C
  C281     1.0000 0.10543  0.96422  0.64990  Biso   1.000  C
  C282     1.0000 0.46409  0.85940  0.69030  Biso   1.000  C
  C283     1.0000 0.37681  0.81490  0.77960  Biso   1.000  C
  H187     1.0000 0.36920  0.81080  0.82400  Biso   1.000  H
  O96      1.0000 0.29593  0.77237  0.68320  Biso   1.000  O
  C284     1.0000 0.41330  0.83180  0.76080  Biso   1.000  C
  H188     1.0000 0.43040  0.83690  0.79600  Biso   1.000  H
  C285     1.0000 0.35417  0.80511  0.72560  Biso   1.000  C
  C286     1.0000 0.16880  0.91360  0.76600  Biso   1.000  C
  H189     1.0000 0.16370  0.93050  0.80150  Biso   1.000  H
  C287     1.0000 0.21480  0.81430  0.73860  Biso   1.000  C
  C288     1.0000 0.31384  0.78434  0.74190  Biso   1.000  C
  H190     1.0000 0.47800  0.80700  0.76600  Biso   1.000  H
  H191     1.0000 0.19400  0.97300  0.77400  Biso   1.000  H
  H192     1.0000 0.08990  0.94220  0.64700  Biso   1.000  H
  Cu17     1.0000 0.03829  0.50000  0.00000  Biso   1.000  Cu
  Cu18     1.0000 0.53829  0.00000  0.50000  Biso   1.000  Cu
  Cu19     1.0000 0.96171  0.50000  0.00000  Biso   1.000  Cu
  Cu20     1.0000 0.46171  0.00000  0.50000  Biso   1.000  Cu
  Cu21     1.0000 0.50000  0.46178  0.00000  Biso   1.000  Cu
  Cu22     1.0000 0.00000  0.96178  0.50000  Biso   1.000  Cu
  Cu23     1.0000 0.50000  0.53822  0.00000  Biso   1.000  Cu
  Cu24     1.0000 0.00000  0.03822  0.50000  Biso   1.000  Cu
  N1       1.0000 0.00000  0.30870  0.24860  Biso   1.000  N
  C289     1.0000 0.00000  0.41030  0.13150  Biso   1.000  C
  C290     1.0000 0.00000  0.34230  0.21340  Biso   1.000  C
  C291     1.0000 0.00000  0.44680  0.08740  Biso   1.000  C
  N2       1.0000 0.50000  0.80870  0.74860  Biso   1.000  N
  C292     1.0000 0.50000  0.91030  0.63150  Biso   1.000  C
  C293     1.0000 0.50000  0.84230  0.71340  Biso   1.000  C
  C294     1.0000 0.50000  0.94680  0.58740  Biso   1.000  C
  N3       1.0000 0.00000  0.69130  0.24860  Biso   1.000  N
  C295     1.0000 0.00000  0.58970  0.13150  Biso   1.000  C
  C296     1.0000 0.00000  0.65770  0.21340  Biso   1.000  C
  C297     1.0000 0.00000  0.55320  0.08740  Biso   1.000  C
  N4       1.0000 0.50000  0.19130  0.74860  Biso   1.000  N
  C298     1.0000 0.50000  0.08970  0.63150  Biso   1.000  C
  C299     1.0000 0.50000  0.15770  0.71340  Biso   1.000  C
  C300     1.0000 0.50000  0.05320  0.58740  Biso   1.000  C
  N5       1.0000 0.00000  0.30870  0.75140  Biso   1.000  N
  C301     1.0000 0.00000  0.41030  0.86850  Biso   1.000  C
  C302     1.0000 0.00000  0.34230  0.78660  Biso   1.000  C
  C303     1.0000 0.00000  0.44680  0.91260  Biso   1.000  C
  N6       1.0000 0.50000  0.80870  0.25140  Biso   1.000  N
  C304     1.0000 0.50000  0.91030  0.36850  Biso   1.000  C
  C305     1.0000 0.50000  0.84230  0.28660  Biso   1.000  C
  C306     1.0000 0.50000  0.94680  0.41260  Biso   1.000  C
  N7       1.0000 0.00000  0.69130  0.75140  Biso   1.000  N
  C307     1.0000 0.00000  0.58970  0.86850  Biso   1.000  C
  C308     1.0000 0.00000  0.65770  0.78660  Biso   1.000  C
  C309     1.0000 0.00000  0.55320  0.91260  Biso   1.000  C
  N8       1.0000 0.50000  0.19130  0.25140  Biso   1.000  N
  C310     1.0000 0.50000  0.08970  0.36850  Biso   1.000  C
  C311     1.0000 0.50000  0.15770  0.28660  Biso   1.000  C
  C312     1.0000 0.50000  0.05320  0.41260  Biso   1.000  C
  N9       1.0000 0.30830  0.50000  0.25200  Biso   1.000  N
  C313     1.0000 0.41160  0.50000  0.13140  Biso   1.000  C
  C314     1.0000 0.34250  0.50000  0.20970  Biso   1.000  C
  C315     1.0000 0.44690  0.50000  0.09060  Biso   1.000  C
  N10      1.0000 0.80830  0.00000  0.75200  Biso   1.000  N
  C316     1.0000 0.91160  0.00000  0.63140  Biso   1.000  C
  C317     1.0000 0.84250  0.00000  0.70970  Biso   1.000  C
  C318     1.0000 0.94690  0.00000  0.59060  Biso   1.000  C
  N11      1.0000 0.69170  0.50000  0.25200  Biso   1.000  N
  C319     1.0000 0.58840  0.50000  0.13140  Biso   1.000  C
  C320     1.0000 0.65750  0.50000  0.20970  Biso   1.000  C
  C321     1.0000 0.55310  0.50000  0.09060  Biso   1.000  C
  N12      1.0000 0.19170  0.00000  0.75200  Biso   1.000  N
  C322     1.0000 0.08840  0.00000  0.63140  Biso   1.000  C
  C323     1.0000 0.15750  0.00000  0.70970  Biso   1.000  C
  C324     1.0000 0.05310  0.00000  0.59060  Biso   1.000  C
  N13      1.0000 0.69170  0.50000  0.74800  Biso   1.000  N
  C325     1.0000 0.58840  0.50000  0.86860  Biso   1.000  C
  C326     1.0000 0.65750  0.50000  0.79030  Biso   1.000  C
  C327     1.0000 0.55310  0.50000  0.90940  Biso   1.000  C
  N14      1.0000 0.19170  0.00000  0.24800  Biso   1.000  N
  C328     1.0000 0.08840  0.00000  0.36860  Biso   1.000  C
  C329     1.0000 0.15750  0.00000  0.29030  Biso   1.000  C
  C330     1.0000 0.05310  0.00000  0.40940  Biso   1.000  C
  N15      1.0000 0.30830  0.50000  0.74800  Biso   1.000  N
  C331     1.0000 0.41160  0.50000  0.86860  Biso   1.000  C
  C332     1.0000 0.34250  0.50000  0.79030  Biso   1.000  C
  C333     1.0000 0.44690  0.50000  0.90940  Biso   1.000  C
  N16      1.0000 0.80830  0.00000  0.24800  Biso   1.000  N
  C334     1.0000 0.91160  0.00000  0.36860  Biso   1.000  C
  C335     1.0000 0.84250  0.00000  0.29030  Biso   1.000  C
  C336     1.0000 0.94690  0.00000  0.40940  Biso   1.000  C
