data_image0
_cell_length_a       22.261
_cell_length_b       22.261
_cell_length_c       32.92
_cell_angle_alpha    90
_cell_angle_beta     90
_cell_angle_gamma    90

_symmetry_space_group_name_H-M    "P 1"
_symmetry_int_tables_number       1

loop_
  _symmetry_equiv_pos_as_xyz
  'x, y, z'

loop_
  _atom_site_label
  _atom_site_occupancy
  _atom_site_fract_x
  _atom_site_fract_y
  _atom_site_fract_z
  _atom_site_thermal_displace_type
  _atom_site_B_iso_or_equiv
  _atom_site_type_symbol
  Cd1      1.0000 0.83590  0.38553  0.25245  Biso   1.000  Cd
  Cd2      1.0000 0.33691  0.36036  0.10486  Biso   1.000  Cd
  O1       1.0000 0.87490  0.41730  0.19016  Biso   1.000  O
  O2       1.0000 0.88560  0.31900  0.18769  Biso   1.000  O
  O3       1.0000 0.97486  0.20676  0.03006  Biso   1.000  O
  O4       1.0000 0.89703  0.20737  0.07266  Biso   1.000  O
  N1       1.0000 0.42480  0.34570  0.07339  Biso   1.000  N
  N2       1.0000 0.52360  0.33280  0.06757  Biso   1.000  N
  N3       1.0000 0.74650  0.38280  0.21344  Biso   1.000  N
  N4       1.0000 0.69010  0.36450  0.15955  Biso   1.000  N
  N5       1.0000 0.25660  0.38730  0.14521  Biso   1.000  N
  N6       1.0000 0.19940  0.39060  0.20053  Biso   1.000  N
  N7       1.0000 0.02560  0.39200  0.28872  Biso   1.000  N
  N8       1.0000 0.19940  0.26920  0.32176  Biso   1.000  N
  N9       1.0000 0.26850  0.20750  0.34555  Biso   1.000  N
  N10      1.0000 0.92810  0.40060  0.28020  Biso   1.000  N
  C1       1.0000 0.69900  0.29390  0.10290  Biso   1.000  C
  H1       1.0000 0.73800  0.28450  0.11080  Biso   1.000  H
  C2       1.0000 0.71140  0.43170  0.20510  Biso   1.000  C
  H2       1.0000 0.71160  0.46730  0.21990  Biso   1.000  H
  C3       1.0000 0.67370  0.26610  0.06920  Biso   1.000  C
  N11      1.0000 0.70950  0.22340  0.04703  Biso   1.000  N
  C4       1.0000 0.66640  0.33520  0.12476  Biso   1.000  C
  C5       1.0000 0.67650  0.42080  0.17230  Biso   1.000  C
  H3       1.0000 0.64860  0.44690  0.16080  Biso   1.000  H
  C6       1.0000 0.73160  0.34280  0.18520  Biso   1.000  C
  H4       1.0000 0.74810  0.30450  0.18330  Biso   1.000  H
  C7       1.0000 0.60750  0.34990  0.11200  Biso   1.000  C
  H5       1.0000 0.58540  0.37910  0.12560  Biso   1.000  H
  C8       1.0000 0.58380  0.32060  0.07930  Biso   1.000  C
  C9       1.0000 0.61710  0.27720  0.05830  Biso   1.000  C
  H6       1.0000 0.59980  0.25630  0.03680  Biso   1.000  H
  C10      1.0000 0.47810  0.34250  0.09150  Biso   1.000  C
  H7       1.0000 0.48260  0.34690  0.11950  Biso   1.000  H
  C11      1.0000 0.95180  0.22080  0.06380  Biso   1.000  C
  C12      1.0000 0.19830  0.33250  0.26126  Biso   1.000  C
  H8       1.0000 0.23650  0.31850  0.25490  Biso   1.000  H
  C13      1.0000 0.08590  0.37310  0.28142  Biso   1.000  C
  C14      1.0000 0.11390  0.33210  0.30590  Biso   1.000  C
  H9       1.0000 0.09480  0.31750  0.32900  Biso   1.000  H
  C15      1.0000 0.97930  0.38660  0.26426  Biso   1.000  C
  H10      1.0000 0.98300  0.37370  0.23750  Biso   1.000  H
  C16      1.0000 0.11340  0.39430  0.24620  Biso   1.000  C
  H11      1.0000 0.09420  0.42240  0.22970  Biso   1.000  H
  C17      1.0000 0.17020  0.37250  0.23605  Biso   1.000  C
  C18      1.0000 0.17000  0.31290  0.29620  Biso   1.000  C
  C19      1.0000 0.82690  0.40310  0.10920  Biso   1.000  C
  H12      1.0000 0.80270  0.42410  0.12730  Biso   1.000  H
  C20      1.0000 0.87690  0.37160  0.12466  Biso   1.000  C
  C21      1.0000 0.88100  0.36740  0.17100  Biso   1.000  C
  C22      1.0000 0.81270  0.40440  0.07000  Biso   1.000  C
  H13      1.0000 0.77850  0.42410  0.06070  Biso   1.000  H
  C23      1.0000 0.98920  0.25380  0.09370  Biso   1.000  C
  C24      1.0000 0.91510  0.34140  0.09814  Biso   1.000  C
  C25      1.0000 0.90210  0.34470  0.05653  Biso   1.000  C
  H14      1.0000 0.92790  0.32650  0.03800  Biso   1.000  H
  C26      1.0000 0.97160  0.30860  0.11095  Biso   1.000  C
  C27      1.0000 0.85260  0.37370  0.04270  Biso   1.000  C
  H15      1.0000 0.84440  0.37380  0.01500  Biso   1.000  H
  C28      1.0000 0.04380  0.22920  0.10480  Biso   1.000  C
  H16      1.0000 0.05570  0.19280  0.09360  Biso   1.000  H
  C29      1.0000 0.23250  0.44540  0.15020  Biso   1.000  C
  H17      1.0000 0.24010  0.47770  0.13310  Biso   1.000  H
  C30      1.0000 0.23370  0.35630  0.17560  Biso   1.000  C
  H18      1.0000 0.24040  0.31550  0.17950  Biso   1.000  H
  C31      1.0000 0.25640  0.25100  0.32080  Biso   1.000  C
  H19      1.0000 0.28500  0.26810  0.30380  Biso   1.000  H
  C32      1.0000 0.19810  0.44750  0.18230  Biso   1.000  C
  H20      1.0000 0.17670  0.48070  0.19140  Biso   1.000  H
  C33      1.0000 0.06330  0.31090  0.14890  Biso   1.000  C
  H21      1.0000 0.08850  0.33010  0.16730  Biso   1.000  H
  C34      1.0000 0.08040  0.25710  0.13170  Biso   1.000  C
  H22      1.0000 0.11710  0.23990  0.13860  Biso   1.000  H
  C35      1.0000 0.01060  0.33550  0.13925  Biso   1.000  C
  H23      1.0000 0.99940  0.37140  0.15150  Biso   1.000  H
  C36      1.0000 0.00140  0.40600  0.32550  Biso   1.000  C
  H24      1.0000 0.02210  0.41260  0.34960  Biso   1.000  H
  C37      1.0000 0.50110  0.32860  0.02890  Biso   1.000  C
  H25      1.0000 0.52140  0.32010  0.00490  Biso   1.000  H
  C38      1.0000 0.43790  0.34050  0.03490  Biso   1.000  C
  H26      1.0000 0.41010  0.34400  0.01390  Biso   1.000  H
  C39      1.0000 0.94160  0.40840  0.32000  Biso   1.000  C
  H27      1.0000 0.91360  0.41450  0.34060  Biso   1.000  H
  C40      1.0000 0.21550  0.19400  0.36250  Biso   1.000  C
  H28      1.0000 0.20950  0.16360  0.38140  Biso   1.000  H
  C41      1.0000 0.17240  0.23060  0.34840  Biso   1.000  C
  H29      1.0000 0.13190  0.22980  0.35540  Biso   1.000  H
  N12      1.0000 0.78720  0.17860  0.01968  Biso   1.000  N
  C42      1.0000 0.77020  0.22270  0.04300  Biso   1.000  C
  H30      1.0000 0.79610  0.25010  0.05520  Biso   1.000  H
  C43      1.0000 0.73850  0.14710  0.00960  Biso   1.000  C
  H31      1.0000 0.73810  0.11130  0.99500  Biso   1.000  H
  C44      1.0000 0.68950  0.17600  0.02430  Biso   1.000  C
  H32      1.0000 0.64960  0.16560  0.01970  Biso   1.000  H
  Cd3      1.0000 0.33590  0.88553  0.75245  Biso   1.000  Cd
  Cd4      1.0000 0.83691  0.86036  0.60486  Biso   1.000  Cd
  O5       1.0000 0.37490  0.91730  0.69016  Biso   1.000  O
  O6       1.0000 0.38560  0.81900  0.68769  Biso   1.000  O
  O7       1.0000 0.47486  0.70676  0.53006  Biso   1.000  O
  O8       1.0000 0.39703  0.70737  0.57266  Biso   1.000  O
  N13      1.0000 0.92480  0.84570  0.57339  Biso   1.000  N
  N14      1.0000 0.02360  0.83280  0.56757  Biso   1.000  N
  N15      1.0000 0.24650  0.88280  0.71344  Biso   1.000  N
  N16      1.0000 0.19010  0.86450  0.65955  Biso   1.000  N
  N17      1.0000 0.75660  0.88730  0.64521  Biso   1.000  N
  N18      1.0000 0.69940  0.89060  0.70053  Biso   1.000  N
  N19      1.0000 0.52560  0.89200  0.78872  Biso   1.000  N
  N20      1.0000 0.69940  0.76920  0.82176  Biso   1.000  N
  N21      1.0000 0.76850  0.70750  0.84555  Biso   1.000  N
  N22      1.0000 0.42810  0.90060  0.78020  Biso   1.000  N
  C45      1.0000 0.19900  0.79390  0.60290  Biso   1.000  C
  H33      1.0000 0.23800  0.78450  0.61080  Biso   1.000  H
  C46      1.0000 0.21140  0.93170  0.70510  Biso   1.000  C
  H34      1.0000 0.21160  0.96730  0.71990  Biso   1.000  H
  C47      1.0000 0.17370  0.76610  0.56920  Biso   1.000  C
  N23      1.0000 0.20950  0.72340  0.54703  Biso   1.000  N
  C48      1.0000 0.16640  0.83520  0.62476  Biso   1.000  C
  C49      1.0000 0.17650  0.92080  0.67230  Biso   1.000  C
  H35      1.0000 0.14860  0.94690  0.66080  Biso   1.000  H
  C50      1.0000 0.23160  0.84280  0.68520  Biso   1.000  C
  H36      1.0000 0.24810  0.80450  0.68330  Biso   1.000  H
  C51      1.0000 0.10750  0.84990  0.61200  Biso   1.000  C
  H37      1.0000 0.08540  0.87910  0.62560  Biso   1.000  H
  C52      1.0000 0.08380  0.82060  0.57930  Biso   1.000  C
  C53      1.0000 0.11710  0.77720  0.55830  Biso   1.000  C
  H38      1.0000 0.09980  0.75630  0.53680  Biso   1.000  H
  C54      1.0000 0.97810  0.84250  0.59150  Biso   1.000  C
  H39      1.0000 0.98260  0.84690  0.61950  Biso   1.000  H
  C55      1.0000 0.45180  0.72080  0.56380  Biso   1.000  C
  C56      1.0000 0.69830  0.83250  0.76126  Biso   1.000  C
  H40      1.0000 0.73650  0.81850  0.75490  Biso   1.000  H
  C57      1.0000 0.58590  0.87310  0.78142  Biso   1.000  C
  C58      1.0000 0.61390  0.83210  0.80590  Biso   1.000  C
  H41      1.0000 0.59480  0.81750  0.82900  Biso   1.000  H
  C59      1.0000 0.47930  0.88660  0.76426  Biso   1.000  C
  H42      1.0000 0.48300  0.87370  0.73750  Biso   1.000  H
  C60      1.0000 0.61340  0.89430  0.74620  Biso   1.000  C
  H43      1.0000 0.59420  0.92240  0.72970  Biso   1.000  H
  C61      1.0000 0.67020  0.87250  0.73605  Biso   1.000  C
  C62      1.0000 0.67000  0.81290  0.79620  Biso   1.000  C
  C63      1.0000 0.32690  0.90310  0.60920  Biso   1.000  C
  H44      1.0000 0.30270  0.92410  0.62730  Biso   1.000  H
  C64      1.0000 0.37690  0.87160  0.62466  Biso   1.000  C
  C65      1.0000 0.38100  0.86740  0.67100  Biso   1.000  C
  C66      1.0000 0.31270  0.90440  0.57000  Biso   1.000  C
  H45      1.0000 0.27850  0.92410  0.56070  Biso   1.000  H
  C67      1.0000 0.48920  0.75380  0.59370  Biso   1.000  C
  C68      1.0000 0.41510  0.84140  0.59814  Biso   1.000  C
  C69      1.0000 0.40210  0.84470  0.55653  Biso   1.000  C
  H46      1.0000 0.42790  0.82650  0.53800  Biso   1.000  H
  C70      1.0000 0.47160  0.80860  0.61095  Biso   1.000  C
  C71      1.0000 0.35260  0.87370  0.54270  Biso   1.000  C
  H47      1.0000 0.34440  0.87380  0.51500  Biso   1.000  H
  C72      1.0000 0.54380  0.72920  0.60480  Biso   1.000  C
  H48      1.0000 0.55570  0.69280  0.59360  Biso   1.000  H
  C73      1.0000 0.73250  0.94540  0.65020  Biso   1.000  C
  H49      1.0000 0.74010  0.97770  0.63310  Biso   1.000  H
  C74      1.0000 0.73370  0.85630  0.67560  Biso   1.000  C
  H50      1.0000 0.74040  0.81550  0.67950  Biso   1.000  H
  C75      1.0000 0.75640  0.75100  0.82080  Biso   1.000  C
  H51      1.0000 0.78500  0.76810  0.80380  Biso   1.000  H
  C76      1.0000 0.69810  0.94750  0.68230  Biso   1.000  C
  H52      1.0000 0.67670  0.98070  0.69140  Biso   1.000  H
  C77      1.0000 0.56330  0.81090  0.64890  Biso   1.000  C
  H53      1.0000 0.58850  0.83010  0.66730  Biso   1.000  H
  C78      1.0000 0.58040  0.75710  0.63170  Biso   1.000  C
  H54      1.0000 0.61710  0.73990  0.63860  Biso   1.000  H
  C79      1.0000 0.51060  0.83550  0.63925  Biso   1.000  C
  H55      1.0000 0.49940  0.87140  0.65150  Biso   1.000  H
  C80      1.0000 0.50140  0.90600  0.82550  Biso   1.000  C
  H56      1.0000 0.52210  0.91260  0.84960  Biso   1.000  H
  C81      1.0000 0.00110  0.82860  0.52890  Biso   1.000  C
  H57      1.0000 0.02140  0.82010  0.50490  Biso   1.000  H
  C82      1.0000 0.93790  0.84050  0.53490  Biso   1.000  C
  H58      1.0000 0.91010  0.84400  0.51390  Biso   1.000  H
  C83      1.0000 0.44160  0.90840  0.82000  Biso   1.000  C
  H59      1.0000 0.41360  0.91450  0.84060  Biso   1.000  H
  C84      1.0000 0.71550  0.69400  0.86250  Biso   1.000  C
  H60      1.0000 0.70950  0.66360  0.88140  Biso   1.000  H
  C85      1.0000 0.67240  0.73060  0.84840  Biso   1.000  C
  H61      1.0000 0.63190  0.72980  0.85540  Biso   1.000  H
  N24      1.0000 0.28720  0.67860  0.51968  Biso   1.000  N
  C86      1.0000 0.27020  0.72270  0.54300  Biso   1.000  C
  H62      1.0000 0.29610  0.75010  0.55520  Biso   1.000  H
  C87      1.0000 0.23850  0.64710  0.50960  Biso   1.000  C
  H63      1.0000 0.23810  0.61130  0.49500  Biso   1.000  H
  C88      1.0000 0.18950  0.67600  0.52430  Biso   1.000  C
  H64      1.0000 0.14960  0.66560  0.51970  Biso   1.000  H
  Cd5      1.0000 0.66410  0.11447  0.75245  Biso   1.000  Cd
  Cd6      1.0000 0.16309  0.13964  0.60486  Biso   1.000  Cd
  O9       1.0000 0.62510  0.08270  0.69016  Biso   1.000  O
  O10      1.0000 0.61440  0.18100  0.68769  Biso   1.000  O
  O11      1.0000 0.52514  0.29324  0.53006  Biso   1.000  O
  O12      1.0000 0.60297  0.29263  0.57266  Biso   1.000  O
  N25      1.0000 0.07520  0.15430  0.57339  Biso   1.000  N
  N26      1.0000 0.97640  0.16720  0.56757  Biso   1.000  N
  N27      1.0000 0.75350  0.11720  0.71344  Biso   1.000  N
  N28      1.0000 0.80990  0.13550  0.65955  Biso   1.000  N
  N29      1.0000 0.24340  0.11270  0.64521  Biso   1.000  N
  N30      1.0000 0.30060  0.10940  0.70053  Biso   1.000  N
  N31      1.0000 0.47440  0.10800  0.78872  Biso   1.000  N
  N32      1.0000 0.30060  0.23080  0.82176  Biso   1.000  N
  N33      1.0000 0.23150  0.29250  0.84555  Biso   1.000  N
  N34      1.0000 0.57190  0.09940  0.78020  Biso   1.000  N
  C89      1.0000 0.80100  0.20610  0.60290  Biso   1.000  C
  H65      1.0000 0.76200  0.21550  0.61080  Biso   1.000  H
  C90      1.0000 0.78860  0.06830  0.70510  Biso   1.000  C
  H66      1.0000 0.78840  0.03270  0.71990  Biso   1.000  H
  C91      1.0000 0.82630  0.23390  0.56920  Biso   1.000  C
  N35      1.0000 0.79050  0.27660  0.54703  Biso   1.000  N
  C92      1.0000 0.83360  0.16480  0.62476  Biso   1.000  C
  C93      1.0000 0.82350  0.07920  0.67230  Biso   1.000  C
  H67      1.0000 0.85140  0.05310  0.66080  Biso   1.000  H
  C94      1.0000 0.76840  0.15720  0.68520  Biso   1.000  C
  H68      1.0000 0.75190  0.19550  0.68330  Biso   1.000  H
  C95      1.0000 0.89250  0.15010  0.61200  Biso   1.000  C
  H69      1.0000 0.91460  0.12090  0.62560  Biso   1.000  H
  C96      1.0000 0.91620  0.17940  0.57930  Biso   1.000  C
  C97      1.0000 0.88290  0.22280  0.55830  Biso   1.000  C
  H70      1.0000 0.90020  0.24370  0.53680  Biso   1.000  H
  C98      1.0000 0.02190  0.15750  0.59150  Biso   1.000  C
  H71      1.0000 0.01740  0.15310  0.61950  Biso   1.000  H
  C99      1.0000 0.54820  0.27920  0.56380  Biso   1.000  C
  C100     1.0000 0.30170  0.16750  0.76126  Biso   1.000  C
  H72      1.0000 0.26350  0.18150  0.75490  Biso   1.000  H
  C101     1.0000 0.41410  0.12690  0.78142  Biso   1.000  C
  C102     1.0000 0.38610  0.16790  0.80590  Biso   1.000  C
  H73      1.0000 0.40520  0.18250  0.82900  Biso   1.000  H
  C103     1.0000 0.52070  0.11340  0.76426  Biso   1.000  C
  H74      1.0000 0.51700  0.12630  0.73750  Biso   1.000  H
  C104     1.0000 0.38660  0.10570  0.74620  Biso   1.000  C
  H75      1.0000 0.40580  0.07760  0.72970  Biso   1.000  H
  C105     1.0000 0.32980  0.12750  0.73605  Biso   1.000  C
  C106     1.0000 0.33000  0.18710  0.79620  Biso   1.000  C
  C107     1.0000 0.67310  0.09690  0.60920  Biso   1.000  C
  H76      1.0000 0.69730  0.07590  0.62730  Biso   1.000  H
  C108     1.0000 0.62310  0.12840  0.62466  Biso   1.000  C
  C109     1.0000 0.61900  0.13260  0.67100  Biso   1.000  C
  C110     1.0000 0.68730  0.09560  0.57000  Biso   1.000  C
  H77      1.0000 0.72150  0.07590  0.56070  Biso   1.000  H
  C111     1.0000 0.51080  0.24620  0.59370  Biso   1.000  C
  C112     1.0000 0.58490  0.15860  0.59814  Biso   1.000  C
  C113     1.0000 0.59790  0.15530  0.55653  Biso   1.000  C
  H78      1.0000 0.57210  0.17350  0.53800  Biso   1.000  H
  C114     1.0000 0.52840  0.19140  0.61095  Biso   1.000  C
  C115     1.0000 0.64740  0.12630  0.54270  Biso   1.000  C
  H79      1.0000 0.65560  0.12620  0.51500  Biso   1.000  H
  C116     1.0000 0.45620  0.27080  0.60480  Biso   1.000  C
  H80      1.0000 0.44430  0.30720  0.59360  Biso   1.000  H
  C117     1.0000 0.26750  0.05460  0.65020  Biso   1.000  C
  H81      1.0000 0.25990  0.02230  0.63310  Biso   1.000  H
  C118     1.0000 0.26630  0.14370  0.67560  Biso   1.000  C
  H82      1.0000 0.25960  0.18450  0.67950  Biso   1.000  H
  C119     1.0000 0.24360  0.24900  0.82080  Biso   1.000  C
  H83      1.0000 0.21500  0.23190  0.80380  Biso   1.000  H
  C120     1.0000 0.30190  0.05250  0.68230  Biso   1.000  C
  H84      1.0000 0.32330  0.01930  0.69140  Biso   1.000  H
  C121     1.0000 0.43670  0.18910  0.64890  Biso   1.000  C
  H85      1.0000 0.41150  0.16990  0.66730  Biso   1.000  H
  C122     1.0000 0.41960  0.24290  0.63170  Biso   1.000  C
  H86      1.0000 0.38290  0.26010  0.63860  Biso   1.000  H
  C123     1.0000 0.48940  0.16450  0.63925  Biso   1.000  C
  H87      1.0000 0.50060  0.12860  0.65150  Biso   1.000  H
  C124     1.0000 0.49860  0.09400  0.82550  Biso   1.000  C
  H88      1.0000 0.47790  0.08740  0.84960  Biso   1.000  H
  C125     1.0000 0.99890  0.17140  0.52890  Biso   1.000  C
  H89      1.0000 0.97860  0.17990  0.50490  Biso   1.000  H
  C126     1.0000 0.06210  0.15950  0.53490  Biso   1.000  C
  H90      1.0000 0.08990  0.15600  0.51390  Biso   1.000  H
  C127     1.0000 0.55840  0.09160  0.82000  Biso   1.000  C
  H91      1.0000 0.58640  0.08550  0.84060  Biso   1.000  H
  C128     1.0000 0.28450  0.30600  0.86250  Biso   1.000  C
  H92      1.0000 0.29050  0.33640  0.88140  Biso   1.000  H
  C129     1.0000 0.32760  0.26940  0.84840  Biso   1.000  C
  H93      1.0000 0.36810  0.27020  0.85540  Biso   1.000  H
  N36      1.0000 0.71280  0.32140  0.51968  Biso   1.000  N
  C130     1.0000 0.72980  0.27730  0.54300  Biso   1.000  C
  H94      1.0000 0.70390  0.24990  0.55520  Biso   1.000  H
  C131     1.0000 0.76150  0.35290  0.50960  Biso   1.000  C
  H95      1.0000 0.76190  0.38870  0.49500  Biso   1.000  H
  C132     1.0000 0.81050  0.32400  0.52430  Biso   1.000  C
  H96      1.0000 0.85040  0.33440  0.51970  Biso   1.000  H
  Cd7      1.0000 0.16410  0.61447  0.25245  Biso   1.000  Cd
  Cd8      1.0000 0.66309  0.63964  0.10486  Biso   1.000  Cd
  O13      1.0000 0.12510  0.58270  0.19016  Biso   1.000  O
  O14      1.0000 0.11440  0.68100  0.18769  Biso   1.000  O
  O15      1.0000 0.02514  0.79324  0.03006  Biso   1.000  O
  O16      1.0000 0.10297  0.79263  0.07266  Biso   1.000  O
  N37      1.0000 0.57520  0.65430  0.07339  Biso   1.000  N
  N38      1.0000 0.47640  0.66720  0.06757  Biso   1.000  N
  N39      1.0000 0.25350  0.61720  0.21344  Biso   1.000  N
  N40      1.0000 0.30990  0.63550  0.15955  Biso   1.000  N
  N41      1.0000 0.74340  0.61270  0.14521  Biso   1.000  N
  N42      1.0000 0.80060  0.60940  0.20053  Biso   1.000  N
  N43      1.0000 0.97440  0.60800  0.28872  Biso   1.000  N
  N44      1.0000 0.80060  0.73080  0.32176  Biso   1.000  N
  N45      1.0000 0.73150  0.79250  0.34555  Biso   1.000  N
  N46      1.0000 0.07190  0.59940  0.28020  Biso   1.000  N
  C133     1.0000 0.30100  0.70610  0.10290  Biso   1.000  C
  H97      1.0000 0.26200  0.71550  0.11080  Biso   1.000  H
  C134     1.0000 0.28860  0.56830  0.20510  Biso   1.000  C
  H98      1.0000 0.28840  0.53270  0.21990  Biso   1.000  H
  C135     1.0000 0.32630  0.73390  0.06920  Biso   1.000  C
  N47      1.0000 0.29050  0.77660  0.04703  Biso   1.000  N
  C136     1.0000 0.33360  0.66480  0.12476  Biso   1.000  C
  C137     1.0000 0.32350  0.57920  0.17230  Biso   1.000  C
  H99      1.0000 0.35140  0.55310  0.16080  Biso   1.000  H
  C138     1.0000 0.26840  0.65720  0.18520  Biso   1.000  C
  H100     1.0000 0.25190  0.69550  0.18330  Biso   1.000  H
  C139     1.0000 0.39250  0.65010  0.11200  Biso   1.000  C
  H101     1.0000 0.41460  0.62090  0.12560  Biso   1.000  H
  C140     1.0000 0.41620  0.67940  0.07930  Biso   1.000  C
  C141     1.0000 0.38290  0.72280  0.05830  Biso   1.000  C
  H102     1.0000 0.40020  0.74370  0.03680  Biso   1.000  H
  C142     1.0000 0.52190  0.65750  0.09150  Biso   1.000  C
  H103     1.0000 0.51740  0.65310  0.11950  Biso   1.000  H
  C143     1.0000 0.04820  0.77920  0.06380  Biso   1.000  C
  C144     1.0000 0.80170  0.66750  0.26126  Biso   1.000  C
  H104     1.0000 0.76350  0.68150  0.25490  Biso   1.000  H
  C145     1.0000 0.91410  0.62690  0.28142  Biso   1.000  C
  C146     1.0000 0.88610  0.66790  0.30590  Biso   1.000  C
  H105     1.0000 0.90520  0.68250  0.32900  Biso   1.000  H
  C147     1.0000 0.02070  0.61340  0.26426  Biso   1.000  C
  H106     1.0000 0.01700  0.62630  0.23750  Biso   1.000  H
  C148     1.0000 0.88660  0.60570  0.24620  Biso   1.000  C
  H107     1.0000 0.90580  0.57760  0.22970  Biso   1.000  H
  C149     1.0000 0.82980  0.62750  0.23605  Biso   1.000  C
  C150     1.0000 0.83000  0.68710  0.29620  Biso   1.000  C
  C151     1.0000 0.17310  0.59690  0.10920  Biso   1.000  C
  H108     1.0000 0.19730  0.57590  0.12730  Biso   1.000  H
  C152     1.0000 0.12310  0.62840  0.12466  Biso   1.000  C
  C153     1.0000 0.11900  0.63260  0.17100  Biso   1.000  C
  C154     1.0000 0.18730  0.59560  0.07000  Biso   1.000  C
  H109     1.0000 0.22150  0.57590  0.06070  Biso   1.000  H
  C155     1.0000 0.01080  0.74620  0.09370  Biso   1.000  C
  C156     1.0000 0.08490  0.65860  0.09814  Biso   1.000  C
  C157     1.0000 0.09790  0.65530  0.05653  Biso   1.000  C
  H110     1.0000 0.07210  0.67350  0.03800  Biso   1.000  H
  C158     1.0000 0.02840  0.69140  0.11095  Biso   1.000  C
  C159     1.0000 0.14740  0.62630  0.04270  Biso   1.000  C
  H111     1.0000 0.15560  0.62620  0.01500  Biso   1.000  H
  C160     1.0000 0.95620  0.77080  0.10480  Biso   1.000  C
  H112     1.0000 0.94430  0.80720  0.09360  Biso   1.000  H
  C161     1.0000 0.76750  0.55460  0.15020  Biso   1.000  C
  H113     1.0000 0.75990  0.52230  0.13310  Biso   1.000  H
  C162     1.0000 0.76630  0.64370  0.17560  Biso   1.000  C
  H114     1.0000 0.75960  0.68450  0.17950  Biso   1.000  H
  C163     1.0000 0.74360  0.74900  0.32080  Biso   1.000  C
  H115     1.0000 0.71500  0.73190  0.30380  Biso   1.000  H
  C164     1.0000 0.80190  0.55250  0.18230  Biso   1.000  C
  H116     1.0000 0.82330  0.51930  0.19140  Biso   1.000  H
  C165     1.0000 0.93670  0.68910  0.14890  Biso   1.000  C
  H117     1.0000 0.91150  0.66990  0.16730  Biso   1.000  H
  C166     1.0000 0.91960  0.74290  0.13170  Biso   1.000  C
  H118     1.0000 0.88290  0.76010  0.13860  Biso   1.000  H
  C167     1.0000 0.98940  0.66450  0.13925  Biso   1.000  C
  H119     1.0000 0.00060  0.62860  0.15150  Biso   1.000  H
  C168     1.0000 0.99860  0.59400  0.32550  Biso   1.000  C
  H120     1.0000 0.97790  0.58740  0.34960  Biso   1.000  H
  C169     1.0000 0.49890  0.67140  0.02890  Biso   1.000  C
  H121     1.0000 0.47860  0.67990  0.00490  Biso   1.000  H
  C170     1.0000 0.56210  0.65950  0.03490  Biso   1.000  C
  H122     1.0000 0.58990  0.65600  0.01390  Biso   1.000  H
  C171     1.0000 0.05840  0.59160  0.32000  Biso   1.000  C
  H123     1.0000 0.08640  0.58550  0.34060  Biso   1.000  H
  C172     1.0000 0.78450  0.80600  0.36250  Biso   1.000  C
  H124     1.0000 0.79050  0.83640  0.38140  Biso   1.000  H
  C173     1.0000 0.82760  0.76940  0.34840  Biso   1.000  C
  H125     1.0000 0.86810  0.77020  0.35540  Biso   1.000  H
  N48      1.0000 0.21280  0.82140  0.01968  Biso   1.000  N
  C174     1.0000 0.22980  0.77730  0.04300  Biso   1.000  C
  H126     1.0000 0.20390  0.74990  0.05520  Biso   1.000  H
  C175     1.0000 0.26150  0.85290  0.00960  Biso   1.000  C
  H127     1.0000 0.26190  0.88870  0.99500  Biso   1.000  H
  C176     1.0000 0.31050  0.82400  0.02430  Biso   1.000  C
  H128     1.0000 0.35040  0.83440  0.01970  Biso   1.000  H
  Cd9      1.0000 0.61447  0.33590  0.50245  Biso   1.000  Cd
  Cd10     1.0000 0.63964  0.83691  0.35486  Biso   1.000  Cd
  O17      1.0000 0.58270  0.37490  0.44016  Biso   1.000  O
  O18      1.0000 0.68100  0.38560  0.43769  Biso   1.000  O
  O19      1.0000 0.79324  0.47486  0.28006  Biso   1.000  O
  O20      1.0000 0.79263  0.39703  0.32266  Biso   1.000  O
  N49      1.0000 0.65430  0.92480  0.32339  Biso   1.000  N
  N50      1.0000 0.66720  0.02360  0.31757  Biso   1.000  N
  N51      1.0000 0.61720  0.24650  0.46344  Biso   1.000  N
  N52      1.0000 0.63550  0.19010  0.40955  Biso   1.000  N
  N53      1.0000 0.61270  0.75660  0.39521  Biso   1.000  N
  N54      1.0000 0.60940  0.69940  0.45053  Biso   1.000  N
  N55      1.0000 0.60800  0.52560  0.53872  Biso   1.000  N
  N56      1.0000 0.73080  0.69940  0.57176  Biso   1.000  N
  N57      1.0000 0.79250  0.76850  0.59555  Biso   1.000  N
  N58      1.0000 0.59940  0.42810  0.53020  Biso   1.000  N
  C177     1.0000 0.70610  0.19900  0.35290  Biso   1.000  C
  H129     1.0000 0.71550  0.23800  0.36080  Biso   1.000  H
  C178     1.0000 0.56830  0.21140  0.45510  Biso   1.000  C
  H130     1.0000 0.53270  0.21160  0.46990  Biso   1.000  H
  C179     1.0000 0.73390  0.17370  0.31920  Biso   1.000  C
  N59      1.0000 0.77660  0.20950  0.29703  Biso   1.000  N
  C180     1.0000 0.66480  0.16640  0.37476  Biso   1.000  C
  C181     1.0000 0.57920  0.17650  0.42230  Biso   1.000  C
  H131     1.0000 0.55310  0.14860  0.41080  Biso   1.000  H
  C182     1.0000 0.65720  0.23160  0.43520  Biso   1.000  C
  H132     1.0000 0.69550  0.24810  0.43330  Biso   1.000  H
  C183     1.0000 0.65010  0.10750  0.36200  Biso   1.000  C
  H133     1.0000 0.62090  0.08540  0.37560  Biso   1.000  H
  C184     1.0000 0.67940  0.08380  0.32930  Biso   1.000  C
  C185     1.0000 0.72280  0.11710  0.30830  Biso   1.000  C
  H134     1.0000 0.74370  0.09980  0.28680  Biso   1.000  H
  C186     1.0000 0.65750  0.97810  0.34150  Biso   1.000  C
  H135     1.0000 0.65310  0.98260  0.36950  Biso   1.000  H
  C187     1.0000 0.77920  0.45180  0.31380  Biso   1.000  C
  C188     1.0000 0.66750  0.69830  0.51126  Biso   1.000  C
  H136     1.0000 0.68150  0.73650  0.50490  Biso   1.000  H
  C189     1.0000 0.62690  0.58590  0.53142  Biso   1.000  C
  C190     1.0000 0.66790  0.61390  0.55590  Biso   1.000  C
  H137     1.0000 0.68250  0.59480  0.57900  Biso   1.000  H
  C191     1.0000 0.61340  0.47930  0.51426  Biso   1.000  C
  H138     1.0000 0.62630  0.48300  0.48750  Biso   1.000  H
  C192     1.0000 0.60570  0.61340  0.49620  Biso   1.000  C
  H139     1.0000 0.57760  0.59420  0.47970  Biso   1.000  H
  C193     1.0000 0.62750  0.67020  0.48605  Biso   1.000  C
  C194     1.0000 0.68710  0.67000  0.54620  Biso   1.000  C
  C195     1.0000 0.59690  0.32690  0.35920  Biso   1.000  C
  H140     1.0000 0.57590  0.30270  0.37730  Biso   1.000  H
  C196     1.0000 0.62840  0.37690  0.37466  Biso   1.000  C
  C197     1.0000 0.63260  0.38100  0.42100  Biso   1.000  C
  C198     1.0000 0.59560  0.31270  0.32000  Biso   1.000  C
  H141     1.0000 0.57590  0.27850  0.31070  Biso   1.000  H
  C199     1.0000 0.74620  0.48920  0.34370  Biso   1.000  C
  C200     1.0000 0.65860  0.41510  0.34814  Biso   1.000  C
  C201     1.0000 0.65530  0.40210  0.30653  Biso   1.000  C
  H142     1.0000 0.67350  0.42790  0.28800  Biso   1.000  H
  C202     1.0000 0.69140  0.47160  0.36095  Biso   1.000  C
  C203     1.0000 0.62630  0.35260  0.29270  Biso   1.000  C
  H143     1.0000 0.62620  0.34440  0.26500  Biso   1.000  H
  C204     1.0000 0.77080  0.54380  0.35480  Biso   1.000  C
  H144     1.0000 0.80720  0.55570  0.34360  Biso   1.000  H
  C205     1.0000 0.55460  0.73250  0.40020  Biso   1.000  C
  H145     1.0000 0.52230  0.74010  0.38310  Biso   1.000  H
  C206     1.0000 0.64370  0.73370  0.42560  Biso   1.000  C
  H146     1.0000 0.68450  0.74040  0.42950  Biso   1.000  H
  C207     1.0000 0.74900  0.75640  0.57080  Biso   1.000  C
  H147     1.0000 0.73190  0.78500  0.55380  Biso   1.000  H
  C208     1.0000 0.55250  0.69810  0.43230  Biso   1.000  C
  H148     1.0000 0.51930  0.67670  0.44140  Biso   1.000  H
  C209     1.0000 0.68910  0.56330  0.39890  Biso   1.000  C
  H149     1.0000 0.66990  0.58850  0.41730  Biso   1.000  H
  C210     1.0000 0.74290  0.58040  0.38170  Biso   1.000  C
  H150     1.0000 0.76010  0.61710  0.38860  Biso   1.000  H
  C211     1.0000 0.66450  0.51060  0.38925  Biso   1.000  C
  H151     1.0000 0.62860  0.49940  0.40150  Biso   1.000  H
  C212     1.0000 0.59400  0.50140  0.57550  Biso   1.000  C
  H152     1.0000 0.58740  0.52210  0.59960  Biso   1.000  H
  C213     1.0000 0.67140  0.00110  0.27890  Biso   1.000  C
  H153     1.0000 0.67990  0.02140  0.25490  Biso   1.000  H
  C214     1.0000 0.65950  0.93790  0.28490  Biso   1.000  C
  H154     1.0000 0.65600  0.91010  0.26390  Biso   1.000  H
  C215     1.0000 0.59160  0.44160  0.57000  Biso   1.000  C
  H155     1.0000 0.58550  0.41360  0.59060  Biso   1.000  H
  C216     1.0000 0.80600  0.71550  0.61250  Biso   1.000  C
  H156     1.0000 0.83640  0.70950  0.63140  Biso   1.000  H
  C217     1.0000 0.76940  0.67240  0.59840  Biso   1.000  C
  H157     1.0000 0.77020  0.63190  0.60540  Biso   1.000  H
  N60      1.0000 0.82140  0.28720  0.26968  Biso   1.000  N
  C218     1.0000 0.77730  0.27020  0.29300  Biso   1.000  C
  H158     1.0000 0.74990  0.29610  0.30520  Biso   1.000  H
  C219     1.0000 0.85290  0.23850  0.25960  Biso   1.000  C
  H159     1.0000 0.88870  0.23810  0.24500  Biso   1.000  H
  C220     1.0000 0.82400  0.18950  0.27430  Biso   1.000  C
  H160     1.0000 0.83440  0.14960  0.26970  Biso   1.000  H
  Cd11     1.0000 0.11447  0.83590  0.00245  Biso   1.000  Cd
  Cd12     1.0000 0.13964  0.33691  0.85486  Biso   1.000  Cd
  O21      1.0000 0.08270  0.87490  0.94016  Biso   1.000  O
  O22      1.0000 0.18100  0.88560  0.93769  Biso   1.000  O
  O23      1.0000 0.29324  0.97486  0.78006  Biso   1.000  O
  O24      1.0000 0.29263  0.89703  0.82266  Biso   1.000  O
  N61      1.0000 0.15430  0.42480  0.82339  Biso   1.000  N
  N62      1.0000 0.16720  0.52360  0.81757  Biso   1.000  N
  N63      1.0000 0.11720  0.74650  0.96344  Biso   1.000  N
  N64      1.0000 0.13550  0.69010  0.90955  Biso   1.000  N
  N65      1.0000 0.11270  0.25660  0.89521  Biso   1.000  N
  N66      1.0000 0.10940  0.19940  0.95053  Biso   1.000  N
  N67      1.0000 0.10800  0.02560  0.03872  Biso   1.000  N
  N68      1.0000 0.23080  0.19940  0.07176  Biso   1.000  N
  N69      1.0000 0.29250  0.26850  0.09555  Biso   1.000  N
  N70      1.0000 0.09940  0.92810  0.03020  Biso   1.000  N
  C221     1.0000 0.20610  0.69900  0.85290  Biso   1.000  C
  H161     1.0000 0.21550  0.73800  0.86080  Biso   1.000  H
  C222     1.0000 0.06830  0.71140  0.95510  Biso   1.000  C
  H162     1.0000 0.03270  0.71160  0.96990  Biso   1.000  H
  C223     1.0000 0.23390  0.67370  0.81920  Biso   1.000  C
  N71      1.0000 0.27660  0.70950  0.79703  Biso   1.000  N
  C224     1.0000 0.16480  0.66640  0.87476  Biso   1.000  C
  C225     1.0000 0.07920  0.67650  0.92230  Biso   1.000  C
  H163     1.0000 0.05310  0.64860  0.91080  Biso   1.000  H
  C226     1.0000 0.15720  0.73160  0.93520  Biso   1.000  C
  H164     1.0000 0.19550  0.74810  0.93330  Biso   1.000  H
  C227     1.0000 0.15010  0.60750  0.86200  Biso   1.000  C
  H165     1.0000 0.12090  0.58540  0.87560  Biso   1.000  H
  C228     1.0000 0.17940  0.58380  0.82930  Biso   1.000  C
  C229     1.0000 0.22280  0.61710  0.80830  Biso   1.000  C
  H166     1.0000 0.24370  0.59980  0.78680  Biso   1.000  H
  C230     1.0000 0.15750  0.47810  0.84150  Biso   1.000  C
  H167     1.0000 0.15310  0.48260  0.86950  Biso   1.000  H
  C231     1.0000 0.27920  0.95180  0.81380  Biso   1.000  C
  C232     1.0000 0.16750  0.19830  0.01126  Biso   1.000  C
  H168     1.0000 0.18150  0.23650  0.00490  Biso   1.000  H
  C233     1.0000 0.12690  0.08590  0.03142  Biso   1.000  C
  C234     1.0000 0.16790  0.11390  0.05590  Biso   1.000  C
  H169     1.0000 0.18250  0.09480  0.07900  Biso   1.000  H
  C235     1.0000 0.11340  0.97930  0.01426  Biso   1.000  C
  H170     1.0000 0.12630  0.98300  0.98750  Biso   1.000  H
  C236     1.0000 0.10570  0.11340  0.99620  Biso   1.000  C
  H171     1.0000 0.07760  0.09420  0.97970  Biso   1.000  H
  C237     1.0000 0.12750  0.17020  0.98605  Biso   1.000  C
  C238     1.0000 0.18710  0.17000  0.04620  Biso   1.000  C
  C239     1.0000 0.09690  0.82690  0.85920  Biso   1.000  C
  H172     1.0000 0.07590  0.80270  0.87730  Biso   1.000  H
  C240     1.0000 0.12840  0.87690  0.87466  Biso   1.000  C
  C241     1.0000 0.13260  0.88100  0.92100  Biso   1.000  C
  C242     1.0000 0.09560  0.81270  0.82000  Biso   1.000  C
  H173     1.0000 0.07590  0.77850  0.81070  Biso   1.000  H
  C243     1.0000 0.24620  0.98920  0.84370  Biso   1.000  C
  C244     1.0000 0.15860  0.91510  0.84814  Biso   1.000  C
  C245     1.0000 0.15530  0.90210  0.80653  Biso   1.000  C
  H174     1.0000 0.17350  0.92790  0.78800  Biso   1.000  H
  C246     1.0000 0.19140  0.97160  0.86095  Biso   1.000  C
  C247     1.0000 0.12630  0.85260  0.79270  Biso   1.000  C
  H175     1.0000 0.12620  0.84440  0.76500  Biso   1.000  H
  C248     1.0000 0.27080  0.04380  0.85480  Biso   1.000  C
  H176     1.0000 0.30720  0.05570  0.84360  Biso   1.000  H
  C249     1.0000 0.05460  0.23250  0.90020  Biso   1.000  C
  H177     1.0000 0.02230  0.24010  0.88310  Biso   1.000  H
  C250     1.0000 0.14370  0.23370  0.92560  Biso   1.000  C
  H178     1.0000 0.18450  0.24040  0.92950  Biso   1.000  H
  C251     1.0000 0.24900  0.25640  0.07080  Biso   1.000  C
  H179     1.0000 0.23190  0.28500  0.05380  Biso   1.000  H
  C252     1.0000 0.05250  0.19810  0.93230  Biso   1.000  C
  H180     1.0000 0.01930  0.17670  0.94140  Biso   1.000  H
  C253     1.0000 0.18910  0.06330  0.89890  Biso   1.000  C
  H181     1.0000 0.16990  0.08850  0.91730  Biso   1.000  H
  C254     1.0000 0.24290  0.08040  0.88170  Biso   1.000  C
  H182     1.0000 0.26010  0.11710  0.88860  Biso   1.000  H
  C255     1.0000 0.16450  0.01060  0.88925  Biso   1.000  C
  H183     1.0000 0.12860  0.99940  0.90150  Biso   1.000  H
  C256     1.0000 0.09400  0.00140  0.07550  Biso   1.000  C
  H184     1.0000 0.08740  0.02210  0.09960  Biso   1.000  H
  C257     1.0000 0.17140  0.50110  0.77890  Biso   1.000  C
  H185     1.0000 0.17990  0.52140  0.75490  Biso   1.000  H
  C258     1.0000 0.15950  0.43790  0.78490  Biso   1.000  C
  H186     1.0000 0.15600  0.41010  0.76390  Biso   1.000  H
  C259     1.0000 0.09160  0.94160  0.07000  Biso   1.000  C
  H187     1.0000 0.08550  0.91360  0.09060  Biso   1.000  H
  C260     1.0000 0.30600  0.21550  0.11250  Biso   1.000  C
  H188     1.0000 0.33640  0.20950  0.13140  Biso   1.000  H
  C261     1.0000 0.26940  0.17240  0.09840  Biso   1.000  C
  H189     1.0000 0.27020  0.13190  0.10540  Biso   1.000  H
  N72      1.0000 0.32140  0.78720  0.76968  Biso   1.000  N
  C262     1.0000 0.27730  0.77020  0.79300  Biso   1.000  C
  H190     1.0000 0.24990  0.79610  0.80520  Biso   1.000  H
  C263     1.0000 0.35290  0.73850  0.75960  Biso   1.000  C
  H191     1.0000 0.38870  0.73810  0.74500  Biso   1.000  H
  C264     1.0000 0.32400  0.68950  0.77430  Biso   1.000  C
  H192     1.0000 0.33440  0.64960  0.76970  Biso   1.000  H
  Cd13     1.0000 0.88553  0.16410  0.00245  Biso   1.000  Cd
  Cd14     1.0000 0.86036  0.66309  0.85486  Biso   1.000  Cd
  O25      1.0000 0.91730  0.12510  0.94016  Biso   1.000  O
  O26      1.0000 0.81900  0.11440  0.93769  Biso   1.000  O
  O27      1.0000 0.70676  0.02514  0.78006  Biso   1.000  O
  O28      1.0000 0.70737  0.10297  0.82266  Biso   1.000  O
  N73      1.0000 0.84570  0.57520  0.82339  Biso   1.000  N
  N74      1.0000 0.83280  0.47640  0.81757  Biso   1.000  N
  N75      1.0000 0.88280  0.25350  0.96344  Biso   1.000  N
  N76      1.0000 0.86450  0.30990  0.90955  Biso   1.000  N
  N77      1.0000 0.88730  0.74340  0.89521  Biso   1.000  N
  N78      1.0000 0.89060  0.80060  0.95053  Biso   1.000  N
  N79      1.0000 0.89200  0.97440  0.03872  Biso   1.000  N
  N80      1.0000 0.76920  0.80060  0.07176  Biso   1.000  N
  N81      1.0000 0.70750  0.73150  0.09555  Biso   1.000  N
  N82      1.0000 0.90060  0.07190  0.03020  Biso   1.000  N
  C265     1.0000 0.79390  0.30100  0.85290  Biso   1.000  C
  H193     1.0000 0.78450  0.26200  0.86080  Biso   1.000  H
  C266     1.0000 0.93170  0.28860  0.95510  Biso   1.000  C
  H194     1.0000 0.96730  0.28840  0.96990  Biso   1.000  H
  C267     1.0000 0.76610  0.32630  0.81920  Biso   1.000  C
  N83      1.0000 0.72340  0.29050  0.79703  Biso   1.000  N
  C268     1.0000 0.83520  0.33360  0.87476  Biso   1.000  C
  C269     1.0000 0.92080  0.32350  0.92230  Biso   1.000  C
  H195     1.0000 0.94690  0.35140  0.91080  Biso   1.000  H
  C270     1.0000 0.84280  0.26840  0.93520  Biso   1.000  C
  H196     1.0000 0.80450  0.25190  0.93330  Biso   1.000  H
  C271     1.0000 0.84990  0.39250  0.86200  Biso   1.000  C
  H197     1.0000 0.87910  0.41460  0.87560  Biso   1.000  H
  C272     1.0000 0.82060  0.41620  0.82930  Biso   1.000  C
  C273     1.0000 0.77720  0.38290  0.80830  Biso   1.000  C
  H198     1.0000 0.75630  0.40020  0.78680  Biso   1.000  H
  C274     1.0000 0.84250  0.52190  0.84150  Biso   1.000  C
  H199     1.0000 0.84690  0.51740  0.86950  Biso   1.000  H
  C275     1.0000 0.72080  0.04820  0.81380  Biso   1.000  C
  C276     1.0000 0.83250  0.80170  0.01126  Biso   1.000  C
  H200     1.0000 0.81850  0.76350  0.00490  Biso   1.000  H
  C277     1.0000 0.87310  0.91410  0.03142  Biso   1.000  C
  C278     1.0000 0.83210  0.88610  0.05590  Biso   1.000  C
  H201     1.0000 0.81750  0.90520  0.07900  Biso   1.000  H
  C279     1.0000 0.88660  0.02070  0.01426  Biso   1.000  C
  H202     1.0000 0.87370  0.01700  0.98750  Biso   1.000  H
  C280     1.0000 0.89430  0.88660  0.99620  Biso   1.000  C
  H203     1.0000 0.92240  0.90580  0.97970  Biso   1.000  H
  C281     1.0000 0.87250  0.82980  0.98605  Biso   1.000  C
  C282     1.0000 0.81290  0.83000  0.04620  Biso   1.000  C
  C283     1.0000 0.90310  0.17310  0.85920  Biso   1.000  C
  H204     1.0000 0.92410  0.19730  0.87730  Biso   1.000  H
  C284     1.0000 0.87160  0.12310  0.87466  Biso   1.000  C
  C285     1.0000 0.86740  0.11900  0.92100  Biso   1.000  C
  C286     1.0000 0.90440  0.18730  0.82000  Biso   1.000  C
  H205     1.0000 0.92410  0.22150  0.81070  Biso   1.000  H
  C287     1.0000 0.75380  0.01080  0.84370  Biso   1.000  C
  C288     1.0000 0.84140  0.08490  0.84814  Biso   1.000  C
  C289     1.0000 0.84470  0.09790  0.80653  Biso   1.000  C
  H206     1.0000 0.82650  0.07210  0.78800  Biso   1.000  H
  C290     1.0000 0.80860  0.02840  0.86095  Biso   1.000  C
  C291     1.0000 0.87370  0.14740  0.79270  Biso   1.000  C
  H207     1.0000 0.87380  0.15560  0.76500  Biso   1.000  H
  C292     1.0000 0.72920  0.95620  0.85480  Biso   1.000  C
  H208     1.0000 0.69280  0.94430  0.84360  Biso   1.000  H
  C293     1.0000 0.94540  0.76750  0.90020  Biso   1.000  C
  H209     1.0000 0.97770  0.75990  0.88310  Biso   1.000  H
  C294     1.0000 0.85630  0.76630  0.92560  Biso   1.000  C
  H210     1.0000 0.81550  0.75960  0.92950  Biso   1.000  H
  C295     1.0000 0.75100  0.74360  0.07080  Biso   1.000  C
  H211     1.0000 0.76810  0.71500  0.05380  Biso   1.000  H
  C296     1.0000 0.94750  0.80190  0.93230  Biso   1.000  C
  H212     1.0000 0.98070  0.82330  0.94140  Biso   1.000  H
  C297     1.0000 0.81090  0.93670  0.89890  Biso   1.000  C
  H213     1.0000 0.83010  0.91150  0.91730  Biso   1.000  H
  C298     1.0000 0.75710  0.91960  0.88170  Biso   1.000  C
  H214     1.0000 0.73990  0.88290  0.88860  Biso   1.000  H
  C299     1.0000 0.83550  0.98940  0.88925  Biso   1.000  C
  H215     1.0000 0.87140  0.00060  0.90150  Biso   1.000  H
  C300     1.0000 0.90600  0.99860  0.07550  Biso   1.000  C
  H216     1.0000 0.91260  0.97790  0.09960  Biso   1.000  H
  C301     1.0000 0.82860  0.49890  0.77890  Biso   1.000  C
  H217     1.0000 0.82010  0.47860  0.75490  Biso   1.000  H
  C302     1.0000 0.84050  0.56210  0.78490  Biso   1.000  C
  H218     1.0000 0.84400  0.58990  0.76390  Biso   1.000  H
  C303     1.0000 0.90840  0.05840  0.07000  Biso   1.000  C
  H219     1.0000 0.91450  0.08640  0.09060  Biso   1.000  H
  C304     1.0000 0.69400  0.78450  0.11250  Biso   1.000  C
  H220     1.0000 0.66360  0.79050  0.13140  Biso   1.000  H
  C305     1.0000 0.73060  0.82760  0.09840  Biso   1.000  C
  H221     1.0000 0.72980  0.86810  0.10540  Biso   1.000  H
  N84      1.0000 0.67860  0.21280  0.76968  Biso   1.000  N
  C306     1.0000 0.72270  0.22980  0.79300  Biso   1.000  C
  H222     1.0000 0.75010  0.20390  0.80520  Biso   1.000  H
  C307     1.0000 0.64710  0.26150  0.75960  Biso   1.000  C
  H223     1.0000 0.61130  0.26190  0.74500  Biso   1.000  H
  C308     1.0000 0.67600  0.31050  0.77430  Biso   1.000  C
  H224     1.0000 0.66560  0.35040  0.76970  Biso   1.000  H
  Cd15     1.0000 0.38553  0.66410  0.50245  Biso   1.000  Cd
  Cd16     1.0000 0.36036  0.16309  0.35486  Biso   1.000  Cd
  O29      1.0000 0.41730  0.62510  0.44016  Biso   1.000  O
  O30      1.0000 0.31900  0.61440  0.43769  Biso   1.000  O
  O31      1.0000 0.20676  0.52514  0.28006  Biso   1.000  O
  O32      1.0000 0.20737  0.60297  0.32266  Biso   1.000  O
  N85      1.0000 0.34570  0.07520  0.32339  Biso   1.000  N
  N86      1.0000 0.33280  0.97640  0.31757  Biso   1.000  N
  N87      1.0000 0.38280  0.75350  0.46344  Biso   1.000  N
  N88      1.0000 0.36450  0.80990  0.40955  Biso   1.000  N
  N89      1.0000 0.38730  0.24340  0.39521  Biso   1.000  N
  N90      1.0000 0.39060  0.30060  0.45053  Biso   1.000  N
  N91      1.0000 0.39200  0.47440  0.53872  Biso   1.000  N
  N92      1.0000 0.26920  0.30060  0.57176  Biso   1.000  N
  N93      1.0000 0.20750  0.23150  0.59555  Biso   1.000  N
  N94      1.0000 0.40060  0.57190  0.53020  Biso   1.000  N
  C309     1.0000 0.29390  0.80100  0.35290  Biso   1.000  C
  H225     1.0000 0.28450  0.76200  0.36080  Biso   1.000  H
  C310     1.0000 0.43170  0.78860  0.45510  Biso   1.000  C
  H226     1.0000 0.46730  0.78840  0.46990  Biso   1.000  H
  C311     1.0000 0.26610  0.82630  0.31920  Biso   1.000  C
  N95      1.0000 0.22340  0.79050  0.29703  Biso   1.000  N
  C312     1.0000 0.33520  0.83360  0.37476  Biso   1.000  C
  C313     1.0000 0.42080  0.82350  0.42230  Biso   1.000  C
  H227     1.0000 0.44690  0.85140  0.41080  Biso   1.000  H
  C314     1.0000 0.34280  0.76840  0.43520  Biso   1.000  C
  H228     1.0000 0.30450  0.75190  0.43330  Biso   1.000  H
  C315     1.0000 0.34990  0.89250  0.36200  Biso   1.000  C
  H229     1.0000 0.37910  0.91460  0.37560  Biso   1.000  H
  C316     1.0000 0.32060  0.91620  0.32930  Biso   1.000  C
  C317     1.0000 0.27720  0.88290  0.30830  Biso   1.000  C
  H230     1.0000 0.25630  0.90020  0.28680  Biso   1.000  H
  C318     1.0000 0.34250  0.02190  0.34150  Biso   1.000  C
  H231     1.0000 0.34690  0.01740  0.36950  Biso   1.000  H
  C319     1.0000 0.22080  0.54820  0.31380  Biso   1.000  C
  C320     1.0000 0.33250  0.30170  0.51126  Biso   1.000  C
  H232     1.0000 0.31850  0.26350  0.50490  Biso   1.000  H
  C321     1.0000 0.37310  0.41410  0.53142  Biso   1.000  C
  C322     1.0000 0.33210  0.38610  0.55590  Biso   1.000  C
  H233     1.0000 0.31750  0.40520  0.57900  Biso   1.000  H
  C323     1.0000 0.38660  0.52070  0.51426  Biso   1.000  C
  H234     1.0000 0.37370  0.51700  0.48750  Biso   1.000  H
  C324     1.0000 0.39430  0.38660  0.49620  Biso   1.000  C
  H235     1.0000 0.42240  0.40580  0.47970  Biso   1.000  H
  C325     1.0000 0.37250  0.32980  0.48605  Biso   1.000  C
  C326     1.0000 0.31290  0.33000  0.54620  Biso   1.000  C
  C327     1.0000 0.40310  0.67310  0.35920  Biso   1.000  C
  H236     1.0000 0.42410  0.69730  0.37730  Biso   1.000  H
  C328     1.0000 0.37160  0.62310  0.37466  Biso   1.000  C
  C329     1.0000 0.36740  0.61900  0.42100  Biso   1.000  C
  C330     1.0000 0.40440  0.68730  0.32000  Biso   1.000  C
  H237     1.0000 0.42410  0.72150  0.31070  Biso   1.000  H
  C331     1.0000 0.25380  0.51080  0.34370  Biso   1.000  C
  C332     1.0000 0.34140  0.58490  0.34814  Biso   1.000  C
  C333     1.0000 0.34470  0.59790  0.30653  Biso   1.000  C
  H238     1.0000 0.32650  0.57210  0.28800  Biso   1.000  H
  C334     1.0000 0.30860  0.52840  0.36095  Biso   1.000  C
  C335     1.0000 0.37370  0.64740  0.29270  Biso   1.000  C
  H239     1.0000 0.37380  0.65560  0.26500  Biso   1.000  H
  C336     1.0000 0.22920  0.45620  0.35480  Biso   1.000  C
  H240     1.0000 0.19280  0.44430  0.34360  Biso   1.000  H
  C337     1.0000 0.44540  0.26750  0.40020  Biso   1.000  C
  H241     1.0000 0.47770  0.25990  0.38310  Biso   1.000  H
  C338     1.0000 0.35630  0.26630  0.42560  Biso   1.000  C
  H242     1.0000 0.31550  0.25960  0.42950  Biso   1.000  H
  C339     1.0000 0.25100  0.24360  0.57080  Biso   1.000  C
  H243     1.0000 0.26810  0.21500  0.55380  Biso   1.000  H
  C340     1.0000 0.44750  0.30190  0.43230  Biso   1.000  C
  H244     1.0000 0.48070  0.32330  0.44140  Biso   1.000  H
  C341     1.0000 0.31090  0.43670  0.39890  Biso   1.000  C
  H245     1.0000 0.33010  0.41150  0.41730  Biso   1.000  H
  C342     1.0000 0.25710  0.41960  0.38170  Biso   1.000  C
  H246     1.0000 0.23990  0.38290  0.38860  Biso   1.000  H
  C343     1.0000 0.33550  0.48940  0.38925  Biso   1.000  C
  H247     1.0000 0.37140  0.50060  0.40150  Biso   1.000  H
  C344     1.0000 0.40600  0.49860  0.57550  Biso   1.000  C
  H248     1.0000 0.41260  0.47790  0.59960  Biso   1.000  H
  C345     1.0000 0.32860  0.99890  0.27890  Biso   1.000  C
  H249     1.0000 0.32010  0.97860  0.25490  Biso   1.000  H
  C346     1.0000 0.34050  0.06210  0.28490  Biso   1.000  C
  H250     1.0000 0.34400  0.08990  0.26390  Biso   1.000  H
  C347     1.0000 0.40840  0.55840  0.57000  Biso   1.000  C
  H251     1.0000 0.41450  0.58640  0.59060  Biso   1.000  H
  C348     1.0000 0.19400  0.28450  0.61250  Biso   1.000  C
  H252     1.0000 0.16360  0.29050  0.63140  Biso   1.000  H
  C349     1.0000 0.23060  0.32760  0.59840  Biso   1.000  C
  H253     1.0000 0.22980  0.36810  0.60540  Biso   1.000  H
  N96      1.0000 0.17860  0.71280  0.26968  Biso   1.000  N
  C350     1.0000 0.22270  0.72980  0.29300  Biso   1.000  C
  H254     1.0000 0.25010  0.70390  0.30520  Biso   1.000  H
  C351     1.0000 0.14710  0.76150  0.25960  Biso   1.000  C
  H255     1.0000 0.11130  0.76190  0.24500  Biso   1.000  H
  C352     1.0000 0.17600  0.81050  0.27430  Biso   1.000  C
  H256     1.0000 0.16560  0.85040  0.26970  Biso   1.000  H
