data_image0
_cell_length_a       18.777
_cell_length_b       23.3593
_cell_length_c       30.4231
_cell_angle_alpha    90
_cell_angle_beta     90
_cell_angle_gamma    90

_symmetry_space_group_name_H-M    "P 1"
_symmetry_int_tables_number       1

loop_
  _symmetry_equiv_pos_as_xyz
  'x, y, z'

loop_
  _atom_site_label
  _atom_site_occupancy
  _atom_site_fract_x
  _atom_site_fract_y
  _atom_site_fract_z
  _atom_site_thermal_displace_type
  _atom_site_B_iso_or_equiv
  _atom_site_type_symbol
  Cu1      1.0000 0.23583  0.36023  0.12145  Biso   1.000  Cu
  N1       1.0000 0.28780  0.40542  0.16730  Biso   1.000  N
  N2       1.0000 0.43710  0.58827  0.32842  Biso   1.000  N
  N3       1.0000 0.22920  0.27642  0.12170  Biso   1.000  N
  C1       1.0000 0.32660  0.45130  0.15647  Biso   1.000  C
  H1       1.0000 0.33360  0.45900  0.12680  Biso   1.000  H
  C2       1.0000 0.35640  0.48750  0.18631  Biso   1.000  C
  H2       1.0000 0.38220  0.51910  0.17670  Biso   1.000  H
  C3       1.0000 0.28090  0.39510  0.21022  Biso   1.000  C
  H3       1.0000 0.25550  0.36280  0.21870  Biso   1.000  H
  C4       1.0000 0.30900  0.42910  0.24246  Biso   1.000  C
  H4       1.0000 0.30190  0.42000  0.27190  Biso   1.000  H
  C5       1.0000 0.34840  0.47740  0.23094  Biso   1.000  C
  C6       1.0000 0.37950  0.51510  0.26475  Biso   1.000  C
  C7       1.0000 0.40420  0.49460  0.30455  Biso   1.000  C
  H5       1.0000 0.40200  0.45570  0.31070  Biso   1.000  H
  C8       1.0000 0.43210  0.53150  0.33479  Biso   1.000  C
  H6       1.0000 0.44840  0.51660  0.36130  Biso   1.000  H
  C9       1.0000 0.38560  0.57410  0.25745  Biso   1.000  C
  H7       1.0000 0.37090  0.58980  0.23090  Biso   1.000  H
  C10      1.0000 0.41360  0.60850  0.28969  Biso   1.000  C
  H8       1.0000 0.41640  0.64770  0.28450  Biso   1.000  H
  C11      1.0000 0.24990  0.24540  0.08708  Biso   1.000  C
  H9       1.0000 0.26440  0.26440  0.06180  Biso   1.000  H
  C12      1.0000 0.25060  0.18630  0.08723  Biso   1.000  C
  H10      1.0000 0.26510  0.16640  0.06230  Biso   1.000  H
  C13      1.0000 0.20770  0.24760  0.15745  Biso   1.000  C
  H11      1.0000 0.19180  0.26840  0.18160  Biso   1.000  H
  C14      1.0000 0.20790  0.18890  0.15999  Biso   1.000  C
  H12      1.0000 0.19350  0.17090  0.18570  Biso   1.000  H
  C15      1.0000 0.22960  0.15680  0.12447  Biso   1.000  C
  Cu2      1.0000 0.23583  0.86023  0.62145  Biso   1.000  Cu
  N4       1.0000 0.28780  0.90542  0.66730  Biso   1.000  N
  N5       1.0000 0.43710  0.08827  0.82842  Biso   1.000  N
  N6       1.0000 0.22920  0.77642  0.62170  Biso   1.000  N
  C16      1.0000 0.32660  0.95130  0.65647  Biso   1.000  C
  H13      1.0000 0.33360  0.95900  0.62680  Biso   1.000  H
  C17      1.0000 0.35640  0.98750  0.68631  Biso   1.000  C
  H14      1.0000 0.38220  0.01910  0.67670  Biso   1.000  H
  C18      1.0000 0.28090  0.89510  0.71022  Biso   1.000  C
  H15      1.0000 0.25550  0.86280  0.71870  Biso   1.000  H
  C19      1.0000 0.30900  0.92910  0.74246  Biso   1.000  C
  H16      1.0000 0.30190  0.92000  0.77190  Biso   1.000  H
  C20      1.0000 0.34840  0.97740  0.73094  Biso   1.000  C
  C21      1.0000 0.37950  0.01510  0.76475  Biso   1.000  C
  C22      1.0000 0.40420  0.99460  0.80455  Biso   1.000  C
  H17      1.0000 0.40200  0.95570  0.81070  Biso   1.000  H
  C23      1.0000 0.43210  0.03150  0.83479  Biso   1.000  C
  H18      1.0000 0.44840  0.01660  0.86130  Biso   1.000  H
  C24      1.0000 0.38560  0.07410  0.75745  Biso   1.000  C
  H19      1.0000 0.37090  0.08980  0.73090  Biso   1.000  H
  C25      1.0000 0.41360  0.10850  0.78969  Biso   1.000  C
  H20      1.0000 0.41640  0.14770  0.78450  Biso   1.000  H
  C26      1.0000 0.24990  0.74540  0.58708  Biso   1.000  C
  H21      1.0000 0.26440  0.76440  0.56180  Biso   1.000  H
  C27      1.0000 0.25060  0.68630  0.58723  Biso   1.000  C
  H22      1.0000 0.26510  0.66640  0.56230  Biso   1.000  H
  C28      1.0000 0.20770  0.74760  0.65745  Biso   1.000  C
  H23      1.0000 0.19180  0.76840  0.68160  Biso   1.000  H
  C29      1.0000 0.20790  0.68890  0.65999  Biso   1.000  C
  H24      1.0000 0.19350  0.67090  0.68570  Biso   1.000  H
  C30      1.0000 0.22960  0.65680  0.62447  Biso   1.000  C
  Cu3      1.0000 0.73583  0.36023  0.62145  Biso   1.000  Cu
  N7       1.0000 0.78780  0.40542  0.66730  Biso   1.000  N
  N8       1.0000 0.93710  0.58827  0.82842  Biso   1.000  N
  N9       1.0000 0.72920  0.27642  0.62170  Biso   1.000  N
  C31      1.0000 0.82660  0.45130  0.65647  Biso   1.000  C
  H25      1.0000 0.83360  0.45900  0.62680  Biso   1.000  H
  C32      1.0000 0.85640  0.48750  0.68631  Biso   1.000  C
  H26      1.0000 0.88220  0.51910  0.67670  Biso   1.000  H
  C33      1.0000 0.78090  0.39510  0.71022  Biso   1.000  C
  H27      1.0000 0.75550  0.36280  0.71870  Biso   1.000  H
  C34      1.0000 0.80900  0.42910  0.74246  Biso   1.000  C
  H28      1.0000 0.80190  0.42000  0.77190  Biso   1.000  H
  C35      1.0000 0.84840  0.47740  0.73094  Biso   1.000  C
  C36      1.0000 0.87950  0.51510  0.76475  Biso   1.000  C
  C37      1.0000 0.90420  0.49460  0.80455  Biso   1.000  C
  H29      1.0000 0.90200  0.45570  0.81070  Biso   1.000  H
  C38      1.0000 0.93210  0.53150  0.83479  Biso   1.000  C
  H30      1.0000 0.94840  0.51660  0.86130  Biso   1.000  H
  C39      1.0000 0.88560  0.57410  0.75745  Biso   1.000  C
  H31      1.0000 0.87090  0.58980  0.73090  Biso   1.000  H
  C40      1.0000 0.91360  0.60850  0.78969  Biso   1.000  C
  H32      1.0000 0.91640  0.64770  0.78450  Biso   1.000  H
  C41      1.0000 0.74990  0.24540  0.58708  Biso   1.000  C
  H33      1.0000 0.76440  0.26440  0.56180  Biso   1.000  H
  C42      1.0000 0.75060  0.18630  0.58723  Biso   1.000  C
  H34      1.0000 0.76510  0.16640  0.56230  Biso   1.000  H
  C43      1.0000 0.70770  0.24760  0.65745  Biso   1.000  C
  H35      1.0000 0.69180  0.26840  0.68160  Biso   1.000  H
  C44      1.0000 0.70790  0.18890  0.65999  Biso   1.000  C
  H36      1.0000 0.69350  0.17090  0.68570  Biso   1.000  H
  C45      1.0000 0.72960  0.15680  0.62447  Biso   1.000  C
  Cu4      1.0000 0.73583  0.86023  0.12145  Biso   1.000  Cu
  N10      1.0000 0.78780  0.90542  0.16730  Biso   1.000  N
  N11      1.0000 0.93710  0.08827  0.32842  Biso   1.000  N
  N12      1.0000 0.72920  0.77642  0.12170  Biso   1.000  N
  C46      1.0000 0.82660  0.95130  0.15647  Biso   1.000  C
  H37      1.0000 0.83360  0.95900  0.12680  Biso   1.000  H
  C47      1.0000 0.85640  0.98750  0.18631  Biso   1.000  C
  H38      1.0000 0.88220  0.01910  0.17670  Biso   1.000  H
  C48      1.0000 0.78090  0.89510  0.21022  Biso   1.000  C
  H39      1.0000 0.75550  0.86280  0.21870  Biso   1.000  H
  C49      1.0000 0.80900  0.92910  0.24246  Biso   1.000  C
  H40      1.0000 0.80190  0.92000  0.27190  Biso   1.000  H
  C50      1.0000 0.84840  0.97740  0.23094  Biso   1.000  C
  C51      1.0000 0.87950  0.01510  0.26475  Biso   1.000  C
  C52      1.0000 0.90420  0.99460  0.30455  Biso   1.000  C
  H41      1.0000 0.90200  0.95570  0.31070  Biso   1.000  H
  C53      1.0000 0.93210  0.03150  0.33479  Biso   1.000  C
  H42      1.0000 0.94840  0.01660  0.36130  Biso   1.000  H
  C54      1.0000 0.88560  0.07410  0.25745  Biso   1.000  C
  H43      1.0000 0.87090  0.08980  0.23090  Biso   1.000  H
  C55      1.0000 0.91360  0.10850  0.28969  Biso   1.000  C
  H44      1.0000 0.91640  0.14770  0.28450  Biso   1.000  H
  C56      1.0000 0.74990  0.74540  0.08708  Biso   1.000  C
  H45      1.0000 0.76440  0.76440  0.06180  Biso   1.000  H
  C57      1.0000 0.75060  0.68630  0.08723  Biso   1.000  C
  H46      1.0000 0.76510  0.66640  0.06230  Biso   1.000  H
  C58      1.0000 0.70770  0.74760  0.15745  Biso   1.000  C
  H47      1.0000 0.69180  0.76840  0.18160  Biso   1.000  H
  C59      1.0000 0.70790  0.68890  0.15999  Biso   1.000  C
  H48      1.0000 0.69350  0.67090  0.18570  Biso   1.000  H
  C60      1.0000 0.72960  0.65680  0.12447  Biso   1.000  C
  Cu5      1.0000 0.23583  0.38977  0.62855  Biso   1.000  Cu
  N13      1.0000 0.28780  0.34458  0.58270  Biso   1.000  N
  N14      1.0000 0.43710  0.16173  0.42158  Biso   1.000  N
  N15      1.0000 0.22920  0.47358  0.62830  Biso   1.000  N
  C61      1.0000 0.32660  0.29870  0.59353  Biso   1.000  C
  H49      1.0000 0.33360  0.29100  0.62320  Biso   1.000  H
  C62      1.0000 0.35640  0.26250  0.56369  Biso   1.000  C
  H50      1.0000 0.38220  0.23090  0.57330  Biso   1.000  H
  C63      1.0000 0.28090  0.35490  0.53978  Biso   1.000  C
  H51      1.0000 0.25550  0.38720  0.53130  Biso   1.000  H
  C64      1.0000 0.30900  0.32090  0.50754  Biso   1.000  C
  H52      1.0000 0.30190  0.33000  0.47810  Biso   1.000  H
  C65      1.0000 0.34840  0.27260  0.51906  Biso   1.000  C
  C66      1.0000 0.37950  0.23490  0.48525  Biso   1.000  C
  C67      1.0000 0.40420  0.25540  0.44545  Biso   1.000  C
  H53      1.0000 0.40200  0.29430  0.43930  Biso   1.000  H
  C68      1.0000 0.43210  0.21850  0.41521  Biso   1.000  C
  H54      1.0000 0.44840  0.23340  0.38870  Biso   1.000  H
  C69      1.0000 0.38560  0.17590  0.49255  Biso   1.000  C
  H55      1.0000 0.37090  0.16020  0.51910  Biso   1.000  H
  C70      1.0000 0.41360  0.14150  0.46031  Biso   1.000  C
  H56      1.0000 0.41640  0.10230  0.46550  Biso   1.000  H
  C71      1.0000 0.24990  0.50460  0.66292  Biso   1.000  C
  H57      1.0000 0.26440  0.48560  0.68820  Biso   1.000  H
  C72      1.0000 0.25060  0.56370  0.66277  Biso   1.000  C
  H58      1.0000 0.26510  0.58360  0.68770  Biso   1.000  H
  C73      1.0000 0.20770  0.50240  0.59255  Biso   1.000  C
  H59      1.0000 0.19180  0.48160  0.56840  Biso   1.000  H
  C74      1.0000 0.20790  0.56110  0.59001  Biso   1.000  C
  H60      1.0000 0.19350  0.57910  0.56430  Biso   1.000  H
  C75      1.0000 0.22960  0.59320  0.62553  Biso   1.000  C
  Cu6      1.0000 0.23583  0.88977  0.12855  Biso   1.000  Cu
  N16      1.0000 0.28780  0.84458  0.08270  Biso   1.000  N
  N17      1.0000 0.43710  0.66173  0.92158  Biso   1.000  N
  N18      1.0000 0.22920  0.97358  0.12830  Biso   1.000  N
  C76      1.0000 0.32660  0.79870  0.09353  Biso   1.000  C
  H61      1.0000 0.33360  0.79100  0.12320  Biso   1.000  H
  C77      1.0000 0.35640  0.76250  0.06369  Biso   1.000  C
  H62      1.0000 0.38220  0.73090  0.07330  Biso   1.000  H
  C78      1.0000 0.28090  0.85490  0.03978  Biso   1.000  C
  H63      1.0000 0.25550  0.88720  0.03130  Biso   1.000  H
  C79      1.0000 0.30900  0.82090  0.00754  Biso   1.000  C
  H64      1.0000 0.30190  0.83000  0.97810  Biso   1.000  H
  C80      1.0000 0.34840  0.77260  0.01906  Biso   1.000  C
  C81      1.0000 0.37950  0.73490  0.98525  Biso   1.000  C
  C82      1.0000 0.40420  0.75540  0.94545  Biso   1.000  C
  H65      1.0000 0.40200  0.79430  0.93930  Biso   1.000  H
  C83      1.0000 0.43210  0.71850  0.91521  Biso   1.000  C
  H66      1.0000 0.44840  0.73340  0.88870  Biso   1.000  H
  C84      1.0000 0.38560  0.67590  0.99255  Biso   1.000  C
  H67      1.0000 0.37090  0.66020  0.01910  Biso   1.000  H
  C85      1.0000 0.41360  0.64150  0.96031  Biso   1.000  C
  H68      1.0000 0.41640  0.60230  0.96550  Biso   1.000  H
  C86      1.0000 0.24990  0.00460  0.16292  Biso   1.000  C
  H69      1.0000 0.26440  0.98560  0.18820  Biso   1.000  H
  C87      1.0000 0.25060  0.06370  0.16277  Biso   1.000  C
  H70      1.0000 0.26510  0.08360  0.18770  Biso   1.000  H
  C88      1.0000 0.20770  0.00240  0.09255  Biso   1.000  C
  H71      1.0000 0.19180  0.98160  0.06840  Biso   1.000  H
  C89      1.0000 0.20790  0.06110  0.09001  Biso   1.000  C
  H72      1.0000 0.19350  0.07910  0.06430  Biso   1.000  H
  C90      1.0000 0.22960  0.09320  0.12553  Biso   1.000  C
  Cu7      1.0000 0.73583  0.38977  0.12855  Biso   1.000  Cu
  N19      1.0000 0.78780  0.34458  0.08270  Biso   1.000  N
  N20      1.0000 0.93710  0.16173  0.92158  Biso   1.000  N
  N21      1.0000 0.72920  0.47358  0.12830  Biso   1.000  N
  C91      1.0000 0.82660  0.29870  0.09353  Biso   1.000  C
  H73      1.0000 0.83360  0.29100  0.12320  Biso   1.000  H
  C92      1.0000 0.85640  0.26250  0.06369  Biso   1.000  C
  H74      1.0000 0.88220  0.23090  0.07330  Biso   1.000  H
  C93      1.0000 0.78090  0.35490  0.03978  Biso   1.000  C
  H75      1.0000 0.75550  0.38720  0.03130  Biso   1.000  H
  C94      1.0000 0.80900  0.32090  0.00754  Biso   1.000  C
  H76      1.0000 0.80190  0.33000  0.97810  Biso   1.000  H
  C95      1.0000 0.84840  0.27260  0.01906  Biso   1.000  C
  C96      1.0000 0.87950  0.23490  0.98525  Biso   1.000  C
  C97      1.0000 0.90420  0.25540  0.94545  Biso   1.000  C
  H77      1.0000 0.90200  0.29430  0.93930  Biso   1.000  H
  C98      1.0000 0.93210  0.21850  0.91521  Biso   1.000  C
  H78      1.0000 0.94840  0.23340  0.88870  Biso   1.000  H
  C99      1.0000 0.88560  0.17590  0.99255  Biso   1.000  C
  H79      1.0000 0.87090  0.16020  0.01910  Biso   1.000  H
  C100     1.0000 0.91360  0.14150  0.96031  Biso   1.000  C
  H80      1.0000 0.91640  0.10230  0.96550  Biso   1.000  H
  C101     1.0000 0.74990  0.50460  0.16292  Biso   1.000  C
  H81      1.0000 0.76440  0.48560  0.18820  Biso   1.000  H
  C102     1.0000 0.75060  0.56370  0.16277  Biso   1.000  C
  H82      1.0000 0.76510  0.58360  0.18770  Biso   1.000  H
  C103     1.0000 0.70770  0.50240  0.09255  Biso   1.000  C
  H83      1.0000 0.69180  0.48160  0.06840  Biso   1.000  H
  C104     1.0000 0.70790  0.56110  0.09001  Biso   1.000  C
  H84      1.0000 0.69350  0.57910  0.06430  Biso   1.000  H
  C105     1.0000 0.72960  0.59320  0.12553  Biso   1.000  C
  Cu8      1.0000 0.73583  0.88977  0.62855  Biso   1.000  Cu
  N22      1.0000 0.78780  0.84458  0.58270  Biso   1.000  N
  N23      1.0000 0.93710  0.66173  0.42158  Biso   1.000  N
  N24      1.0000 0.72920  0.97358  0.62830  Biso   1.000  N
  C106     1.0000 0.82660  0.79870  0.59353  Biso   1.000  C
  H85      1.0000 0.83360  0.79100  0.62320  Biso   1.000  H
  C107     1.0000 0.85640  0.76250  0.56369  Biso   1.000  C
  H86      1.0000 0.88220  0.73090  0.57330  Biso   1.000  H
  C108     1.0000 0.78090  0.85490  0.53978  Biso   1.000  C
  H87      1.0000 0.75550  0.88720  0.53130  Biso   1.000  H
  C109     1.0000 0.80900  0.82090  0.50754  Biso   1.000  C
  H88      1.0000 0.80190  0.83000  0.47810  Biso   1.000  H
  C110     1.0000 0.84840  0.77260  0.51906  Biso   1.000  C
  C111     1.0000 0.87950  0.73490  0.48525  Biso   1.000  C
  C112     1.0000 0.90420  0.75540  0.44545  Biso   1.000  C
  H89      1.0000 0.90200  0.79430  0.43930  Biso   1.000  H
  C113     1.0000 0.93210  0.71850  0.41521  Biso   1.000  C
  H90      1.0000 0.94840  0.73340  0.38870  Biso   1.000  H
  C114     1.0000 0.88560  0.67590  0.49255  Biso   1.000  C
  H91      1.0000 0.87090  0.66020  0.51910  Biso   1.000  H
  C115     1.0000 0.91360  0.64150  0.46031  Biso   1.000  C
  H92      1.0000 0.91640  0.60230  0.46550  Biso   1.000  H
  C116     1.0000 0.74990  0.00460  0.66292  Biso   1.000  C
  H93      1.0000 0.76440  0.98560  0.68820  Biso   1.000  H
  C117     1.0000 0.75060  0.06370  0.66277  Biso   1.000  C
  H94      1.0000 0.76510  0.08360  0.68770  Biso   1.000  H
  C118     1.0000 0.70770  0.00240  0.59255  Biso   1.000  C
  H95      1.0000 0.69180  0.98160  0.56840  Biso   1.000  H
  C119     1.0000 0.70790  0.06110  0.59001  Biso   1.000  C
  H96      1.0000 0.69350  0.07910  0.56430  Biso   1.000  H
  C120     1.0000 0.72960  0.09320  0.62553  Biso   1.000  C
  Cu9      1.0000 0.48583  0.61023  0.87855  Biso   1.000  Cu
  N25      1.0000 0.53780  0.65542  0.83270  Biso   1.000  N
  N26      1.0000 0.68710  0.83827  0.67158  Biso   1.000  N
  N27      1.0000 0.47920  0.52642  0.87830  Biso   1.000  N
  C121     1.0000 0.57660  0.70130  0.84353  Biso   1.000  C
  H97      1.0000 0.58360  0.70900  0.87320  Biso   1.000  H
  C122     1.0000 0.60640  0.73750  0.81369  Biso   1.000  C
  H98      1.0000 0.63220  0.76910  0.82330  Biso   1.000  H
  C123     1.0000 0.53090  0.64510  0.78978  Biso   1.000  C
  H99      1.0000 0.50550  0.61280  0.78130  Biso   1.000  H
  C124     1.0000 0.55900  0.67910  0.75754  Biso   1.000  C
  H100     1.0000 0.55190  0.67000  0.72810  Biso   1.000  H
  C125     1.0000 0.59840  0.72740  0.76906  Biso   1.000  C
  C126     1.0000 0.62950  0.76510  0.73525  Biso   1.000  C
  C127     1.0000 0.65420  0.74460  0.69545  Biso   1.000  C
  H101     1.0000 0.65200  0.70570  0.68930  Biso   1.000  H
  C128     1.0000 0.68210  0.78150  0.66521  Biso   1.000  C
  H102     1.0000 0.69840  0.76660  0.63870  Biso   1.000  H
  C129     1.0000 0.63560  0.82410  0.74255  Biso   1.000  C
  H103     1.0000 0.62090  0.83980  0.76910  Biso   1.000  H
  C130     1.0000 0.66360  0.85850  0.71031  Biso   1.000  C
  H104     1.0000 0.66640  0.89770  0.71550  Biso   1.000  H
  C131     1.0000 0.49990  0.49540  0.91292  Biso   1.000  C
  H105     1.0000 0.51440  0.51440  0.93820  Biso   1.000  H
  C132     1.0000 0.50060  0.43630  0.91277  Biso   1.000  C
  H106     1.0000 0.51510  0.41640  0.93770  Biso   1.000  H
  C133     1.0000 0.45770  0.49760  0.84255  Biso   1.000  C
  H107     1.0000 0.44180  0.51840  0.81840  Biso   1.000  H
  C134     1.0000 0.45790  0.43890  0.84001  Biso   1.000  C
  H108     1.0000 0.44350  0.42090  0.81430  Biso   1.000  H
  C135     1.0000 0.47960  0.40680  0.87553  Biso   1.000  C
  Cu10     1.0000 0.48583  0.11023  0.37855  Biso   1.000  Cu
  N28      1.0000 0.53780  0.15542  0.33270  Biso   1.000  N
  N29      1.0000 0.68710  0.33827  0.17158  Biso   1.000  N
  N30      1.0000 0.47920  0.02642  0.37830  Biso   1.000  N
  C136     1.0000 0.57660  0.20130  0.34353  Biso   1.000  C
  H109     1.0000 0.58360  0.20900  0.37320  Biso   1.000  H
  C137     1.0000 0.60640  0.23750  0.31369  Biso   1.000  C
  H110     1.0000 0.63220  0.26910  0.32330  Biso   1.000  H
  C138     1.0000 0.53090  0.14510  0.28978  Biso   1.000  C
  H111     1.0000 0.50550  0.11280  0.28130  Biso   1.000  H
  C139     1.0000 0.55900  0.17910  0.25754  Biso   1.000  C
  H112     1.0000 0.55190  0.17000  0.22810  Biso   1.000  H
  C140     1.0000 0.59840  0.22740  0.26906  Biso   1.000  C
  C141     1.0000 0.62950  0.26510  0.23525  Biso   1.000  C
  C142     1.0000 0.65420  0.24460  0.19545  Biso   1.000  C
  H113     1.0000 0.65200  0.20570  0.18930  Biso   1.000  H
  C143     1.0000 0.68210  0.28150  0.16521  Biso   1.000  C
  H114     1.0000 0.69840  0.26660  0.13870  Biso   1.000  H
  C144     1.0000 0.63560  0.32410  0.24255  Biso   1.000  C
  H115     1.0000 0.62090  0.33980  0.26910  Biso   1.000  H
  C145     1.0000 0.66360  0.35850  0.21031  Biso   1.000  C
  H116     1.0000 0.66640  0.39770  0.21550  Biso   1.000  H
  C146     1.0000 0.49990  0.99540  0.41292  Biso   1.000  C
  H117     1.0000 0.51440  0.01440  0.43820  Biso   1.000  H
  C147     1.0000 0.50060  0.93630  0.41277  Biso   1.000  C
  H118     1.0000 0.51510  0.91640  0.43770  Biso   1.000  H
  C148     1.0000 0.45770  0.99760  0.34255  Biso   1.000  C
  H119     1.0000 0.44180  0.01840  0.31840  Biso   1.000  H
  C149     1.0000 0.45790  0.93890  0.34001  Biso   1.000  C
  H120     1.0000 0.44350  0.92090  0.31430  Biso   1.000  H
  C150     1.0000 0.47960  0.90680  0.37553  Biso   1.000  C
  Cu11     1.0000 0.98583  0.61023  0.37855  Biso   1.000  Cu
  N31      1.0000 0.03780  0.65542  0.33270  Biso   1.000  N
  N32      1.0000 0.18710  0.83827  0.17158  Biso   1.000  N
  N33      1.0000 0.97920  0.52642  0.37830  Biso   1.000  N
  C151     1.0000 0.07660  0.70130  0.34353  Biso   1.000  C
  H121     1.0000 0.08360  0.70900  0.37320  Biso   1.000  H
  C152     1.0000 0.10640  0.73750  0.31369  Biso   1.000  C
  H122     1.0000 0.13220  0.76910  0.32330  Biso   1.000  H
  C153     1.0000 0.03090  0.64510  0.28978  Biso   1.000  C
  H123     1.0000 0.00550  0.61280  0.28130  Biso   1.000  H
  C154     1.0000 0.05900  0.67910  0.25754  Biso   1.000  C
  H124     1.0000 0.05190  0.67000  0.22810  Biso   1.000  H
  C155     1.0000 0.09840  0.72740  0.26906  Biso   1.000  C
  C156     1.0000 0.12950  0.76510  0.23525  Biso   1.000  C
  C157     1.0000 0.15420  0.74460  0.19545  Biso   1.000  C
  H125     1.0000 0.15200  0.70570  0.18930  Biso   1.000  H
  C158     1.0000 0.18210  0.78150  0.16521  Biso   1.000  C
  H126     1.0000 0.19840  0.76660  0.13870  Biso   1.000  H
  C159     1.0000 0.13560  0.82410  0.24255  Biso   1.000  C
  H127     1.0000 0.12090  0.83980  0.26910  Biso   1.000  H
  C160     1.0000 0.16360  0.85850  0.21031  Biso   1.000  C
  H128     1.0000 0.16640  0.89770  0.21550  Biso   1.000  H
  C161     1.0000 0.99990  0.49540  0.41292  Biso   1.000  C
  H129     1.0000 0.01440  0.51440  0.43820  Biso   1.000  H
  C162     1.0000 0.00060  0.43630  0.41277  Biso   1.000  C
  H130     1.0000 0.01510  0.41640  0.43770  Biso   1.000  H
  C163     1.0000 0.95770  0.49760  0.34255  Biso   1.000  C
  H131     1.0000 0.94180  0.51840  0.31840  Biso   1.000  H
  C164     1.0000 0.95790  0.43890  0.34001  Biso   1.000  C
  H132     1.0000 0.94350  0.42090  0.31430  Biso   1.000  H
  C165     1.0000 0.97960  0.40680  0.37553  Biso   1.000  C
  Cu12     1.0000 0.98583  0.11023  0.87855  Biso   1.000  Cu
  N34      1.0000 0.03780  0.15542  0.83270  Biso   1.000  N
  N35      1.0000 0.18710  0.33827  0.67158  Biso   1.000  N
  N36      1.0000 0.97920  0.02642  0.87830  Biso   1.000  N
  C166     1.0000 0.07660  0.20130  0.84353  Biso   1.000  C
  H133     1.0000 0.08360  0.20900  0.87320  Biso   1.000  H
  C167     1.0000 0.10640  0.23750  0.81369  Biso   1.000  C
  H134     1.0000 0.13220  0.26910  0.82330  Biso   1.000  H
  C168     1.0000 0.03090  0.14510  0.78978  Biso   1.000  C
  H135     1.0000 0.00550  0.11280  0.78130  Biso   1.000  H
  C169     1.0000 0.05900  0.17910  0.75754  Biso   1.000  C
  H136     1.0000 0.05190  0.17000  0.72810  Biso   1.000  H
  C170     1.0000 0.09840  0.22740  0.76906  Biso   1.000  C
  C171     1.0000 0.12950  0.26510  0.73525  Biso   1.000  C
  C172     1.0000 0.15420  0.24460  0.69545  Biso   1.000  C
  H137     1.0000 0.15200  0.20570  0.68930  Biso   1.000  H
  C173     1.0000 0.18210  0.28150  0.66521  Biso   1.000  C
  H138     1.0000 0.19840  0.26660  0.63870  Biso   1.000  H
  C174     1.0000 0.13560  0.32410  0.74255  Biso   1.000  C
  H139     1.0000 0.12090  0.33980  0.76910  Biso   1.000  H
  C175     1.0000 0.16360  0.35850  0.71031  Biso   1.000  C
  H140     1.0000 0.16640  0.39770  0.71550  Biso   1.000  H
  C176     1.0000 0.99990  0.99540  0.91292  Biso   1.000  C
  H141     1.0000 0.01440  0.01440  0.93820  Biso   1.000  H
  C177     1.0000 0.00060  0.93630  0.91277  Biso   1.000  C
  H142     1.0000 0.01510  0.91640  0.93770  Biso   1.000  H
  C178     1.0000 0.95770  0.99760  0.84255  Biso   1.000  C
  H143     1.0000 0.94180  0.01840  0.81840  Biso   1.000  H
  C179     1.0000 0.95790  0.93890  0.84001  Biso   1.000  C
  H144     1.0000 0.94350  0.92090  0.81430  Biso   1.000  H
  C180     1.0000 0.97960  0.90680  0.87553  Biso   1.000  C
  Cu13     1.0000 0.48583  0.63977  0.37145  Biso   1.000  Cu
  N37      1.0000 0.53780  0.59458  0.41730  Biso   1.000  N
  N38      1.0000 0.68710  0.41173  0.57842  Biso   1.000  N
  N39      1.0000 0.47920  0.72358  0.37170  Biso   1.000  N
  C181     1.0000 0.57660  0.54870  0.40647  Biso   1.000  C
  H145     1.0000 0.58360  0.54100  0.37680  Biso   1.000  H
  C182     1.0000 0.60640  0.51250  0.43631  Biso   1.000  C
  H146     1.0000 0.63220  0.48090  0.42670  Biso   1.000  H
  C183     1.0000 0.53090  0.60490  0.46022  Biso   1.000  C
  H147     1.0000 0.50550  0.63720  0.46870  Biso   1.000  H
  C184     1.0000 0.55900  0.57090  0.49246  Biso   1.000  C
  H148     1.0000 0.55190  0.58000  0.52190  Biso   1.000  H
  C185     1.0000 0.59840  0.52260  0.48094  Biso   1.000  C
  C186     1.0000 0.62950  0.48490  0.51475  Biso   1.000  C
  C187     1.0000 0.65420  0.50540  0.55455  Biso   1.000  C
  H149     1.0000 0.65200  0.54430  0.56070  Biso   1.000  H
  C188     1.0000 0.68210  0.46850  0.58479  Biso   1.000  C
  H150     1.0000 0.69840  0.48340  0.61130  Biso   1.000  H
  C189     1.0000 0.63560  0.42590  0.50745  Biso   1.000  C
  H151     1.0000 0.62090  0.41020  0.48090  Biso   1.000  H
  C190     1.0000 0.66360  0.39150  0.53969  Biso   1.000  C
  H152     1.0000 0.66640  0.35230  0.53450  Biso   1.000  H
  C191     1.0000 0.49990  0.75460  0.33708  Biso   1.000  C
  H153     1.0000 0.51440  0.73560  0.31180  Biso   1.000  H
  C192     1.0000 0.50060  0.81370  0.33723  Biso   1.000  C
  H154     1.0000 0.51510  0.83360  0.31230  Biso   1.000  H
  C193     1.0000 0.45770  0.75240  0.40745  Biso   1.000  C
  H155     1.0000 0.44180  0.73160  0.43160  Biso   1.000  H
  C194     1.0000 0.45790  0.81110  0.40999  Biso   1.000  C
  H156     1.0000 0.44350  0.82910  0.43570  Biso   1.000  H
  C195     1.0000 0.47960  0.84320  0.37447  Biso   1.000  C
  Cu14     1.0000 0.48583  0.13977  0.87145  Biso   1.000  Cu
  N40      1.0000 0.53780  0.09458  0.91730  Biso   1.000  N
  N41      1.0000 0.68710  0.91173  0.07842  Biso   1.000  N
  N42      1.0000 0.47920  0.22358  0.87170  Biso   1.000  N
  C196     1.0000 0.57660  0.04870  0.90647  Biso   1.000  C
  H157     1.0000 0.58360  0.04100  0.87680  Biso   1.000  H
  C197     1.0000 0.60640  0.01250  0.93631  Biso   1.000  C
  H158     1.0000 0.63220  0.98090  0.92670  Biso   1.000  H
  C198     1.0000 0.53090  0.10490  0.96022  Biso   1.000  C
  H159     1.0000 0.50550  0.13720  0.96870  Biso   1.000  H
  C199     1.0000 0.55900  0.07090  0.99246  Biso   1.000  C
  H160     1.0000 0.55190  0.08000  0.02190  Biso   1.000  H
  C200     1.0000 0.59840  0.02260  0.98094  Biso   1.000  C
  C201     1.0000 0.62950  0.98490  0.01475  Biso   1.000  C
  C202     1.0000 0.65420  0.00540  0.05455  Biso   1.000  C
  H161     1.0000 0.65200  0.04430  0.06070  Biso   1.000  H
  C203     1.0000 0.68210  0.96850  0.08479  Biso   1.000  C
  H162     1.0000 0.69840  0.98340  0.11130  Biso   1.000  H
  C204     1.0000 0.63560  0.92590  0.00745  Biso   1.000  C
  H163     1.0000 0.62090  0.91020  0.98090  Biso   1.000  H
  C205     1.0000 0.66360  0.89150  0.03969  Biso   1.000  C
  H164     1.0000 0.66640  0.85230  0.03450  Biso   1.000  H
  C206     1.0000 0.49990  0.25460  0.83708  Biso   1.000  C
  H165     1.0000 0.51440  0.23560  0.81180  Biso   1.000  H
  C207     1.0000 0.50060  0.31370  0.83723  Biso   1.000  C
  H166     1.0000 0.51510  0.33360  0.81230  Biso   1.000  H
  C208     1.0000 0.45770  0.25240  0.90745  Biso   1.000  C
  H167     1.0000 0.44180  0.23160  0.93160  Biso   1.000  H
  C209     1.0000 0.45790  0.31110  0.90999  Biso   1.000  C
  H168     1.0000 0.44350  0.32910  0.93570  Biso   1.000  H
  C210     1.0000 0.47960  0.34320  0.87447  Biso   1.000  C
  Cu15     1.0000 0.98583  0.63977  0.87145  Biso   1.000  Cu
  N43      1.0000 0.03780  0.59458  0.91730  Biso   1.000  N
  N44      1.0000 0.18710  0.41173  0.07842  Biso   1.000  N
  N45      1.0000 0.97920  0.72358  0.87170  Biso   1.000  N
  C211     1.0000 0.07660  0.54870  0.90647  Biso   1.000  C
  H169     1.0000 0.08360  0.54100  0.87680  Biso   1.000  H
  C212     1.0000 0.10640  0.51250  0.93631  Biso   1.000  C
  H170     1.0000 0.13220  0.48090  0.92670  Biso   1.000  H
  C213     1.0000 0.03090  0.60490  0.96022  Biso   1.000  C
  H171     1.0000 0.00550  0.63720  0.96870  Biso   1.000  H
  C214     1.0000 0.05900  0.57090  0.99246  Biso   1.000  C
  H172     1.0000 0.05190  0.58000  0.02190  Biso   1.000  H
  C215     1.0000 0.09840  0.52260  0.98094  Biso   1.000  C
  C216     1.0000 0.12950  0.48490  0.01475  Biso   1.000  C
  C217     1.0000 0.15420  0.50540  0.05455  Biso   1.000  C
  H173     1.0000 0.15200  0.54430  0.06070  Biso   1.000  H
  C218     1.0000 0.18210  0.46850  0.08479  Biso   1.000  C
  H174     1.0000 0.19840  0.48340  0.11130  Biso   1.000  H
  C219     1.0000 0.13560  0.42590  0.00745  Biso   1.000  C
  H175     1.0000 0.12090  0.41020  0.98090  Biso   1.000  H
  C220     1.0000 0.16360  0.39150  0.03969  Biso   1.000  C
  H176     1.0000 0.16640  0.35230  0.03450  Biso   1.000  H
  C221     1.0000 0.99990  0.75460  0.83708  Biso   1.000  C
  H177     1.0000 0.01440  0.73560  0.81180  Biso   1.000  H
  C222     1.0000 0.00060  0.81370  0.83723  Biso   1.000  C
  H178     1.0000 0.01510  0.83360  0.81230  Biso   1.000  H
  C223     1.0000 0.95770  0.75240  0.90745  Biso   1.000  C
  H179     1.0000 0.94180  0.73160  0.93160  Biso   1.000  H
  C224     1.0000 0.95790  0.81110  0.90999  Biso   1.000  C
  H180     1.0000 0.94350  0.82910  0.93570  Biso   1.000  H
  C225     1.0000 0.97960  0.84320  0.87447  Biso   1.000  C
  Cu16     1.0000 0.98583  0.13977  0.37145  Biso   1.000  Cu
  N46      1.0000 0.03780  0.09458  0.41730  Biso   1.000  N
  N47      1.0000 0.18710  0.91173  0.57842  Biso   1.000  N
  N48      1.0000 0.97920  0.22358  0.37170  Biso   1.000  N
  C226     1.0000 0.07660  0.04870  0.40647  Biso   1.000  C
  H181     1.0000 0.08360  0.04100  0.37680  Biso   1.000  H
  C227     1.0000 0.10640  0.01250  0.43631  Biso   1.000  C
  H182     1.0000 0.13220  0.98090  0.42670  Biso   1.000  H
  C228     1.0000 0.03090  0.10490  0.46022  Biso   1.000  C
  H183     1.0000 0.00550  0.13720  0.46870  Biso   1.000  H
  C229     1.0000 0.05900  0.07090  0.49246  Biso   1.000  C
  H184     1.0000 0.05190  0.08000  0.52190  Biso   1.000  H
  C230     1.0000 0.09840  0.02260  0.48094  Biso   1.000  C
  C231     1.0000 0.12950  0.98490  0.51475  Biso   1.000  C
  C232     1.0000 0.15420  0.00540  0.55455  Biso   1.000  C
  H185     1.0000 0.15200  0.04430  0.56070  Biso   1.000  H
  C233     1.0000 0.18210  0.96850  0.58479  Biso   1.000  C
  H186     1.0000 0.19840  0.98340  0.61130  Biso   1.000  H
  C234     1.0000 0.13560  0.92590  0.50745  Biso   1.000  C
  H187     1.0000 0.12090  0.91020  0.48090  Biso   1.000  H
  C235     1.0000 0.16360  0.89150  0.53969  Biso   1.000  C
  H188     1.0000 0.16640  0.85230  0.53450  Biso   1.000  H
  C236     1.0000 0.99990  0.25460  0.33708  Biso   1.000  C
  H189     1.0000 0.01440  0.23560  0.31180  Biso   1.000  H
  C237     1.0000 0.00060  0.31370  0.33723  Biso   1.000  C
  H190     1.0000 0.01510  0.33360  0.31230  Biso   1.000  H
  C238     1.0000 0.95770  0.25240  0.40745  Biso   1.000  C
  H191     1.0000 0.94180  0.23160  0.43160  Biso   1.000  H
  C239     1.0000 0.95790  0.31110  0.40999  Biso   1.000  C
  H192     1.0000 0.94350  0.32910  0.43570  Biso   1.000  H
  C240     1.0000 0.97960  0.34320  0.37447  Biso   1.000  C
  Cu17     1.0000 0.51417  0.38977  0.12145  Biso   1.000  Cu
  N49      1.0000 0.46220  0.34458  0.16730  Biso   1.000  N
  N50      1.0000 0.31290  0.16173  0.32842  Biso   1.000  N
  N51      1.0000 0.52080  0.47358  0.12170  Biso   1.000  N
  C241     1.0000 0.42340  0.29870  0.15647  Biso   1.000  C
  H193     1.0000 0.41640  0.29100  0.12680  Biso   1.000  H
  C242     1.0000 0.39360  0.26250  0.18631  Biso   1.000  C
  H194     1.0000 0.36780  0.23090  0.17670  Biso   1.000  H
  C243     1.0000 0.46910  0.35490  0.21022  Biso   1.000  C
  H195     1.0000 0.49450  0.38720  0.21870  Biso   1.000  H
  C244     1.0000 0.44100  0.32090  0.24246  Biso   1.000  C
  H196     1.0000 0.44810  0.33000  0.27190  Biso   1.000  H
  C245     1.0000 0.40160  0.27260  0.23094  Biso   1.000  C
  C246     1.0000 0.37050  0.23490  0.26475  Biso   1.000  C
  C247     1.0000 0.34580  0.25540  0.30455  Biso   1.000  C
  H197     1.0000 0.34800  0.29430  0.31070  Biso   1.000  H
  C248     1.0000 0.31790  0.21850  0.33479  Biso   1.000  C
  H198     1.0000 0.30160  0.23340  0.36130  Biso   1.000  H
  C249     1.0000 0.36440  0.17590  0.25745  Biso   1.000  C
  H199     1.0000 0.37910  0.16020  0.23090  Biso   1.000  H
  C250     1.0000 0.33640  0.14150  0.28969  Biso   1.000  C
  H200     1.0000 0.33360  0.10230  0.28450  Biso   1.000  H
  C251     1.0000 0.50010  0.50460  0.08708  Biso   1.000  C
  H201     1.0000 0.48560  0.48560  0.06180  Biso   1.000  H
  C252     1.0000 0.49940  0.56370  0.08723  Biso   1.000  C
  H202     1.0000 0.48490  0.58360  0.06230  Biso   1.000  H
  C253     1.0000 0.54230  0.50240  0.15745  Biso   1.000  C
  H203     1.0000 0.55820  0.48160  0.18160  Biso   1.000  H
  C254     1.0000 0.54210  0.56110  0.15999  Biso   1.000  C
  H204     1.0000 0.55650  0.57910  0.18570  Biso   1.000  H
  C255     1.0000 0.52040  0.59320  0.12447  Biso   1.000  C
  Cu18     1.0000 0.51417  0.88977  0.62145  Biso   1.000  Cu
  N52      1.0000 0.46220  0.84458  0.66730  Biso   1.000  N
  N53      1.0000 0.31290  0.66173  0.82842  Biso   1.000  N
  N54      1.0000 0.52080  0.97358  0.62170  Biso   1.000  N
  C256     1.0000 0.42340  0.79870  0.65647  Biso   1.000  C
  H205     1.0000 0.41640  0.79100  0.62680  Biso   1.000  H
  C257     1.0000 0.39360  0.76250  0.68631  Biso   1.000  C
  H206     1.0000 0.36780  0.73090  0.67670  Biso   1.000  H
  C258     1.0000 0.46910  0.85490  0.71022  Biso   1.000  C
  H207     1.0000 0.49450  0.88720  0.71870  Biso   1.000  H
  C259     1.0000 0.44100  0.82090  0.74246  Biso   1.000  C
  H208     1.0000 0.44810  0.83000  0.77190  Biso   1.000  H
  C260     1.0000 0.40160  0.77260  0.73094  Biso   1.000  C
  C261     1.0000 0.37050  0.73490  0.76475  Biso   1.000  C
  C262     1.0000 0.34580  0.75540  0.80455  Biso   1.000  C
  H209     1.0000 0.34800  0.79430  0.81070  Biso   1.000  H
  C263     1.0000 0.31790  0.71850  0.83479  Biso   1.000  C
  H210     1.0000 0.30160  0.73340  0.86130  Biso   1.000  H
  C264     1.0000 0.36440  0.67590  0.75745  Biso   1.000  C
  H211     1.0000 0.37910  0.66020  0.73090  Biso   1.000  H
  C265     1.0000 0.33640  0.64150  0.78969  Biso   1.000  C
  H212     1.0000 0.33360  0.60230  0.78450  Biso   1.000  H
  C266     1.0000 0.50010  0.00460  0.58708  Biso   1.000  C
  H213     1.0000 0.48560  0.98560  0.56180  Biso   1.000  H
  C267     1.0000 0.49940  0.06370  0.58723  Biso   1.000  C
  H214     1.0000 0.48490  0.08360  0.56230  Biso   1.000  H
  C268     1.0000 0.54230  0.00240  0.65745  Biso   1.000  C
  H215     1.0000 0.55820  0.98160  0.68160  Biso   1.000  H
  C269     1.0000 0.54210  0.06110  0.65999  Biso   1.000  C
  H216     1.0000 0.55650  0.07910  0.68570  Biso   1.000  H
  C270     1.0000 0.52040  0.09320  0.62447  Biso   1.000  C
  Cu19     1.0000 0.01417  0.38977  0.62145  Biso   1.000  Cu
  N55      1.0000 0.96220  0.34458  0.66730  Biso   1.000  N
  N56      1.0000 0.81290  0.16173  0.82842  Biso   1.000  N
  N57      1.0000 0.02080  0.47358  0.62170  Biso   1.000  N
  C271     1.0000 0.92340  0.29870  0.65647  Biso   1.000  C
  H217     1.0000 0.91640  0.29100  0.62680  Biso   1.000  H
  C272     1.0000 0.89360  0.26250  0.68631  Biso   1.000  C
  H218     1.0000 0.86780  0.23090  0.67670  Biso   1.000  H
  C273     1.0000 0.96910  0.35490  0.71022  Biso   1.000  C
  H219     1.0000 0.99450  0.38720  0.71870  Biso   1.000  H
  C274     1.0000 0.94100  0.32090  0.74246  Biso   1.000  C
  H220     1.0000 0.94810  0.33000  0.77190  Biso   1.000  H
  C275     1.0000 0.90160  0.27260  0.73094  Biso   1.000  C
  C276     1.0000 0.87050  0.23490  0.76475  Biso   1.000  C
  C277     1.0000 0.84580  0.25540  0.80455  Biso   1.000  C
  H221     1.0000 0.84800  0.29430  0.81070  Biso   1.000  H
  C278     1.0000 0.81790  0.21850  0.83479  Biso   1.000  C
  H222     1.0000 0.80160  0.23340  0.86130  Biso   1.000  H
  C279     1.0000 0.86440  0.17590  0.75745  Biso   1.000  C
  H223     1.0000 0.87910  0.16020  0.73090  Biso   1.000  H
  C280     1.0000 0.83640  0.14150  0.78969  Biso   1.000  C
  H224     1.0000 0.83360  0.10230  0.78450  Biso   1.000  H
  C281     1.0000 0.00010  0.50460  0.58708  Biso   1.000  C
  H225     1.0000 0.98560  0.48560  0.56180  Biso   1.000  H
  C282     1.0000 0.99940  0.56370  0.58723  Biso   1.000  C
  H226     1.0000 0.98490  0.58360  0.56230  Biso   1.000  H
  C283     1.0000 0.04230  0.50240  0.65745  Biso   1.000  C
  H227     1.0000 0.05820  0.48160  0.68160  Biso   1.000  H
  C284     1.0000 0.04210  0.56110  0.65999  Biso   1.000  C
  H228     1.0000 0.05650  0.57910  0.68570  Biso   1.000  H
  C285     1.0000 0.02040  0.59320  0.62447  Biso   1.000  C
  Cu20     1.0000 0.01417  0.88977  0.12145  Biso   1.000  Cu
  N58      1.0000 0.96220  0.84458  0.16730  Biso   1.000  N
  N59      1.0000 0.81290  0.66173  0.32842  Biso   1.000  N
  N60      1.0000 0.02080  0.97358  0.12170  Biso   1.000  N
  C286     1.0000 0.92340  0.79870  0.15647  Biso   1.000  C
  H229     1.0000 0.91640  0.79100  0.12680  Biso   1.000  H
  C287     1.0000 0.89360  0.76250  0.18631  Biso   1.000  C
  H230     1.0000 0.86780  0.73090  0.17670  Biso   1.000  H
  C288     1.0000 0.96910  0.85490  0.21022  Biso   1.000  C
  H231     1.0000 0.99450  0.88720  0.21870  Biso   1.000  H
  C289     1.0000 0.94100  0.82090  0.24246  Biso   1.000  C
  H232     1.0000 0.94810  0.83000  0.27190  Biso   1.000  H
  C290     1.0000 0.90160  0.77260  0.23094  Biso   1.000  C
  C291     1.0000 0.87050  0.73490  0.26475  Biso   1.000  C
  C292     1.0000 0.84580  0.75540  0.30455  Biso   1.000  C
  H233     1.0000 0.84800  0.79430  0.31070  Biso   1.000  H
  C293     1.0000 0.81790  0.71850  0.33479  Biso   1.000  C
  H234     1.0000 0.80160  0.73340  0.36130  Biso   1.000  H
  C294     1.0000 0.86440  0.67590  0.25745  Biso   1.000  C
  H235     1.0000 0.87910  0.66020  0.23090  Biso   1.000  H
  C295     1.0000 0.83640  0.64150  0.28969  Biso   1.000  C
  H236     1.0000 0.83360  0.60230  0.28450  Biso   1.000  H
  C296     1.0000 0.00010  0.00460  0.08708  Biso   1.000  C
  H237     1.0000 0.98560  0.98560  0.06180  Biso   1.000  H
  C297     1.0000 0.99940  0.06370  0.08723  Biso   1.000  C
  H238     1.0000 0.98490  0.08360  0.06230  Biso   1.000  H
  C298     1.0000 0.04230  0.00240  0.15745  Biso   1.000  C
  H239     1.0000 0.05820  0.98160  0.18160  Biso   1.000  H
  C299     1.0000 0.04210  0.06110  0.15999  Biso   1.000  C
  H240     1.0000 0.05650  0.07910  0.18570  Biso   1.000  H
  C300     1.0000 0.02040  0.09320  0.12447  Biso   1.000  C
  Cu21     1.0000 0.51417  0.36023  0.62855  Biso   1.000  Cu
  N61      1.0000 0.46220  0.40542  0.58270  Biso   1.000  N
  N62      1.0000 0.31290  0.58827  0.42158  Biso   1.000  N
  N63      1.0000 0.52080  0.27642  0.62830  Biso   1.000  N
  C301     1.0000 0.42340  0.45130  0.59353  Biso   1.000  C
  H241     1.0000 0.41640  0.45900  0.62320  Biso   1.000  H
  C302     1.0000 0.39360  0.48750  0.56369  Biso   1.000  C
  H242     1.0000 0.36780  0.51910  0.57330  Biso   1.000  H
  C303     1.0000 0.46910  0.39510  0.53978  Biso   1.000  C
  H243     1.0000 0.49450  0.36280  0.53130  Biso   1.000  H
  C304     1.0000 0.44100  0.42910  0.50754  Biso   1.000  C
  H244     1.0000 0.44810  0.42000  0.47810  Biso   1.000  H
  C305     1.0000 0.40160  0.47740  0.51906  Biso   1.000  C
  C306     1.0000 0.37050  0.51510  0.48525  Biso   1.000  C
  C307     1.0000 0.34580  0.49460  0.44545  Biso   1.000  C
  H245     1.0000 0.34800  0.45570  0.43930  Biso   1.000  H
  C308     1.0000 0.31790  0.53150  0.41521  Biso   1.000  C
  H246     1.0000 0.30160  0.51660  0.38870  Biso   1.000  H
  C309     1.0000 0.36440  0.57410  0.49255  Biso   1.000  C
  H247     1.0000 0.37910  0.58980  0.51910  Biso   1.000  H
  C310     1.0000 0.33640  0.60850  0.46031  Biso   1.000  C
  H248     1.0000 0.33360  0.64770  0.46550  Biso   1.000  H
  C311     1.0000 0.50010  0.24540  0.66292  Biso   1.000  C
  H249     1.0000 0.48560  0.26440  0.68820  Biso   1.000  H
  C312     1.0000 0.49940  0.18630  0.66277  Biso   1.000  C
  H250     1.0000 0.48490  0.16640  0.68770  Biso   1.000  H
  C313     1.0000 0.54230  0.24760  0.59255  Biso   1.000  C
  H251     1.0000 0.55820  0.26840  0.56840  Biso   1.000  H
  C314     1.0000 0.54210  0.18890  0.59001  Biso   1.000  C
  H252     1.0000 0.55650  0.17090  0.56430  Biso   1.000  H
  C315     1.0000 0.52040  0.15680  0.62553  Biso   1.000  C
  Cu22     1.0000 0.51417  0.86023  0.12855  Biso   1.000  Cu
  N64      1.0000 0.46220  0.90542  0.08270  Biso   1.000  N
  N65      1.0000 0.31290  0.08827  0.92158  Biso   1.000  N
  N66      1.0000 0.52080  0.77642  0.12830  Biso   1.000  N
  C316     1.0000 0.42340  0.95130  0.09353  Biso   1.000  C
  H253     1.0000 0.41640  0.95900  0.12320  Biso   1.000  H
  C317     1.0000 0.39360  0.98750  0.06369  Biso   1.000  C
  H254     1.0000 0.36780  0.01910  0.07330  Biso   1.000  H
  C318     1.0000 0.46910  0.89510  0.03978  Biso   1.000  C
  H255     1.0000 0.49450  0.86280  0.03130  Biso   1.000  H
  C319     1.0000 0.44100  0.92910  0.00754  Biso   1.000  C
  H256     1.0000 0.44810  0.92000  0.97810  Biso   1.000  H
  C320     1.0000 0.40160  0.97740  0.01906  Biso   1.000  C
  C321     1.0000 0.37050  0.01510  0.98525  Biso   1.000  C
  C322     1.0000 0.34580  0.99460  0.94545  Biso   1.000  C
  H257     1.0000 0.34800  0.95570  0.93930  Biso   1.000  H
  C323     1.0000 0.31790  0.03150  0.91521  Biso   1.000  C
  H258     1.0000 0.30160  0.01660  0.88870  Biso   1.000  H
  C324     1.0000 0.36440  0.07410  0.99255  Biso   1.000  C
  H259     1.0000 0.37910  0.08980  0.01910  Biso   1.000  H
  C325     1.0000 0.33640  0.10850  0.96031  Biso   1.000  C
  H260     1.0000 0.33360  0.14770  0.96550  Biso   1.000  H
  C326     1.0000 0.50010  0.74540  0.16292  Biso   1.000  C
  H261     1.0000 0.48560  0.76440  0.18820  Biso   1.000  H
  C327     1.0000 0.49940  0.68630  0.16277  Biso   1.000  C
  H262     1.0000 0.48490  0.66640  0.18770  Biso   1.000  H
  C328     1.0000 0.54230  0.74760  0.09255  Biso   1.000  C
  H263     1.0000 0.55820  0.76840  0.06840  Biso   1.000  H
  C329     1.0000 0.54210  0.68890  0.09001  Biso   1.000  C
  H264     1.0000 0.55650  0.67090  0.06430  Biso   1.000  H
  C330     1.0000 0.52040  0.65680  0.12553  Biso   1.000  C
  Cu23     1.0000 0.01417  0.36023  0.12855  Biso   1.000  Cu
  N67      1.0000 0.96220  0.40542  0.08270  Biso   1.000  N
  N68      1.0000 0.81290  0.58827  0.92158  Biso   1.000  N
  N69      1.0000 0.02080  0.27642  0.12830  Biso   1.000  N
  C331     1.0000 0.92340  0.45130  0.09353  Biso   1.000  C
  H265     1.0000 0.91640  0.45900  0.12320  Biso   1.000  H
  C332     1.0000 0.89360  0.48750  0.06369  Biso   1.000  C
  H266     1.0000 0.86780  0.51910  0.07330  Biso   1.000  H
  C333     1.0000 0.96910  0.39510  0.03978  Biso   1.000  C
  H267     1.0000 0.99450  0.36280  0.03130  Biso   1.000  H
  C334     1.0000 0.94100  0.42910  0.00754  Biso   1.000  C
  H268     1.0000 0.94810  0.42000  0.97810  Biso   1.000  H
  C335     1.0000 0.90160  0.47740  0.01906  Biso   1.000  C
  C336     1.0000 0.87050  0.51510  0.98525  Biso   1.000  C
  C337     1.0000 0.84580  0.49460  0.94545  Biso   1.000  C
  H269     1.0000 0.84800  0.45570  0.93930  Biso   1.000  H
  C338     1.0000 0.81790  0.53150  0.91521  Biso   1.000  C
  H270     1.0000 0.80160  0.51660  0.88870  Biso   1.000  H
  C339     1.0000 0.86440  0.57410  0.99255  Biso   1.000  C
  H271     1.0000 0.87910  0.58980  0.01910  Biso   1.000  H
  C340     1.0000 0.83640  0.60850  0.96031  Biso   1.000  C
  H272     1.0000 0.83360  0.64770  0.96550  Biso   1.000  H
  C341     1.0000 0.00010  0.24540  0.16292  Biso   1.000  C
  H273     1.0000 0.98560  0.26440  0.18820  Biso   1.000  H
  C342     1.0000 0.99940  0.18630  0.16277  Biso   1.000  C
  H274     1.0000 0.98490  0.16640  0.18770  Biso   1.000  H
  C343     1.0000 0.04230  0.24760  0.09255  Biso   1.000  C
  H275     1.0000 0.05820  0.26840  0.06840  Biso   1.000  H
  C344     1.0000 0.04210  0.18890  0.09001  Biso   1.000  C
  H276     1.0000 0.05650  0.17090  0.06430  Biso   1.000  H
  C345     1.0000 0.02040  0.15680  0.12553  Biso   1.000  C
  Cu24     1.0000 0.01417  0.86023  0.62855  Biso   1.000  Cu
  N70      1.0000 0.96220  0.90542  0.58270  Biso   1.000  N
  N71      1.0000 0.81290  0.08827  0.42158  Biso   1.000  N
  N72      1.0000 0.02080  0.77642  0.62830  Biso   1.000  N
  C346     1.0000 0.92340  0.95130  0.59353  Biso   1.000  C
  H277     1.0000 0.91640  0.95900  0.62320  Biso   1.000  H
  C347     1.0000 0.89360  0.98750  0.56369  Biso   1.000  C
  H278     1.0000 0.86780  0.01910  0.57330  Biso   1.000  H
  C348     1.0000 0.96910  0.89510  0.53978  Biso   1.000  C
  H279     1.0000 0.99450  0.86280  0.53130  Biso   1.000  H
  C349     1.0000 0.94100  0.92910  0.50754  Biso   1.000  C
  H280     1.0000 0.94810  0.92000  0.47810  Biso   1.000  H
  C350     1.0000 0.90160  0.97740  0.51906  Biso   1.000  C
  C351     1.0000 0.87050  0.01510  0.48525  Biso   1.000  C
  C352     1.0000 0.84580  0.99460  0.44545  Biso   1.000  C
  H281     1.0000 0.84800  0.95570  0.43930  Biso   1.000  H
  C353     1.0000 0.81790  0.03150  0.41521  Biso   1.000  C
  H282     1.0000 0.80160  0.01660  0.38870  Biso   1.000  H
  C354     1.0000 0.86440  0.07410  0.49255  Biso   1.000  C
  H283     1.0000 0.87910  0.08980  0.51910  Biso   1.000  H
  C355     1.0000 0.83640  0.10850  0.46031  Biso   1.000  C
  H284     1.0000 0.83360  0.14770  0.46550  Biso   1.000  H
  C356     1.0000 0.00010  0.74540  0.66292  Biso   1.000  C
  H285     1.0000 0.98560  0.76440  0.68820  Biso   1.000  H
  C357     1.0000 0.99940  0.68630  0.66277  Biso   1.000  C
  H286     1.0000 0.98490  0.66640  0.68770  Biso   1.000  H
  C358     1.0000 0.04230  0.74760  0.59255  Biso   1.000  C
  H287     1.0000 0.05820  0.76840  0.56840  Biso   1.000  H
  C359     1.0000 0.04210  0.68890  0.59001  Biso   1.000  C
  H288     1.0000 0.05650  0.67090  0.56430  Biso   1.000  H
  C360     1.0000 0.02040  0.65680  0.62553  Biso   1.000  C
  Cu25     1.0000 0.76417  0.63977  0.87855  Biso   1.000  Cu
  N73      1.0000 0.71220  0.59458  0.83270  Biso   1.000  N
  N74      1.0000 0.56290  0.41173  0.67158  Biso   1.000  N
  N75      1.0000 0.77080  0.72358  0.87830  Biso   1.000  N
  C361     1.0000 0.67340  0.54870  0.84353  Biso   1.000  C
  H289     1.0000 0.66640  0.54100  0.87320  Biso   1.000  H
  C362     1.0000 0.64360  0.51250  0.81369  Biso   1.000  C
  H290     1.0000 0.61780  0.48090  0.82330  Biso   1.000  H
  C363     1.0000 0.71910  0.60490  0.78978  Biso   1.000  C
  H291     1.0000 0.74450  0.63720  0.78130  Biso   1.000  H
  C364     1.0000 0.69100  0.57090  0.75754  Biso   1.000  C
  H292     1.0000 0.69810  0.58000  0.72810  Biso   1.000  H
  C365     1.0000 0.65160  0.52260  0.76906  Biso   1.000  C
  C366     1.0000 0.62050  0.48490  0.73525  Biso   1.000  C
  C367     1.0000 0.59580  0.50540  0.69545  Biso   1.000  C
  H293     1.0000 0.59800  0.54430  0.68930  Biso   1.000  H
  C368     1.0000 0.56790  0.46850  0.66521  Biso   1.000  C
  H294     1.0000 0.55160  0.48340  0.63870  Biso   1.000  H
  C369     1.0000 0.61440  0.42590  0.74255  Biso   1.000  C
  H295     1.0000 0.62910  0.41020  0.76910  Biso   1.000  H
  C370     1.0000 0.58640  0.39150  0.71031  Biso   1.000  C
  H296     1.0000 0.58360  0.35230  0.71550  Biso   1.000  H
  C371     1.0000 0.75010  0.75460  0.91292  Biso   1.000  C
  H297     1.0000 0.73560  0.73560  0.93820  Biso   1.000  H
  C372     1.0000 0.74940  0.81370  0.91277  Biso   1.000  C
  H298     1.0000 0.73490  0.83360  0.93770  Biso   1.000  H
  C373     1.0000 0.79230  0.75240  0.84255  Biso   1.000  C
  H299     1.0000 0.80820  0.73160  0.81840  Biso   1.000  H
  C374     1.0000 0.79210  0.81110  0.84001  Biso   1.000  C
  H300     1.0000 0.80650  0.82910  0.81430  Biso   1.000  H
  C375     1.0000 0.77040  0.84320  0.87553  Biso   1.000  C
  Cu26     1.0000 0.76417  0.13977  0.37855  Biso   1.000  Cu
  N76      1.0000 0.71220  0.09458  0.33270  Biso   1.000  N
  N77      1.0000 0.56290  0.91173  0.17158  Biso   1.000  N
  N78      1.0000 0.77080  0.22358  0.37830  Biso   1.000  N
  C376     1.0000 0.67340  0.04870  0.34353  Biso   1.000  C
  H301     1.0000 0.66640  0.04100  0.37320  Biso   1.000  H
  C377     1.0000 0.64360  0.01250  0.31369  Biso   1.000  C
  H302     1.0000 0.61780  0.98090  0.32330  Biso   1.000  H
  C378     1.0000 0.71910  0.10490  0.28978  Biso   1.000  C
  H303     1.0000 0.74450  0.13720  0.28130  Biso   1.000  H
  C379     1.0000 0.69100  0.07090  0.25754  Biso   1.000  C
  H304     1.0000 0.69810  0.08000  0.22810  Biso   1.000  H
  C380     1.0000 0.65160  0.02260  0.26906  Biso   1.000  C
  C381     1.0000 0.62050  0.98490  0.23525  Biso   1.000  C
  C382     1.0000 0.59580  0.00540  0.19545  Biso   1.000  C
  H305     1.0000 0.59800  0.04430  0.18930  Biso   1.000  H
  C383     1.0000 0.56790  0.96850  0.16521  Biso   1.000  C
  H306     1.0000 0.55160  0.98340  0.13870  Biso   1.000  H
  C384     1.0000 0.61440  0.92590  0.24255  Biso   1.000  C
  H307     1.0000 0.62910  0.91020  0.26910  Biso   1.000  H
  C385     1.0000 0.58640  0.89150  0.21031  Biso   1.000  C
  H308     1.0000 0.58360  0.85230  0.21550  Biso   1.000  H
  C386     1.0000 0.75010  0.25460  0.41292  Biso   1.000  C
  H309     1.0000 0.73560  0.23560  0.43820  Biso   1.000  H
  C387     1.0000 0.74940  0.31370  0.41277  Biso   1.000  C
  H310     1.0000 0.73490  0.33360  0.43770  Biso   1.000  H
  C388     1.0000 0.79230  0.25240  0.34255  Biso   1.000  C
  H311     1.0000 0.80820  0.23160  0.31840  Biso   1.000  H
  C389     1.0000 0.79210  0.31110  0.34001  Biso   1.000  C
  H312     1.0000 0.80650  0.32910  0.31430  Biso   1.000  H
  C390     1.0000 0.77040  0.34320  0.37553  Biso   1.000  C
  Cu27     1.0000 0.26417  0.63977  0.37855  Biso   1.000  Cu
  N79      1.0000 0.21220  0.59458  0.33270  Biso   1.000  N
  N80      1.0000 0.06290  0.41173  0.17158  Biso   1.000  N
  N81      1.0000 0.27080  0.72358  0.37830  Biso   1.000  N
  C391     1.0000 0.17340  0.54870  0.34353  Biso   1.000  C
  H313     1.0000 0.16640  0.54100  0.37320  Biso   1.000  H
  C392     1.0000 0.14360  0.51250  0.31369  Biso   1.000  C
  H314     1.0000 0.11780  0.48090  0.32330  Biso   1.000  H
  C393     1.0000 0.21910  0.60490  0.28978  Biso   1.000  C
  H315     1.0000 0.24450  0.63720  0.28130  Biso   1.000  H
  C394     1.0000 0.19100  0.57090  0.25754  Biso   1.000  C
  H316     1.0000 0.19810  0.58000  0.22810  Biso   1.000  H
  C395     1.0000 0.15160  0.52260  0.26906  Biso   1.000  C
  C396     1.0000 0.12050  0.48490  0.23525  Biso   1.000  C
  C397     1.0000 0.09580  0.50540  0.19545  Biso   1.000  C
  H317     1.0000 0.09800  0.54430  0.18930  Biso   1.000  H
  C398     1.0000 0.06790  0.46850  0.16521  Biso   1.000  C
  H318     1.0000 0.05160  0.48340  0.13870  Biso   1.000  H
  C399     1.0000 0.11440  0.42590  0.24255  Biso   1.000  C
  H319     1.0000 0.12910  0.41020  0.26910  Biso   1.000  H
  C400     1.0000 0.08640  0.39150  0.21031  Biso   1.000  C
  H320     1.0000 0.08360  0.35230  0.21550  Biso   1.000  H
  C401     1.0000 0.25010  0.75460  0.41292  Biso   1.000  C
  H321     1.0000 0.23560  0.73560  0.43820  Biso   1.000  H
  C402     1.0000 0.24940  0.81370  0.41277  Biso   1.000  C
  H322     1.0000 0.23490  0.83360  0.43770  Biso   1.000  H
  C403     1.0000 0.29230  0.75240  0.34255  Biso   1.000  C
  H323     1.0000 0.30820  0.73160  0.31840  Biso   1.000  H
  C404     1.0000 0.29210  0.81110  0.34001  Biso   1.000  C
  H324     1.0000 0.30650  0.82910  0.31430  Biso   1.000  H
  C405     1.0000 0.27040  0.84320  0.37553  Biso   1.000  C
  Cu28     1.0000 0.26417  0.13977  0.87855  Biso   1.000  Cu
  N82      1.0000 0.21220  0.09458  0.83270  Biso   1.000  N
  N83      1.0000 0.06290  0.91173  0.67158  Biso   1.000  N
  N84      1.0000 0.27080  0.22358  0.87830  Biso   1.000  N
  C406     1.0000 0.17340  0.04870  0.84353  Biso   1.000  C
  H325     1.0000 0.16640  0.04100  0.87320  Biso   1.000  H
  C407     1.0000 0.14360  0.01250  0.81369  Biso   1.000  C
  H326     1.0000 0.11780  0.98090  0.82330  Biso   1.000  H
  C408     1.0000 0.21910  0.10490  0.78978  Biso   1.000  C
  H327     1.0000 0.24450  0.13720  0.78130  Biso   1.000  H
  C409     1.0000 0.19100  0.07090  0.75754  Biso   1.000  C
  H328     1.0000 0.19810  0.08000  0.72810  Biso   1.000  H
  C410     1.0000 0.15160  0.02260  0.76906  Biso   1.000  C
  C411     1.0000 0.12050  0.98490  0.73525  Biso   1.000  C
  C412     1.0000 0.09580  0.00540  0.69545  Biso   1.000  C
  H329     1.0000 0.09800  0.04430  0.68930  Biso   1.000  H
  C413     1.0000 0.06790  0.96850  0.66521  Biso   1.000  C
  H330     1.0000 0.05160  0.98340  0.63870  Biso   1.000  H
  C414     1.0000 0.11440  0.92590  0.74255  Biso   1.000  C
  H331     1.0000 0.12910  0.91020  0.76910  Biso   1.000  H
  C415     1.0000 0.08640  0.89150  0.71031  Biso   1.000  C
  H332     1.0000 0.08360  0.85230  0.71550  Biso   1.000  H
  C416     1.0000 0.25010  0.25460  0.91292  Biso   1.000  C
  H333     1.0000 0.23560  0.23560  0.93820  Biso   1.000  H
  C417     1.0000 0.24940  0.31370  0.91277  Biso   1.000  C
  H334     1.0000 0.23490  0.33360  0.93770  Biso   1.000  H
  C418     1.0000 0.29230  0.25240  0.84255  Biso   1.000  C
  H335     1.0000 0.30820  0.23160  0.81840  Biso   1.000  H
  C419     1.0000 0.29210  0.31110  0.84001  Biso   1.000  C
  H336     1.0000 0.30650  0.32910  0.81430  Biso   1.000  H
  C420     1.0000 0.27040  0.34320  0.87553  Biso   1.000  C
  Cu29     1.0000 0.76417  0.61023  0.37145  Biso   1.000  Cu
  N85      1.0000 0.71220  0.65542  0.41730  Biso   1.000  N
  N86      1.0000 0.56290  0.83827  0.57842  Biso   1.000  N
  N87      1.0000 0.77080  0.52642  0.37170  Biso   1.000  N
  C421     1.0000 0.67340  0.70130  0.40647  Biso   1.000  C
  H337     1.0000 0.66640  0.70900  0.37680  Biso   1.000  H
  C422     1.0000 0.64360  0.73750  0.43631  Biso   1.000  C
  H338     1.0000 0.61780  0.76910  0.42670  Biso   1.000  H
  C423     1.0000 0.71910  0.64510  0.46022  Biso   1.000  C
  H339     1.0000 0.74450  0.61280  0.46870  Biso   1.000  H
  C424     1.0000 0.69100  0.67910  0.49246  Biso   1.000  C
  H340     1.0000 0.69810  0.67000  0.52190  Biso   1.000  H
  C425     1.0000 0.65160  0.72740  0.48094  Biso   1.000  C
  C426     1.0000 0.62050  0.76510  0.51475  Biso   1.000  C
  C427     1.0000 0.59580  0.74460  0.55455  Biso   1.000  C
  H341     1.0000 0.59800  0.70570  0.56070  Biso   1.000  H
  C428     1.0000 0.56790  0.78150  0.58479  Biso   1.000  C
  H342     1.0000 0.55160  0.76660  0.61130  Biso   1.000  H
  C429     1.0000 0.61440  0.82410  0.50745  Biso   1.000  C
  H343     1.0000 0.62910  0.83980  0.48090  Biso   1.000  H
  C430     1.0000 0.58640  0.85850  0.53969  Biso   1.000  C
  H344     1.0000 0.58360  0.89770  0.53450  Biso   1.000  H
  C431     1.0000 0.75010  0.49540  0.33708  Biso   1.000  C
  H345     1.0000 0.73560  0.51440  0.31180  Biso   1.000  H
  C432     1.0000 0.74940  0.43630  0.33723  Biso   1.000  C
  H346     1.0000 0.73490  0.41640  0.31230  Biso   1.000  H
  C433     1.0000 0.79230  0.49760  0.40745  Biso   1.000  C
  H347     1.0000 0.80820  0.51840  0.43160  Biso   1.000  H
  C434     1.0000 0.79210  0.43890  0.40999  Biso   1.000  C
  H348     1.0000 0.80650  0.42090  0.43570  Biso   1.000  H
  C435     1.0000 0.77040  0.40680  0.37447  Biso   1.000  C
  Cu30     1.0000 0.76417  0.11023  0.87145  Biso   1.000  Cu
  N88      1.0000 0.71220  0.15542  0.91730  Biso   1.000  N
  N89      1.0000 0.56290  0.33827  0.07842  Biso   1.000  N
  N90      1.0000 0.77080  0.02642  0.87170  Biso   1.000  N
  C436     1.0000 0.67340  0.20130  0.90647  Biso   1.000  C
  H349     1.0000 0.66640  0.20900  0.87680  Biso   1.000  H
  C437     1.0000 0.64360  0.23750  0.93631  Biso   1.000  C
  H350     1.0000 0.61780  0.26910  0.92670  Biso   1.000  H
  C438     1.0000 0.71910  0.14510  0.96022  Biso   1.000  C
  H351     1.0000 0.74450  0.11280  0.96870  Biso   1.000  H
  C439     1.0000 0.69100  0.17910  0.99246  Biso   1.000  C
  H352     1.0000 0.69810  0.17000  0.02190  Biso   1.000  H
  C440     1.0000 0.65160  0.22740  0.98094  Biso   1.000  C
  C441     1.0000 0.62050  0.26510  0.01475  Biso   1.000  C
  C442     1.0000 0.59580  0.24460  0.05455  Biso   1.000  C
  H353     1.0000 0.59800  0.20570  0.06070  Biso   1.000  H
  C443     1.0000 0.56790  0.28150  0.08479  Biso   1.000  C
  H354     1.0000 0.55160  0.26660  0.11130  Biso   1.000  H
  C444     1.0000 0.61440  0.32410  0.00745  Biso   1.000  C
  H355     1.0000 0.62910  0.33980  0.98090  Biso   1.000  H
  C445     1.0000 0.58640  0.35850  0.03969  Biso   1.000  C
  H356     1.0000 0.58360  0.39770  0.03450  Biso   1.000  H
  C446     1.0000 0.75010  0.99540  0.83708  Biso   1.000  C
  H357     1.0000 0.73560  0.01440  0.81180  Biso   1.000  H
  C447     1.0000 0.74940  0.93630  0.83723  Biso   1.000  C
  H358     1.0000 0.73490  0.91640  0.81230  Biso   1.000  H
  C448     1.0000 0.79230  0.99760  0.90745  Biso   1.000  C
  H359     1.0000 0.80820  0.01840  0.93160  Biso   1.000  H
  C449     1.0000 0.79210  0.93890  0.90999  Biso   1.000  C
  H360     1.0000 0.80650  0.92090  0.93570  Biso   1.000  H
  C450     1.0000 0.77040  0.90680  0.87447  Biso   1.000  C
  Cu31     1.0000 0.26417  0.61023  0.87145  Biso   1.000  Cu
  N91      1.0000 0.21220  0.65542  0.91730  Biso   1.000  N
  N92      1.0000 0.06290  0.83827  0.07842  Biso   1.000  N
  N93      1.0000 0.27080  0.52642  0.87170  Biso   1.000  N
  C451     1.0000 0.17340  0.70130  0.90647  Biso   1.000  C
  H361     1.0000 0.16640  0.70900  0.87680  Biso   1.000  H
  C452     1.0000 0.14360  0.73750  0.93631  Biso   1.000  C
  H362     1.0000 0.11780  0.76910  0.92670  Biso   1.000  H
  C453     1.0000 0.21910  0.64510  0.96022  Biso   1.000  C
  H363     1.0000 0.24450  0.61280  0.96870  Biso   1.000  H
  C454     1.0000 0.19100  0.67910  0.99246  Biso   1.000  C
  H364     1.0000 0.19810  0.67000  0.02190  Biso   1.000  H
  C455     1.0000 0.15160  0.72740  0.98094  Biso   1.000  C
  C456     1.0000 0.12050  0.76510  0.01475  Biso   1.000  C
  C457     1.0000 0.09580  0.74460  0.05455  Biso   1.000  C
  H365     1.0000 0.09800  0.70570  0.06070  Biso   1.000  H
  C458     1.0000 0.06790  0.78150  0.08479  Biso   1.000  C
  H366     1.0000 0.05160  0.76660  0.11130  Biso   1.000  H
  C459     1.0000 0.11440  0.82410  0.00745  Biso   1.000  C
  H367     1.0000 0.12910  0.83980  0.98090  Biso   1.000  H
  C460     1.0000 0.08640  0.85850  0.03969  Biso   1.000  C
  H368     1.0000 0.08360  0.89770  0.03450  Biso   1.000  H
  C461     1.0000 0.25010  0.49540  0.83708  Biso   1.000  C
  H369     1.0000 0.23560  0.51440  0.81180  Biso   1.000  H
  C462     1.0000 0.24940  0.43630  0.83723  Biso   1.000  C
  H370     1.0000 0.23490  0.41640  0.81230  Biso   1.000  H
  C463     1.0000 0.29230  0.49760  0.90745  Biso   1.000  C
  H371     1.0000 0.30820  0.51840  0.93160  Biso   1.000  H
  C464     1.0000 0.29210  0.43890  0.90999  Biso   1.000  C
  H372     1.0000 0.30650  0.42090  0.93570  Biso   1.000  H
  C465     1.0000 0.27040  0.40680  0.87447  Biso   1.000  C
  Cu32     1.0000 0.26417  0.11023  0.37145  Biso   1.000  Cu
  N94      1.0000 0.21220  0.15542  0.41730  Biso   1.000  N
  N95      1.0000 0.06290  0.33827  0.57842  Biso   1.000  N
  N96      1.0000 0.27080  0.02642  0.37170  Biso   1.000  N
  C466     1.0000 0.17340  0.20130  0.40647  Biso   1.000  C
  H373     1.0000 0.16640  0.20900  0.37680  Biso   1.000  H
  C467     1.0000 0.14360  0.23750  0.43631  Biso   1.000  C
  H374     1.0000 0.11780  0.26910  0.42670  Biso   1.000  H
  C468     1.0000 0.21910  0.14510  0.46022  Biso   1.000  C
  H375     1.0000 0.24450  0.11280  0.46870  Biso   1.000  H
  C469     1.0000 0.19100  0.17910  0.49246  Biso   1.000  C
  H376     1.0000 0.19810  0.17000  0.52190  Biso   1.000  H
  C470     1.0000 0.15160  0.22740  0.48094  Biso   1.000  C
  C471     1.0000 0.12050  0.26510  0.51475  Biso   1.000  C
  C472     1.0000 0.09580  0.24460  0.55455  Biso   1.000  C
  H377     1.0000 0.09800  0.20570  0.56070  Biso   1.000  H
  C473     1.0000 0.06790  0.28150  0.58479  Biso   1.000  C
  H378     1.0000 0.05160  0.26660  0.61130  Biso   1.000  H
  C474     1.0000 0.11440  0.32410  0.50745  Biso   1.000  C
  H379     1.0000 0.12910  0.33980  0.48090  Biso   1.000  H
  C475     1.0000 0.08640  0.35850  0.53969  Biso   1.000  C
  H380     1.0000 0.08360  0.39770  0.53450  Biso   1.000  H
  C476     1.0000 0.25010  0.99540  0.33708  Biso   1.000  C
  H381     1.0000 0.23560  0.01440  0.31180  Biso   1.000  H
  C477     1.0000 0.24940  0.93630  0.33723  Biso   1.000  C
  H382     1.0000 0.23490  0.91640  0.31230  Biso   1.000  H
  C478     1.0000 0.29230  0.99760  0.40745  Biso   1.000  C
  H383     1.0000 0.30820  0.01840  0.43160  Biso   1.000  H
  C479     1.0000 0.29210  0.93890  0.40999  Biso   1.000  C
  H384     1.0000 0.30650  0.92090  0.43570  Biso   1.000  H
  C480     1.0000 0.27040  0.90680  0.37447  Biso   1.000  C
