data_image0
_cell_length_a       18.747
_cell_length_b       23.355
_cell_length_c       30.404
_cell_angle_alpha    90
_cell_angle_beta     90
_cell_angle_gamma    90

_symmetry_space_group_name_H-M    "P 1"
_symmetry_int_tables_number       1

loop_
  _symmetry_equiv_pos_as_xyz
  'x, y, z'

loop_
  _atom_site_label
  _atom_site_occupancy
  _atom_site_fract_x
  _atom_site_fract_y
  _atom_site_fract_z
  _atom_site_thermal_displace_type
  _atom_site_B_iso_or_equiv
  _atom_site_type_symbol
  Cu1      1.0000 0.51418  0.38975  0.12143  Biso   1.000  Cu
  N1       1.0000 0.52065  0.47349  0.12170  Biso   1.000  N
  N2       1.0000 0.46219  0.34458  0.16732  Biso   1.000  N
  N3       1.0000 0.31272  0.16160  0.32837  Biso   1.000  N
  C1       1.0000 0.54213  0.50213  0.15739  Biso   1.000  C
  H1       1.0000 0.55790  0.48130  0.18160  Biso   1.000  H
  C2       1.0000 0.54201  0.56136  0.16007  Biso   1.000  C
  H2       1.0000 0.55650  0.57950  0.18580  Biso   1.000  H
  C3       1.0000 0.52038  0.59318  0.12440  Biso   1.000  C
  C4       1.0000 0.49930  0.56371  0.08695  Biso   1.000  C
  H3       1.0000 0.48490  0.58360  0.06200  Biso   1.000  H
  C5       1.0000 0.49982  0.50469  0.08705  Biso   1.000  C
  H4       1.0000 0.48500  0.48560  0.06180  Biso   1.000  H
  C6       1.0000 0.46957  0.35530  0.21029  Biso   1.000  C
  H5       1.0000 0.49540  0.38750  0.21880  Biso   1.000  H
  C7       1.0000 0.42367  0.29865  0.15625  Biso   1.000  C
  H6       1.0000 0.41700  0.29100  0.12650  Biso   1.000  H
  C8       1.0000 0.44084  0.32112  0.24258  Biso   1.000  C
  H7       1.0000 0.44760  0.33020  0.27210  Biso   1.000  H
  C9       1.0000 0.39353  0.26227  0.18631  Biso   1.000  C
  H8       1.0000 0.36770  0.23060  0.17690  Biso   1.000  H
  C10      1.0000 0.40175  0.27295  0.23094  Biso   1.000  C
  C11      1.0000 0.37050  0.23469  0.26458  Biso   1.000  C
  C12      1.0000 0.34628  0.25540  0.30453  Biso   1.000  C
  H9       1.0000 0.34930  0.29430  0.31080  Biso   1.000  H
  C13      1.0000 0.36441  0.17610  0.25736  Biso   1.000  C
  H10      1.0000 0.37940  0.16020  0.23090  Biso   1.000  H
  C14      1.0000 0.33609  0.14174  0.28974  Biso   1.000  C
  H11      1.0000 0.33310  0.10260  0.28450  Biso   1.000  H
  C15      1.0000 0.31778  0.21821  0.33490  Biso   1.000  C
  H12      1.0000 0.30110  0.23310  0.36130  Biso   1.000  H
  Cu2      1.0000 0.51418  0.88975  0.62143  Biso   1.000  Cu
  N4       1.0000 0.52065  0.97349  0.62170  Biso   1.000  N
  N5       1.0000 0.46219  0.84458  0.66732  Biso   1.000  N
  N6       1.0000 0.31272  0.66160  0.82837  Biso   1.000  N
  C16      1.0000 0.54213  0.00213  0.65739  Biso   1.000  C
  H13      1.0000 0.55790  0.98130  0.68160  Biso   1.000  H
  C17      1.0000 0.54201  0.06136  0.66007  Biso   1.000  C
  H14      1.0000 0.55650  0.07950  0.68580  Biso   1.000  H
  C18      1.0000 0.52038  0.09318  0.62440  Biso   1.000  C
  C19      1.0000 0.49930  0.06371  0.58695  Biso   1.000  C
  H15      1.0000 0.48490  0.08360  0.56200  Biso   1.000  H
  C20      1.0000 0.49982  0.00469  0.58705  Biso   1.000  C
  H16      1.0000 0.48500  0.98560  0.56180  Biso   1.000  H
  C21      1.0000 0.46957  0.85530  0.71029  Biso   1.000  C
  H17      1.0000 0.49540  0.88750  0.71880  Biso   1.000  H
  C22      1.0000 0.42367  0.79865  0.65625  Biso   1.000  C
  H18      1.0000 0.41700  0.79100  0.62650  Biso   1.000  H
  C23      1.0000 0.44084  0.82112  0.74258  Biso   1.000  C
  H19      1.0000 0.44760  0.83020  0.77210  Biso   1.000  H
  C24      1.0000 0.39353  0.76227  0.68631  Biso   1.000  C
  H20      1.0000 0.36770  0.73060  0.67690  Biso   1.000  H
  C25      1.0000 0.40175  0.77295  0.73094  Biso   1.000  C
  C26      1.0000 0.37050  0.73469  0.76458  Biso   1.000  C
  C27      1.0000 0.34628  0.75540  0.80453  Biso   1.000  C
  H21      1.0000 0.34930  0.79430  0.81080  Biso   1.000  H
  C28      1.0000 0.36441  0.67610  0.75736  Biso   1.000  C
  H22      1.0000 0.37940  0.66020  0.73090  Biso   1.000  H
  C29      1.0000 0.33609  0.64174  0.78974  Biso   1.000  C
  H23      1.0000 0.33310  0.60260  0.78450  Biso   1.000  H
  C30      1.0000 0.31778  0.71821  0.83490  Biso   1.000  C
  H24      1.0000 0.30110  0.73310  0.86130  Biso   1.000  H
  Cu3      1.0000 0.01418  0.38975  0.62143  Biso   1.000  Cu
  N7       1.0000 0.02065  0.47349  0.62170  Biso   1.000  N
  N8       1.0000 0.96219  0.34458  0.66732  Biso   1.000  N
  N9       1.0000 0.81272  0.16160  0.82837  Biso   1.000  N
  C31      1.0000 0.04213  0.50213  0.65739  Biso   1.000  C
  H25      1.0000 0.05790  0.48130  0.68160  Biso   1.000  H
  C32      1.0000 0.04201  0.56136  0.66007  Biso   1.000  C
  H26      1.0000 0.05650  0.57950  0.68580  Biso   1.000  H
  C33      1.0000 0.02038  0.59318  0.62440  Biso   1.000  C
  C34      1.0000 0.99930  0.56371  0.58695  Biso   1.000  C
  H27      1.0000 0.98490  0.58360  0.56200  Biso   1.000  H
  C35      1.0000 0.99982  0.50469  0.58705  Biso   1.000  C
  H28      1.0000 0.98500  0.48560  0.56180  Biso   1.000  H
  C36      1.0000 0.96957  0.35530  0.71029  Biso   1.000  C
  H29      1.0000 0.99540  0.38750  0.71880  Biso   1.000  H
  C37      1.0000 0.92367  0.29865  0.65625  Biso   1.000  C
  H30      1.0000 0.91700  0.29100  0.62650  Biso   1.000  H
  C38      1.0000 0.94084  0.32112  0.74258  Biso   1.000  C
  H31      1.0000 0.94760  0.33020  0.77210  Biso   1.000  H
  C39      1.0000 0.89353  0.26227  0.68631  Biso   1.000  C
  H32      1.0000 0.86770  0.23060  0.67690  Biso   1.000  H
  C40      1.0000 0.90175  0.27295  0.73094  Biso   1.000  C
  C41      1.0000 0.87050  0.23469  0.76458  Biso   1.000  C
  C42      1.0000 0.84628  0.25540  0.80453  Biso   1.000  C
  H33      1.0000 0.84930  0.29430  0.81080  Biso   1.000  H
  C43      1.0000 0.86441  0.17610  0.75736  Biso   1.000  C
  H34      1.0000 0.87940  0.16020  0.73090  Biso   1.000  H
  C44      1.0000 0.83609  0.14174  0.78974  Biso   1.000  C
  H35      1.0000 0.83310  0.10260  0.78450  Biso   1.000  H
  C45      1.0000 0.81778  0.21821  0.83490  Biso   1.000  C
  H36      1.0000 0.80110  0.23310  0.86130  Biso   1.000  H
  Cu4      1.0000 0.01418  0.88975  0.12143  Biso   1.000  Cu
  N10      1.0000 0.02065  0.97349  0.12170  Biso   1.000  N
  N11      1.0000 0.96219  0.84458  0.16732  Biso   1.000  N
  N12      1.0000 0.81272  0.66160  0.32837  Biso   1.000  N
  C46      1.0000 0.04213  0.00213  0.15739  Biso   1.000  C
  H37      1.0000 0.05790  0.98130  0.18160  Biso   1.000  H
  C47      1.0000 0.04201  0.06136  0.16007  Biso   1.000  C
  H38      1.0000 0.05650  0.07950  0.18580  Biso   1.000  H
  C48      1.0000 0.02038  0.09318  0.12440  Biso   1.000  C
  C49      1.0000 0.99930  0.06371  0.08695  Biso   1.000  C
  H39      1.0000 0.98490  0.08360  0.06200  Biso   1.000  H
  C50      1.0000 0.99982  0.00469  0.08705  Biso   1.000  C
  H40      1.0000 0.98500  0.98560  0.06180  Biso   1.000  H
  C51      1.0000 0.96957  0.85530  0.21029  Biso   1.000  C
  H41      1.0000 0.99540  0.88750  0.21880  Biso   1.000  H
  C52      1.0000 0.92367  0.79865  0.15625  Biso   1.000  C
  H42      1.0000 0.91700  0.79100  0.12650  Biso   1.000  H
  C53      1.0000 0.94084  0.82112  0.24258  Biso   1.000  C
  H43      1.0000 0.94760  0.83020  0.27210  Biso   1.000  H
  C54      1.0000 0.89353  0.76227  0.18631  Biso   1.000  C
  H44      1.0000 0.86770  0.73060  0.17690  Biso   1.000  H
  C55      1.0000 0.90175  0.77295  0.23094  Biso   1.000  C
  C56      1.0000 0.87050  0.73469  0.26458  Biso   1.000  C
  C57      1.0000 0.84628  0.75540  0.30453  Biso   1.000  C
  H45      1.0000 0.84930  0.79430  0.31080  Biso   1.000  H
  C58      1.0000 0.86441  0.67610  0.25736  Biso   1.000  C
  H46      1.0000 0.87940  0.66020  0.23090  Biso   1.000  H
  C59      1.0000 0.83609  0.64174  0.28974  Biso   1.000  C
  H47      1.0000 0.83310  0.60260  0.28450  Biso   1.000  H
  C60      1.0000 0.81778  0.71821  0.33490  Biso   1.000  C
  H48      1.0000 0.80110  0.73310  0.36130  Biso   1.000  H
  Cu5      1.0000 0.51418  0.36025  0.62857  Biso   1.000  Cu
  N13      1.0000 0.52065  0.27651  0.62830  Biso   1.000  N
  N14      1.0000 0.46219  0.40542  0.58268  Biso   1.000  N
  N15      1.0000 0.31272  0.58840  0.42163  Biso   1.000  N
  C61      1.0000 0.54213  0.24787  0.59261  Biso   1.000  C
  H49      1.0000 0.55790  0.26870  0.56840  Biso   1.000  H
  C62      1.0000 0.54201  0.18864  0.58993  Biso   1.000  C
  H50      1.0000 0.55650  0.17050  0.56420  Biso   1.000  H
  C63      1.0000 0.52038  0.15682  0.62560  Biso   1.000  C
  C64      1.0000 0.49930  0.18629  0.66305  Biso   1.000  C
  H51      1.0000 0.48490  0.16640  0.68800  Biso   1.000  H
  C65      1.0000 0.49982  0.24531  0.66295  Biso   1.000  C
  H52      1.0000 0.48500  0.26440  0.68820  Biso   1.000  H
  C66      1.0000 0.46957  0.39470  0.53971  Biso   1.000  C
  H53      1.0000 0.49540  0.36250  0.53120  Biso   1.000  H
  C67      1.0000 0.42367  0.45135  0.59375  Biso   1.000  C
  H54      1.0000 0.41700  0.45900  0.62350  Biso   1.000  H
  C68      1.0000 0.44084  0.42888  0.50742  Biso   1.000  C
  H55      1.0000 0.44760  0.41980  0.47790  Biso   1.000  H
  C69      1.0000 0.39353  0.48773  0.56369  Biso   1.000  C
  H56      1.0000 0.36770  0.51940  0.57310  Biso   1.000  H
  C70      1.0000 0.40175  0.47705  0.51906  Biso   1.000  C
  C71      1.0000 0.37050  0.51531  0.48542  Biso   1.000  C
  C72      1.0000 0.34628  0.49460  0.44547  Biso   1.000  C
  H57      1.0000 0.34930  0.45570  0.43920  Biso   1.000  H
  C73      1.0000 0.36441  0.57390  0.49264  Biso   1.000  C
  H58      1.0000 0.37940  0.58980  0.51910  Biso   1.000  H
  C74      1.0000 0.33609  0.60826  0.46026  Biso   1.000  C
  H59      1.0000 0.33310  0.64740  0.46550  Biso   1.000  H
  C75      1.0000 0.31778  0.53179  0.41510  Biso   1.000  C
  H60      1.0000 0.30110  0.51690  0.38870  Biso   1.000  H
  Cu6      1.0000 0.51418  0.86025  0.12857  Biso   1.000  Cu
  N16      1.0000 0.52065  0.77651  0.12830  Biso   1.000  N
  N17      1.0000 0.46219  0.90542  0.08268  Biso   1.000  N
  N18      1.0000 0.31272  0.08840  0.92163  Biso   1.000  N
  C76      1.0000 0.54213  0.74787  0.09261  Biso   1.000  C
  H61      1.0000 0.55790  0.76870  0.06840  Biso   1.000  H
  C77      1.0000 0.54201  0.68864  0.08993  Biso   1.000  C
  H62      1.0000 0.55650  0.67050  0.06420  Biso   1.000  H
  C78      1.0000 0.52038  0.65682  0.12560  Biso   1.000  C
  C79      1.0000 0.49930  0.68629  0.16305  Biso   1.000  C
  H63      1.0000 0.48490  0.66640  0.18800  Biso   1.000  H
  C80      1.0000 0.49982  0.74531  0.16295  Biso   1.000  C
  H64      1.0000 0.48500  0.76440  0.18820  Biso   1.000  H
  C81      1.0000 0.46957  0.89470  0.03971  Biso   1.000  C
  H65      1.0000 0.49540  0.86250  0.03120  Biso   1.000  H
  C82      1.0000 0.42367  0.95135  0.09375  Biso   1.000  C
  H66      1.0000 0.41700  0.95900  0.12350  Biso   1.000  H
  C83      1.0000 0.44084  0.92888  0.00742  Biso   1.000  C
  H67      1.0000 0.44760  0.91980  0.97790  Biso   1.000  H
  C84      1.0000 0.39353  0.98773  0.06369  Biso   1.000  C
  H68      1.0000 0.36770  0.01940  0.07310  Biso   1.000  H
  C85      1.0000 0.40175  0.97705  0.01906  Biso   1.000  C
  C86      1.0000 0.37050  0.01531  0.98542  Biso   1.000  C
  C87      1.0000 0.34628  0.99460  0.94547  Biso   1.000  C
  H69      1.0000 0.34930  0.95570  0.93920  Biso   1.000  H
  C88      1.0000 0.36441  0.07390  0.99264  Biso   1.000  C
  H70      1.0000 0.37940  0.08980  0.01910  Biso   1.000  H
  C89      1.0000 0.33609  0.10826  0.96026  Biso   1.000  C
  H71      1.0000 0.33310  0.14740  0.96550  Biso   1.000  H
  C90      1.0000 0.31778  0.03179  0.91510  Biso   1.000  C
  H72      1.0000 0.30110  0.01690  0.88870  Biso   1.000  H
  Cu7      1.0000 0.01418  0.36025  0.12857  Biso   1.000  Cu
  N19      1.0000 0.02065  0.27651  0.12830  Biso   1.000  N
  N20      1.0000 0.96219  0.40542  0.08268  Biso   1.000  N
  N21      1.0000 0.81272  0.58840  0.92163  Biso   1.000  N
  C91      1.0000 0.04213  0.24787  0.09261  Biso   1.000  C
  H73      1.0000 0.05790  0.26870  0.06840  Biso   1.000  H
  C92      1.0000 0.04201  0.18864  0.08993  Biso   1.000  C
  H74      1.0000 0.05650  0.17050  0.06420  Biso   1.000  H
  C93      1.0000 0.02038  0.15682  0.12560  Biso   1.000  C
  C94      1.0000 0.99930  0.18629  0.16305  Biso   1.000  C
  H75      1.0000 0.98490  0.16640  0.18800  Biso   1.000  H
  C95      1.0000 0.99982  0.24531  0.16295  Biso   1.000  C
  H76      1.0000 0.98500  0.26440  0.18820  Biso   1.000  H
  C96      1.0000 0.96957  0.39470  0.03971  Biso   1.000  C
  H77      1.0000 0.99540  0.36250  0.03120  Biso   1.000  H
  C97      1.0000 0.92367  0.45135  0.09375  Biso   1.000  C
  H78      1.0000 0.91700  0.45900  0.12350  Biso   1.000  H
  C98      1.0000 0.94084  0.42888  0.00742  Biso   1.000  C
  H79      1.0000 0.94760  0.41980  0.97790  Biso   1.000  H
  C99      1.0000 0.89353  0.48773  0.06369  Biso   1.000  C
  H80      1.0000 0.86770  0.51940  0.07310  Biso   1.000  H
  C100     1.0000 0.90175  0.47705  0.01906  Biso   1.000  C
  C101     1.0000 0.87050  0.51531  0.98542  Biso   1.000  C
  C102     1.0000 0.84628  0.49460  0.94547  Biso   1.000  C
  H81      1.0000 0.84930  0.45570  0.93920  Biso   1.000  H
  C103     1.0000 0.86441  0.57390  0.99264  Biso   1.000  C
  H82      1.0000 0.87940  0.58980  0.01910  Biso   1.000  H
  C104     1.0000 0.83609  0.60826  0.96026  Biso   1.000  C
  H83      1.0000 0.83310  0.64740  0.96550  Biso   1.000  H
  C105     1.0000 0.81778  0.53179  0.91510  Biso   1.000  C
  H84      1.0000 0.80110  0.51690  0.88870  Biso   1.000  H
  Cu8      1.0000 0.01418  0.86025  0.62857  Biso   1.000  Cu
  N22      1.0000 0.02065  0.77651  0.62830  Biso   1.000  N
  N23      1.0000 0.96219  0.90542  0.58268  Biso   1.000  N
  N24      1.0000 0.81272  0.08840  0.42163  Biso   1.000  N
  C106     1.0000 0.04213  0.74787  0.59261  Biso   1.000  C
  H85      1.0000 0.05790  0.76870  0.56840  Biso   1.000  H
  C107     1.0000 0.04201  0.68864  0.58993  Biso   1.000  C
  H86      1.0000 0.05650  0.67050  0.56420  Biso   1.000  H
  C108     1.0000 0.02038  0.65682  0.62560  Biso   1.000  C
  C109     1.0000 0.99930  0.68629  0.66305  Biso   1.000  C
  H87      1.0000 0.98490  0.66640  0.68800  Biso   1.000  H
  C110     1.0000 0.99982  0.74531  0.66295  Biso   1.000  C
  H88      1.0000 0.98500  0.76440  0.68820  Biso   1.000  H
  C111     1.0000 0.96957  0.89470  0.53971  Biso   1.000  C
  H89      1.0000 0.99540  0.86250  0.53120  Biso   1.000  H
  C112     1.0000 0.92367  0.95135  0.59375  Biso   1.000  C
  H90      1.0000 0.91700  0.95900  0.62350  Biso   1.000  H
  C113     1.0000 0.94084  0.92888  0.50742  Biso   1.000  C
  H91      1.0000 0.94760  0.91980  0.47790  Biso   1.000  H
  C114     1.0000 0.89353  0.98773  0.56369  Biso   1.000  C
  H92      1.0000 0.86770  0.01940  0.57310  Biso   1.000  H
  C115     1.0000 0.90175  0.97705  0.51906  Biso   1.000  C
  C116     1.0000 0.87050  0.01531  0.48542  Biso   1.000  C
  C117     1.0000 0.84628  0.99460  0.44547  Biso   1.000  C
  H93      1.0000 0.84930  0.95570  0.43920  Biso   1.000  H
  C118     1.0000 0.86441  0.07390  0.49264  Biso   1.000  C
  H94      1.0000 0.87940  0.08980  0.51910  Biso   1.000  H
  C119     1.0000 0.83609  0.10826  0.46026  Biso   1.000  C
  H95      1.0000 0.83310  0.14740  0.46550  Biso   1.000  H
  C120     1.0000 0.81778  0.03179  0.41510  Biso   1.000  C
  H96      1.0000 0.80110  0.01690  0.38870  Biso   1.000  H
  Cu9      1.0000 0.76418  0.63975  0.87857  Biso   1.000  Cu
  N25      1.0000 0.77065  0.72349  0.87830  Biso   1.000  N
  N26      1.0000 0.71219  0.59458  0.83268  Biso   1.000  N
  N27      1.0000 0.56272  0.41160  0.67163  Biso   1.000  N
  C121     1.0000 0.79213  0.75213  0.84261  Biso   1.000  C
  H97      1.0000 0.80790  0.73130  0.81840  Biso   1.000  H
  C122     1.0000 0.79201  0.81136  0.83993  Biso   1.000  C
  H98      1.0000 0.80650  0.82950  0.81420  Biso   1.000  H
  C123     1.0000 0.77038  0.84318  0.87560  Biso   1.000  C
  C124     1.0000 0.74930  0.81371  0.91305  Biso   1.000  C
  H99      1.0000 0.73490  0.83360  0.93800  Biso   1.000  H
  C125     1.0000 0.74982  0.75469  0.91295  Biso   1.000  C
  H100     1.0000 0.73500  0.73560  0.93820  Biso   1.000  H
  C126     1.0000 0.71957  0.60530  0.78971  Biso   1.000  C
  H101     1.0000 0.74540  0.63750  0.78120  Biso   1.000  H
  C127     1.0000 0.67367  0.54865  0.84375  Biso   1.000  C
  H102     1.0000 0.66700  0.54100  0.87350  Biso   1.000  H
  C128     1.0000 0.69084  0.57112  0.75742  Biso   1.000  C
  H103     1.0000 0.69760  0.58020  0.72790  Biso   1.000  H
  C129     1.0000 0.64353  0.51227  0.81369  Biso   1.000  C
  H104     1.0000 0.61770  0.48060  0.82310  Biso   1.000  H
  C130     1.0000 0.65175  0.52295  0.76906  Biso   1.000  C
  C131     1.0000 0.62050  0.48469  0.73542  Biso   1.000  C
  C132     1.0000 0.59628  0.50540  0.69547  Biso   1.000  C
  H105     1.0000 0.59930  0.54430  0.68920  Biso   1.000  H
  C133     1.0000 0.61441  0.42610  0.74264  Biso   1.000  C
  H106     1.0000 0.62940  0.41020  0.76910  Biso   1.000  H
  C134     1.0000 0.58609  0.39174  0.71026  Biso   1.000  C
  H107     1.0000 0.58310  0.35260  0.71550  Biso   1.000  H
  C135     1.0000 0.56778  0.46821  0.66510  Biso   1.000  C
  H108     1.0000 0.55110  0.48310  0.63870  Biso   1.000  H
  Cu10     1.0000 0.76418  0.13975  0.37857  Biso   1.000  Cu
  N28      1.0000 0.77065  0.22349  0.37830  Biso   1.000  N
  N29      1.0000 0.71219  0.09458  0.33268  Biso   1.000  N
  N30      1.0000 0.56272  0.91160  0.17163  Biso   1.000  N
  C136     1.0000 0.79213  0.25213  0.34261  Biso   1.000  C
  H109     1.0000 0.80790  0.23130  0.31840  Biso   1.000  H
  C137     1.0000 0.79201  0.31136  0.33993  Biso   1.000  C
  H110     1.0000 0.80650  0.32950  0.31420  Biso   1.000  H
  C138     1.0000 0.77038  0.34318  0.37560  Biso   1.000  C
  C139     1.0000 0.74930  0.31371  0.41305  Biso   1.000  C
  H111     1.0000 0.73490  0.33360  0.43800  Biso   1.000  H
  C140     1.0000 0.74982  0.25469  0.41295  Biso   1.000  C
  H112     1.0000 0.73500  0.23560  0.43820  Biso   1.000  H
  C141     1.0000 0.71957  0.10530  0.28971  Biso   1.000  C
  H113     1.0000 0.74540  0.13750  0.28120  Biso   1.000  H
  C142     1.0000 0.67367  0.04865  0.34375  Biso   1.000  C
  H114     1.0000 0.66700  0.04100  0.37350  Biso   1.000  H
  C143     1.0000 0.69084  0.07112  0.25742  Biso   1.000  C
  H115     1.0000 0.69760  0.08020  0.22790  Biso   1.000  H
  C144     1.0000 0.64353  0.01227  0.31369  Biso   1.000  C
  H116     1.0000 0.61770  0.98060  0.32310  Biso   1.000  H
  C145     1.0000 0.65175  0.02295  0.26906  Biso   1.000  C
  C146     1.0000 0.62050  0.98469  0.23542  Biso   1.000  C
  C147     1.0000 0.59628  0.00540  0.19547  Biso   1.000  C
  H117     1.0000 0.59930  0.04430  0.18920  Biso   1.000  H
  C148     1.0000 0.61441  0.92610  0.24264  Biso   1.000  C
  H118     1.0000 0.62940  0.91020  0.26910  Biso   1.000  H
  C149     1.0000 0.58609  0.89174  0.21026  Biso   1.000  C
  H119     1.0000 0.58310  0.85260  0.21550  Biso   1.000  H
  C150     1.0000 0.56778  0.96821  0.16510  Biso   1.000  C
  H120     1.0000 0.55110  0.98310  0.13870  Biso   1.000  H
  Cu11     1.0000 0.26418  0.63975  0.37857  Biso   1.000  Cu
  N31      1.0000 0.27065  0.72349  0.37830  Biso   1.000  N
  N32      1.0000 0.21219  0.59458  0.33268  Biso   1.000  N
  N33      1.0000 0.06272  0.41160  0.17163  Biso   1.000  N
  C151     1.0000 0.29213  0.75213  0.34261  Biso   1.000  C
  H121     1.0000 0.30790  0.73130  0.31840  Biso   1.000  H
  C152     1.0000 0.29201  0.81136  0.33993  Biso   1.000  C
  H122     1.0000 0.30650  0.82950  0.31420  Biso   1.000  H
  C153     1.0000 0.27038  0.84318  0.37560  Biso   1.000  C
  C154     1.0000 0.24930  0.81371  0.41305  Biso   1.000  C
  H123     1.0000 0.23490  0.83360  0.43800  Biso   1.000  H
  C155     1.0000 0.24982  0.75469  0.41295  Biso   1.000  C
  H124     1.0000 0.23500  0.73560  0.43820  Biso   1.000  H
  C156     1.0000 0.21957  0.60530  0.28971  Biso   1.000  C
  H125     1.0000 0.24540  0.63750  0.28120  Biso   1.000  H
  C157     1.0000 0.17367  0.54865  0.34375  Biso   1.000  C
  H126     1.0000 0.16700  0.54100  0.37350  Biso   1.000  H
  C158     1.0000 0.19084  0.57112  0.25742  Biso   1.000  C
  H127     1.0000 0.19760  0.58020  0.22790  Biso   1.000  H
  C159     1.0000 0.14353  0.51227  0.31369  Biso   1.000  C
  H128     1.0000 0.11770  0.48060  0.32310  Biso   1.000  H
  C160     1.0000 0.15175  0.52295  0.26906  Biso   1.000  C
  C161     1.0000 0.12050  0.48469  0.23542  Biso   1.000  C
  C162     1.0000 0.09628  0.50540  0.19547  Biso   1.000  C
  H129     1.0000 0.09930  0.54430  0.18920  Biso   1.000  H
  C163     1.0000 0.11441  0.42610  0.24264  Biso   1.000  C
  H130     1.0000 0.12940  0.41020  0.26910  Biso   1.000  H
  C164     1.0000 0.08609  0.39174  0.21026  Biso   1.000  C
  H131     1.0000 0.08310  0.35260  0.21550  Biso   1.000  H
  C165     1.0000 0.06778  0.46821  0.16510  Biso   1.000  C
  H132     1.0000 0.05110  0.48310  0.13870  Biso   1.000  H
  Cu12     1.0000 0.26418  0.13975  0.87857  Biso   1.000  Cu
  N34      1.0000 0.27065  0.22349  0.87830  Biso   1.000  N
  N35      1.0000 0.21219  0.09458  0.83268  Biso   1.000  N
  N36      1.0000 0.06272  0.91160  0.67163  Biso   1.000  N
  C166     1.0000 0.29213  0.25213  0.84261  Biso   1.000  C
  H133     1.0000 0.30790  0.23130  0.81840  Biso   1.000  H
  C167     1.0000 0.29201  0.31136  0.83993  Biso   1.000  C
  H134     1.0000 0.30650  0.32950  0.81420  Biso   1.000  H
  C168     1.0000 0.27038  0.34318  0.87560  Biso   1.000  C
  C169     1.0000 0.24930  0.31371  0.91305  Biso   1.000  C
  H135     1.0000 0.23490  0.33360  0.93800  Biso   1.000  H
  C170     1.0000 0.24982  0.25469  0.91295  Biso   1.000  C
  H136     1.0000 0.23500  0.23560  0.93820  Biso   1.000  H
  C171     1.0000 0.21957  0.10530  0.78971  Biso   1.000  C
  H137     1.0000 0.24540  0.13750  0.78120  Biso   1.000  H
  C172     1.0000 0.17367  0.04865  0.84375  Biso   1.000  C
  H138     1.0000 0.16700  0.04100  0.87350  Biso   1.000  H
  C173     1.0000 0.19084  0.07112  0.75742  Biso   1.000  C
  H139     1.0000 0.19760  0.08020  0.72790  Biso   1.000  H
  C174     1.0000 0.14353  0.01227  0.81369  Biso   1.000  C
  H140     1.0000 0.11770  0.98060  0.82310  Biso   1.000  H
  C175     1.0000 0.15175  0.02295  0.76906  Biso   1.000  C
  C176     1.0000 0.12050  0.98469  0.73542  Biso   1.000  C
  C177     1.0000 0.09628  0.00540  0.69547  Biso   1.000  C
  H141     1.0000 0.09930  0.04430  0.68920  Biso   1.000  H
  C178     1.0000 0.11441  0.92610  0.74264  Biso   1.000  C
  H142     1.0000 0.12940  0.91020  0.76910  Biso   1.000  H
  C179     1.0000 0.08609  0.89174  0.71026  Biso   1.000  C
  H143     1.0000 0.08310  0.85260  0.71550  Biso   1.000  H
  C180     1.0000 0.06778  0.96821  0.66510  Biso   1.000  C
  H144     1.0000 0.05110  0.98310  0.63870  Biso   1.000  H
  Cu13     1.0000 0.76418  0.61025  0.37143  Biso   1.000  Cu
  N37      1.0000 0.77065  0.52651  0.37170  Biso   1.000  N
  N38      1.0000 0.71219  0.65542  0.41732  Biso   1.000  N
  N39      1.0000 0.56272  0.83840  0.57837  Biso   1.000  N
  C181     1.0000 0.79213  0.49787  0.40739  Biso   1.000  C
  H145     1.0000 0.80790  0.51870  0.43160  Biso   1.000  H
  C182     1.0000 0.79201  0.43864  0.41007  Biso   1.000  C
  H146     1.0000 0.80650  0.42050  0.43580  Biso   1.000  H
  C183     1.0000 0.77038  0.40682  0.37440  Biso   1.000  C
  C184     1.0000 0.74930  0.43629  0.33695  Biso   1.000  C
  H147     1.0000 0.73490  0.41640  0.31200  Biso   1.000  H
  C185     1.0000 0.74982  0.49531  0.33705  Biso   1.000  C
  H148     1.0000 0.73500  0.51440  0.31180  Biso   1.000  H
  C186     1.0000 0.71957  0.64470  0.46029  Biso   1.000  C
  H149     1.0000 0.74540  0.61250  0.46880  Biso   1.000  H
  C187     1.0000 0.67367  0.70135  0.40625  Biso   1.000  C
  H150     1.0000 0.66700  0.70900  0.37650  Biso   1.000  H
  C188     1.0000 0.69084  0.67888  0.49258  Biso   1.000  C
  H151     1.0000 0.69760  0.66980  0.52210  Biso   1.000  H
  C189     1.0000 0.64353  0.73773  0.43631  Biso   1.000  C
  H152     1.0000 0.61770  0.76940  0.42690  Biso   1.000  H
  C190     1.0000 0.65175  0.72705  0.48094  Biso   1.000  C
  C191     1.0000 0.62050  0.76531  0.51458  Biso   1.000  C
  C192     1.0000 0.59628  0.74460  0.55453  Biso   1.000  C
  H153     1.0000 0.59930  0.70570  0.56080  Biso   1.000  H
  C193     1.0000 0.61441  0.82390  0.50736  Biso   1.000  C
  H154     1.0000 0.62940  0.83980  0.48090  Biso   1.000  H
  C194     1.0000 0.58609  0.85826  0.53974  Biso   1.000  C
  H155     1.0000 0.58310  0.89740  0.53450  Biso   1.000  H
  C195     1.0000 0.56778  0.78179  0.58490  Biso   1.000  C
  H156     1.0000 0.55110  0.76690  0.61130  Biso   1.000  H
  Cu14     1.0000 0.76418  0.11025  0.87143  Biso   1.000  Cu
  N40      1.0000 0.77065  0.02651  0.87170  Biso   1.000  N
  N41      1.0000 0.71219  0.15542  0.91732  Biso   1.000  N
  N42      1.0000 0.56272  0.33840  0.07837  Biso   1.000  N
  C196     1.0000 0.79213  0.99787  0.90739  Biso   1.000  C
  H157     1.0000 0.80790  0.01870  0.93160  Biso   1.000  H
  C197     1.0000 0.79201  0.93864  0.91007  Biso   1.000  C
  H158     1.0000 0.80650  0.92050  0.93580  Biso   1.000  H
  C198     1.0000 0.77038  0.90682  0.87440  Biso   1.000  C
  C199     1.0000 0.74930  0.93629  0.83695  Biso   1.000  C
  H159     1.0000 0.73490  0.91640  0.81200  Biso   1.000  H
  C200     1.0000 0.74982  0.99531  0.83705  Biso   1.000  C
  H160     1.0000 0.73500  0.01440  0.81180  Biso   1.000  H
  C201     1.0000 0.71957  0.14470  0.96029  Biso   1.000  C
  H161     1.0000 0.74540  0.11250  0.96880  Biso   1.000  H
  C202     1.0000 0.67367  0.20135  0.90625  Biso   1.000  C
  H162     1.0000 0.66700  0.20900  0.87650  Biso   1.000  H
  C203     1.0000 0.69084  0.17888  0.99258  Biso   1.000  C
  H163     1.0000 0.69760  0.16980  0.02210  Biso   1.000  H
  C204     1.0000 0.64353  0.23773  0.93631  Biso   1.000  C
  H164     1.0000 0.61770  0.26940  0.92690  Biso   1.000  H
  C205     1.0000 0.65175  0.22705  0.98094  Biso   1.000  C
  C206     1.0000 0.62050  0.26531  0.01458  Biso   1.000  C
  C207     1.0000 0.59628  0.24460  0.05453  Biso   1.000  C
  H165     1.0000 0.59930  0.20570  0.06080  Biso   1.000  H
  C208     1.0000 0.61441  0.32390  0.00736  Biso   1.000  C
  H166     1.0000 0.62940  0.33980  0.98090  Biso   1.000  H
  C209     1.0000 0.58609  0.35826  0.03974  Biso   1.000  C
  H167     1.0000 0.58310  0.39740  0.03450  Biso   1.000  H
  C210     1.0000 0.56778  0.28179  0.08490  Biso   1.000  C
  H168     1.0000 0.55110  0.26690  0.11130  Biso   1.000  H
  Cu15     1.0000 0.26418  0.61025  0.87143  Biso   1.000  Cu
  N43      1.0000 0.27065  0.52651  0.87170  Biso   1.000  N
  N44      1.0000 0.21219  0.65542  0.91732  Biso   1.000  N
  N45      1.0000 0.06272  0.83840  0.07837  Biso   1.000  N
  C211     1.0000 0.29213  0.49787  0.90739  Biso   1.000  C
  H169     1.0000 0.30790  0.51870  0.93160  Biso   1.000  H
  C212     1.0000 0.29201  0.43864  0.91007  Biso   1.000  C
  H170     1.0000 0.30650  0.42050  0.93580  Biso   1.000  H
  C213     1.0000 0.27038  0.40682  0.87440  Biso   1.000  C
  C214     1.0000 0.24930  0.43629  0.83695  Biso   1.000  C
  H171     1.0000 0.23490  0.41640  0.81200  Biso   1.000  H
  C215     1.0000 0.24982  0.49531  0.83705  Biso   1.000  C
  H172     1.0000 0.23500  0.51440  0.81180  Biso   1.000  H
  C216     1.0000 0.21957  0.64470  0.96029  Biso   1.000  C
  H173     1.0000 0.24540  0.61250  0.96880  Biso   1.000  H
  C217     1.0000 0.17367  0.70135  0.90625  Biso   1.000  C
  H174     1.0000 0.16700  0.70900  0.87650  Biso   1.000  H
  C218     1.0000 0.19084  0.67888  0.99258  Biso   1.000  C
  H175     1.0000 0.19760  0.66980  0.02210  Biso   1.000  H
  C219     1.0000 0.14353  0.73773  0.93631  Biso   1.000  C
  H176     1.0000 0.11770  0.76940  0.92690  Biso   1.000  H
  C220     1.0000 0.15175  0.72705  0.98094  Biso   1.000  C
  C221     1.0000 0.12050  0.76531  0.01458  Biso   1.000  C
  C222     1.0000 0.09628  0.74460  0.05453  Biso   1.000  C
  H177     1.0000 0.09930  0.70570  0.06080  Biso   1.000  H
  C223     1.0000 0.11441  0.82390  0.00736  Biso   1.000  C
  H178     1.0000 0.12940  0.83980  0.98090  Biso   1.000  H
  C224     1.0000 0.08609  0.85826  0.03974  Biso   1.000  C
  H179     1.0000 0.08310  0.89740  0.03450  Biso   1.000  H
  C225     1.0000 0.06778  0.78179  0.08490  Biso   1.000  C
  H180     1.0000 0.05110  0.76690  0.11130  Biso   1.000  H
  Cu16     1.0000 0.26418  0.11025  0.37143  Biso   1.000  Cu
  N46      1.0000 0.27065  0.02651  0.37170  Biso   1.000  N
  N47      1.0000 0.21219  0.15542  0.41732  Biso   1.000  N
  N48      1.0000 0.06272  0.33840  0.57837  Biso   1.000  N
  C226     1.0000 0.29213  0.99787  0.40739  Biso   1.000  C
  H181     1.0000 0.30790  0.01870  0.43160  Biso   1.000  H
  C227     1.0000 0.29201  0.93864  0.41007  Biso   1.000  C
  H182     1.0000 0.30650  0.92050  0.43580  Biso   1.000  H
  C228     1.0000 0.27038  0.90682  0.37440  Biso   1.000  C
  C229     1.0000 0.24930  0.93629  0.33695  Biso   1.000  C
  H183     1.0000 0.23490  0.91640  0.31200  Biso   1.000  H
  C230     1.0000 0.24982  0.99531  0.33705  Biso   1.000  C
  H184     1.0000 0.23500  0.01440  0.31180  Biso   1.000  H
  C231     1.0000 0.21957  0.14470  0.46029  Biso   1.000  C
  H185     1.0000 0.24540  0.11250  0.46880  Biso   1.000  H
  C232     1.0000 0.17367  0.20135  0.40625  Biso   1.000  C
  H186     1.0000 0.16700  0.20900  0.37650  Biso   1.000  H
  C233     1.0000 0.19084  0.17888  0.49258  Biso   1.000  C
  H187     1.0000 0.19760  0.16980  0.52210  Biso   1.000  H
  C234     1.0000 0.14353  0.23773  0.43631  Biso   1.000  C
  H188     1.0000 0.11770  0.26940  0.42690  Biso   1.000  H
  C235     1.0000 0.15175  0.22705  0.48094  Biso   1.000  C
  C236     1.0000 0.12050  0.26531  0.51458  Biso   1.000  C
  C237     1.0000 0.09628  0.24460  0.55453  Biso   1.000  C
  H189     1.0000 0.09930  0.20570  0.56080  Biso   1.000  H
  C238     1.0000 0.11441  0.32390  0.50736  Biso   1.000  C
  H190     1.0000 0.12940  0.33980  0.48090  Biso   1.000  H
  C239     1.0000 0.08609  0.35826  0.53974  Biso   1.000  C
  H191     1.0000 0.08310  0.39740  0.53450  Biso   1.000  H
  C240     1.0000 0.06778  0.28179  0.58490  Biso   1.000  C
  H192     1.0000 0.05110  0.26690  0.61130  Biso   1.000  H
  Cu17     1.0000 0.23582  0.36025  0.12143  Biso   1.000  Cu
  N49      1.0000 0.22935  0.27651  0.12170  Biso   1.000  N
  N50      1.0000 0.28781  0.40542  0.16732  Biso   1.000  N
  N51      1.0000 0.43728  0.58840  0.32837  Biso   1.000  N
  C241     1.0000 0.20787  0.24787  0.15739  Biso   1.000  C
  H193     1.0000 0.19210  0.26870  0.18160  Biso   1.000  H
  C242     1.0000 0.20799  0.18864  0.16007  Biso   1.000  C
  H194     1.0000 0.19350  0.17050  0.18580  Biso   1.000  H
  C243     1.0000 0.22962  0.15682  0.12440  Biso   1.000  C
  C244     1.0000 0.25070  0.18629  0.08695  Biso   1.000  C
  H195     1.0000 0.26510  0.16640  0.06200  Biso   1.000  H
  C245     1.0000 0.25018  0.24531  0.08705  Biso   1.000  C
  H196     1.0000 0.26500  0.26440  0.06180  Biso   1.000  H
  C246     1.0000 0.28043  0.39470  0.21029  Biso   1.000  C
  H197     1.0000 0.25460  0.36250  0.21880  Biso   1.000  H
  C247     1.0000 0.32633  0.45135  0.15625  Biso   1.000  C
  H198     1.0000 0.33300  0.45900  0.12650  Biso   1.000  H
  C248     1.0000 0.30916  0.42888  0.24258  Biso   1.000  C
  H199     1.0000 0.30240  0.41980  0.27210  Biso   1.000  H
  C249     1.0000 0.35647  0.48773  0.18631  Biso   1.000  C
  H200     1.0000 0.38230  0.51940  0.17690  Biso   1.000  H
  C250     1.0000 0.34825  0.47705  0.23094  Biso   1.000  C
  C251     1.0000 0.37950  0.51531  0.26458  Biso   1.000  C
  C252     1.0000 0.40372  0.49460  0.30453  Biso   1.000  C
  H201     1.0000 0.40070  0.45570  0.31080  Biso   1.000  H
  C253     1.0000 0.38559  0.57390  0.25736  Biso   1.000  C
  H202     1.0000 0.37060  0.58980  0.23090  Biso   1.000  H
  C254     1.0000 0.41391  0.60826  0.28974  Biso   1.000  C
  H203     1.0000 0.41690  0.64740  0.28450  Biso   1.000  H
  C255     1.0000 0.43222  0.53179  0.33490  Biso   1.000  C
  H204     1.0000 0.44890  0.51690  0.36130  Biso   1.000  H
  Cu18     1.0000 0.23582  0.86025  0.62143  Biso   1.000  Cu
  N52      1.0000 0.22935  0.77651  0.62170  Biso   1.000  N
  N53      1.0000 0.28781  0.90542  0.66732  Biso   1.000  N
  N54      1.0000 0.43728  0.08840  0.82837  Biso   1.000  N
  C256     1.0000 0.20787  0.74787  0.65739  Biso   1.000  C
  H205     1.0000 0.19210  0.76870  0.68160  Biso   1.000  H
  C257     1.0000 0.20799  0.68864  0.66007  Biso   1.000  C
  H206     1.0000 0.19350  0.67050  0.68580  Biso   1.000  H
  C258     1.0000 0.22962  0.65682  0.62440  Biso   1.000  C
  C259     1.0000 0.25070  0.68629  0.58695  Biso   1.000  C
  H207     1.0000 0.26510  0.66640  0.56200  Biso   1.000  H
  C260     1.0000 0.25018  0.74531  0.58705  Biso   1.000  C
  H208     1.0000 0.26500  0.76440  0.56180  Biso   1.000  H
  C261     1.0000 0.28043  0.89470  0.71029  Biso   1.000  C
  H209     1.0000 0.25460  0.86250  0.71880  Biso   1.000  H
  C262     1.0000 0.32633  0.95135  0.65625  Biso   1.000  C
  H210     1.0000 0.33300  0.95900  0.62650  Biso   1.000  H
  C263     1.0000 0.30916  0.92888  0.74258  Biso   1.000  C
  H211     1.0000 0.30240  0.91980  0.77210  Biso   1.000  H
  C264     1.0000 0.35647  0.98773  0.68631  Biso   1.000  C
  H212     1.0000 0.38230  0.01940  0.67690  Biso   1.000  H
  C265     1.0000 0.34825  0.97705  0.73094  Biso   1.000  C
  C266     1.0000 0.37950  0.01531  0.76458  Biso   1.000  C
  C267     1.0000 0.40372  0.99460  0.80453  Biso   1.000  C
  H213     1.0000 0.40070  0.95570  0.81080  Biso   1.000  H
  C268     1.0000 0.38559  0.07390  0.75736  Biso   1.000  C
  H214     1.0000 0.37060  0.08980  0.73090  Biso   1.000  H
  C269     1.0000 0.41391  0.10826  0.78974  Biso   1.000  C
  H215     1.0000 0.41690  0.14740  0.78450  Biso   1.000  H
  C270     1.0000 0.43222  0.03179  0.83490  Biso   1.000  C
  H216     1.0000 0.44890  0.01690  0.86130  Biso   1.000  H
  Cu19     1.0000 0.73582  0.36025  0.62143  Biso   1.000  Cu
  N55      1.0000 0.72935  0.27651  0.62170  Biso   1.000  N
  N56      1.0000 0.78781  0.40542  0.66732  Biso   1.000  N
  N57      1.0000 0.93728  0.58840  0.82837  Biso   1.000  N
  C271     1.0000 0.70787  0.24787  0.65739  Biso   1.000  C
  H217     1.0000 0.69210  0.26870  0.68160  Biso   1.000  H
  C272     1.0000 0.70799  0.18864  0.66007  Biso   1.000  C
  H218     1.0000 0.69350  0.17050  0.68580  Biso   1.000  H
  C273     1.0000 0.72962  0.15682  0.62440  Biso   1.000  C
  C274     1.0000 0.75070  0.18629  0.58695  Biso   1.000  C
  H219     1.0000 0.76510  0.16640  0.56200  Biso   1.000  H
  C275     1.0000 0.75018  0.24531  0.58705  Biso   1.000  C
  H220     1.0000 0.76500  0.26440  0.56180  Biso   1.000  H
  C276     1.0000 0.78043  0.39470  0.71029  Biso   1.000  C
  H221     1.0000 0.75460  0.36250  0.71880  Biso   1.000  H
  C277     1.0000 0.82633  0.45135  0.65625  Biso   1.000  C
  H222     1.0000 0.83300  0.45900  0.62650  Biso   1.000  H
  C278     1.0000 0.80916  0.42888  0.74258  Biso   1.000  C
  H223     1.0000 0.80240  0.41980  0.77210  Biso   1.000  H
  C279     1.0000 0.85647  0.48773  0.68631  Biso   1.000  C
  H224     1.0000 0.88230  0.51940  0.67690  Biso   1.000  H
  C280     1.0000 0.84825  0.47705  0.73094  Biso   1.000  C
  C281     1.0000 0.87950  0.51531  0.76458  Biso   1.000  C
  C282     1.0000 0.90372  0.49460  0.80453  Biso   1.000  C
  H225     1.0000 0.90070  0.45570  0.81080  Biso   1.000  H
  C283     1.0000 0.88559  0.57390  0.75736  Biso   1.000  C
  H226     1.0000 0.87060  0.58980  0.73090  Biso   1.000  H
  C284     1.0000 0.91391  0.60826  0.78974  Biso   1.000  C
  H227     1.0000 0.91690  0.64740  0.78450  Biso   1.000  H
  C285     1.0000 0.93222  0.53179  0.83490  Biso   1.000  C
  H228     1.0000 0.94890  0.51690  0.86130  Biso   1.000  H
  Cu20     1.0000 0.73582  0.86025  0.12143  Biso   1.000  Cu
  N58      1.0000 0.72935  0.77651  0.12170  Biso   1.000  N
  N59      1.0000 0.78781  0.90542  0.16732  Biso   1.000  N
  N60      1.0000 0.93728  0.08840  0.32837  Biso   1.000  N
  C286     1.0000 0.70787  0.74787  0.15739  Biso   1.000  C
  H229     1.0000 0.69210  0.76870  0.18160  Biso   1.000  H
  C287     1.0000 0.70799  0.68864  0.16007  Biso   1.000  C
  H230     1.0000 0.69350  0.67050  0.18580  Biso   1.000  H
  C288     1.0000 0.72962  0.65682  0.12440  Biso   1.000  C
  C289     1.0000 0.75070  0.68629  0.08695  Biso   1.000  C
  H231     1.0000 0.76510  0.66640  0.06200  Biso   1.000  H
  C290     1.0000 0.75018  0.74531  0.08705  Biso   1.000  C
  H232     1.0000 0.76500  0.76440  0.06180  Biso   1.000  H
  C291     1.0000 0.78043  0.89470  0.21029  Biso   1.000  C
  H233     1.0000 0.75460  0.86250  0.21880  Biso   1.000  H
  C292     1.0000 0.82633  0.95135  0.15625  Biso   1.000  C
  H234     1.0000 0.83300  0.95900  0.12650  Biso   1.000  H
  C293     1.0000 0.80916  0.92888  0.24258  Biso   1.000  C
  H235     1.0000 0.80240  0.91980  0.27210  Biso   1.000  H
  C294     1.0000 0.85647  0.98773  0.18631  Biso   1.000  C
  H236     1.0000 0.88230  0.01940  0.17690  Biso   1.000  H
  C295     1.0000 0.84825  0.97705  0.23094  Biso   1.000  C
  C296     1.0000 0.87950  0.01531  0.26458  Biso   1.000  C
  C297     1.0000 0.90372  0.99460  0.30453  Biso   1.000  C
  H237     1.0000 0.90070  0.95570  0.31080  Biso   1.000  H
  C298     1.0000 0.88559  0.07390  0.25736  Biso   1.000  C
  H238     1.0000 0.87060  0.08980  0.23090  Biso   1.000  H
  C299     1.0000 0.91391  0.10826  0.28974  Biso   1.000  C
  H239     1.0000 0.91690  0.14740  0.28450  Biso   1.000  H
  C300     1.0000 0.93222  0.03179  0.33490  Biso   1.000  C
  H240     1.0000 0.94890  0.01690  0.36130  Biso   1.000  H
  Cu21     1.0000 0.23582  0.38975  0.62857  Biso   1.000  Cu
  N61      1.0000 0.22935  0.47349  0.62830  Biso   1.000  N
  N62      1.0000 0.28781  0.34458  0.58268  Biso   1.000  N
  N63      1.0000 0.43728  0.16160  0.42163  Biso   1.000  N
  C301     1.0000 0.20787  0.50213  0.59261  Biso   1.000  C
  H241     1.0000 0.19210  0.48130  0.56840  Biso   1.000  H
  C302     1.0000 0.20799  0.56136  0.58993  Biso   1.000  C
  H242     1.0000 0.19350  0.57950  0.56420  Biso   1.000  H
  C303     1.0000 0.22962  0.59318  0.62560  Biso   1.000  C
  C304     1.0000 0.25070  0.56371  0.66305  Biso   1.000  C
  H243     1.0000 0.26510  0.58360  0.68800  Biso   1.000  H
  C305     1.0000 0.25018  0.50469  0.66295  Biso   1.000  C
  H244     1.0000 0.26500  0.48560  0.68820  Biso   1.000  H
  C306     1.0000 0.28043  0.35530  0.53971  Biso   1.000  C
  H245     1.0000 0.25460  0.38750  0.53120  Biso   1.000  H
  C307     1.0000 0.32633  0.29865  0.59375  Biso   1.000  C
  H246     1.0000 0.33300  0.29100  0.62350  Biso   1.000  H
  C308     1.0000 0.30916  0.32112  0.50742  Biso   1.000  C
  H247     1.0000 0.30240  0.33020  0.47790  Biso   1.000  H
  C309     1.0000 0.35647  0.26227  0.56369  Biso   1.000  C
  H248     1.0000 0.38230  0.23060  0.57310  Biso   1.000  H
  C310     1.0000 0.34825  0.27295  0.51906  Biso   1.000  C
  C311     1.0000 0.37950  0.23469  0.48542  Biso   1.000  C
  C312     1.0000 0.40372  0.25540  0.44547  Biso   1.000  C
  H249     1.0000 0.40070  0.29430  0.43920  Biso   1.000  H
  C313     1.0000 0.38559  0.17610  0.49264  Biso   1.000  C
  H250     1.0000 0.37060  0.16020  0.51910  Biso   1.000  H
  C314     1.0000 0.41391  0.14174  0.46026  Biso   1.000  C
  H251     1.0000 0.41690  0.10260  0.46550  Biso   1.000  H
  C315     1.0000 0.43222  0.21821  0.41510  Biso   1.000  C
  H252     1.0000 0.44890  0.23310  0.38870  Biso   1.000  H
  Cu22     1.0000 0.23582  0.88975  0.12857  Biso   1.000  Cu
  N64      1.0000 0.22935  0.97349  0.12830  Biso   1.000  N
  N65      1.0000 0.28781  0.84458  0.08268  Biso   1.000  N
  N66      1.0000 0.43728  0.66160  0.92163  Biso   1.000  N
  C316     1.0000 0.20787  0.00213  0.09261  Biso   1.000  C
  H253     1.0000 0.19210  0.98130  0.06840  Biso   1.000  H
  C317     1.0000 0.20799  0.06136  0.08993  Biso   1.000  C
  H254     1.0000 0.19350  0.07950  0.06420  Biso   1.000  H
  C318     1.0000 0.22962  0.09318  0.12560  Biso   1.000  C
  C319     1.0000 0.25070  0.06371  0.16305  Biso   1.000  C
  H255     1.0000 0.26510  0.08360  0.18800  Biso   1.000  H
  C320     1.0000 0.25018  0.00469  0.16295  Biso   1.000  C
  H256     1.0000 0.26500  0.98560  0.18820  Biso   1.000  H
  C321     1.0000 0.28043  0.85530  0.03971  Biso   1.000  C
  H257     1.0000 0.25460  0.88750  0.03120  Biso   1.000  H
  C322     1.0000 0.32633  0.79865  0.09375  Biso   1.000  C
  H258     1.0000 0.33300  0.79100  0.12350  Biso   1.000  H
  C323     1.0000 0.30916  0.82112  0.00742  Biso   1.000  C
  H259     1.0000 0.30240  0.83020  0.97790  Biso   1.000  H
  C324     1.0000 0.35647  0.76227  0.06369  Biso   1.000  C
  H260     1.0000 0.38230  0.73060  0.07310  Biso   1.000  H
  C325     1.0000 0.34825  0.77295  0.01906  Biso   1.000  C
  C326     1.0000 0.37950  0.73469  0.98542  Biso   1.000  C
  C327     1.0000 0.40372  0.75540  0.94547  Biso   1.000  C
  H261     1.0000 0.40070  0.79430  0.93920  Biso   1.000  H
  C328     1.0000 0.38559  0.67610  0.99264  Biso   1.000  C
  H262     1.0000 0.37060  0.66020  0.01910  Biso   1.000  H
  C329     1.0000 0.41391  0.64174  0.96026  Biso   1.000  C
  H263     1.0000 0.41690  0.60260  0.96550  Biso   1.000  H
  C330     1.0000 0.43222  0.71821  0.91510  Biso   1.000  C
  H264     1.0000 0.44890  0.73310  0.88870  Biso   1.000  H
  Cu23     1.0000 0.73582  0.38975  0.12857  Biso   1.000  Cu
  N67      1.0000 0.72935  0.47349  0.12830  Biso   1.000  N
  N68      1.0000 0.78781  0.34458  0.08268  Biso   1.000  N
  N69      1.0000 0.93728  0.16160  0.92163  Biso   1.000  N
  C331     1.0000 0.70787  0.50213  0.09261  Biso   1.000  C
  H265     1.0000 0.69210  0.48130  0.06840  Biso   1.000  H
  C332     1.0000 0.70799  0.56136  0.08993  Biso   1.000  C
  H266     1.0000 0.69350  0.57950  0.06420  Biso   1.000  H
  C333     1.0000 0.72962  0.59318  0.12560  Biso   1.000  C
  C334     1.0000 0.75070  0.56371  0.16305  Biso   1.000  C
  H267     1.0000 0.76510  0.58360  0.18800  Biso   1.000  H
  C335     1.0000 0.75018  0.50469  0.16295  Biso   1.000  C
  H268     1.0000 0.76500  0.48560  0.18820  Biso   1.000  H
  C336     1.0000 0.78043  0.35530  0.03971  Biso   1.000  C
  H269     1.0000 0.75460  0.38750  0.03120  Biso   1.000  H
  C337     1.0000 0.82633  0.29865  0.09375  Biso   1.000  C
  H270     1.0000 0.83300  0.29100  0.12350  Biso   1.000  H
  C338     1.0000 0.80916  0.32112  0.00742  Biso   1.000  C
  H271     1.0000 0.80240  0.33020  0.97790  Biso   1.000  H
  C339     1.0000 0.85647  0.26227  0.06369  Biso   1.000  C
  H272     1.0000 0.88230  0.23060  0.07310  Biso   1.000  H
  C340     1.0000 0.84825  0.27295  0.01906  Biso   1.000  C
  C341     1.0000 0.87950  0.23469  0.98542  Biso   1.000  C
  C342     1.0000 0.90372  0.25540  0.94547  Biso   1.000  C
  H273     1.0000 0.90070  0.29430  0.93920  Biso   1.000  H
  C343     1.0000 0.88559  0.17610  0.99264  Biso   1.000  C
  H274     1.0000 0.87060  0.16020  0.01910  Biso   1.000  H
  C344     1.0000 0.91391  0.14174  0.96026  Biso   1.000  C
  H275     1.0000 0.91690  0.10260  0.96550  Biso   1.000  H
  C345     1.0000 0.93222  0.21821  0.91510  Biso   1.000  C
  H276     1.0000 0.94890  0.23310  0.88870  Biso   1.000  H
  Cu24     1.0000 0.73582  0.88975  0.62857  Biso   1.000  Cu
  N70      1.0000 0.72935  0.97349  0.62830  Biso   1.000  N
  N71      1.0000 0.78781  0.84458  0.58268  Biso   1.000  N
  N72      1.0000 0.93728  0.66160  0.42163  Biso   1.000  N
  C346     1.0000 0.70787  0.00213  0.59261  Biso   1.000  C
  H277     1.0000 0.69210  0.98130  0.56840  Biso   1.000  H
  C347     1.0000 0.70799  0.06136  0.58993  Biso   1.000  C
  H278     1.0000 0.69350  0.07950  0.56420  Biso   1.000  H
  C348     1.0000 0.72962  0.09318  0.62560  Biso   1.000  C
  C349     1.0000 0.75070  0.06371  0.66305  Biso   1.000  C
  H279     1.0000 0.76510  0.08360  0.68800  Biso   1.000  H
  C350     1.0000 0.75018  0.00469  0.66295  Biso   1.000  C
  H280     1.0000 0.76500  0.98560  0.68820  Biso   1.000  H
  C351     1.0000 0.78043  0.85530  0.53971  Biso   1.000  C
  H281     1.0000 0.75460  0.88750  0.53120  Biso   1.000  H
  C352     1.0000 0.82633  0.79865  0.59375  Biso   1.000  C
  H282     1.0000 0.83300  0.79100  0.62350  Biso   1.000  H
  C353     1.0000 0.80916  0.82112  0.50742  Biso   1.000  C
  H283     1.0000 0.80240  0.83020  0.47790  Biso   1.000  H
  C354     1.0000 0.85647  0.76227  0.56369  Biso   1.000  C
  H284     1.0000 0.88230  0.73060  0.57310  Biso   1.000  H
  C355     1.0000 0.84825  0.77295  0.51906  Biso   1.000  C
  C356     1.0000 0.87950  0.73469  0.48542  Biso   1.000  C
  C357     1.0000 0.90372  0.75540  0.44547  Biso   1.000  C
  H285     1.0000 0.90070  0.79430  0.43920  Biso   1.000  H
  C358     1.0000 0.88559  0.67610  0.49264  Biso   1.000  C
  H286     1.0000 0.87060  0.66020  0.51910  Biso   1.000  H
  C359     1.0000 0.91391  0.64174  0.46026  Biso   1.000  C
  H287     1.0000 0.91690  0.60260  0.46550  Biso   1.000  H
  C360     1.0000 0.93222  0.71821  0.41510  Biso   1.000  C
  H288     1.0000 0.94890  0.73310  0.38870  Biso   1.000  H
  Cu25     1.0000 0.48582  0.61025  0.87857  Biso   1.000  Cu
  N73      1.0000 0.47935  0.52651  0.87830  Biso   1.000  N
  N74      1.0000 0.53781  0.65542  0.83268  Biso   1.000  N
  N75      1.0000 0.68728  0.83840  0.67163  Biso   1.000  N
  C361     1.0000 0.45787  0.49787  0.84261  Biso   1.000  C
  H289     1.0000 0.44210  0.51870  0.81840  Biso   1.000  H
  C362     1.0000 0.45799  0.43864  0.83993  Biso   1.000  C
  H290     1.0000 0.44350  0.42050  0.81420  Biso   1.000  H
  C363     1.0000 0.47962  0.40682  0.87560  Biso   1.000  C
  C364     1.0000 0.50070  0.43629  0.91305  Biso   1.000  C
  H291     1.0000 0.51510  0.41640  0.93800  Biso   1.000  H
  C365     1.0000 0.50018  0.49531  0.91295  Biso   1.000  C
  H292     1.0000 0.51500  0.51440  0.93820  Biso   1.000  H
  C366     1.0000 0.53043  0.64470  0.78971  Biso   1.000  C
  H293     1.0000 0.50460  0.61250  0.78120  Biso   1.000  H
  C367     1.0000 0.57633  0.70135  0.84375  Biso   1.000  C
  H294     1.0000 0.58300  0.70900  0.87350  Biso   1.000  H
  C368     1.0000 0.55916  0.67888  0.75742  Biso   1.000  C
  H295     1.0000 0.55240  0.66980  0.72790  Biso   1.000  H
  C369     1.0000 0.60647  0.73773  0.81369  Biso   1.000  C
  H296     1.0000 0.63230  0.76940  0.82310  Biso   1.000  H
  C370     1.0000 0.59825  0.72705  0.76906  Biso   1.000  C
  C371     1.0000 0.62950  0.76531  0.73542  Biso   1.000  C
  C372     1.0000 0.65372  0.74460  0.69547  Biso   1.000  C
  H297     1.0000 0.65070  0.70570  0.68920  Biso   1.000  H
  C373     1.0000 0.63559  0.82390  0.74264  Biso   1.000  C
  H298     1.0000 0.62060  0.83980  0.76910  Biso   1.000  H
  C374     1.0000 0.66391  0.85826  0.71026  Biso   1.000  C
  H299     1.0000 0.66690  0.89740  0.71550  Biso   1.000  H
  C375     1.0000 0.68222  0.78179  0.66510  Biso   1.000  C
  H300     1.0000 0.69890  0.76690  0.63870  Biso   1.000  H
  Cu26     1.0000 0.48582  0.11025  0.37857  Biso   1.000  Cu
  N76      1.0000 0.47935  0.02651  0.37830  Biso   1.000  N
  N77      1.0000 0.53781  0.15542  0.33268  Biso   1.000  N
  N78      1.0000 0.68728  0.33840  0.17163  Biso   1.000  N
  C376     1.0000 0.45787  0.99787  0.34261  Biso   1.000  C
  H301     1.0000 0.44210  0.01870  0.31840  Biso   1.000  H
  C377     1.0000 0.45799  0.93864  0.33993  Biso   1.000  C
  H302     1.0000 0.44350  0.92050  0.31420  Biso   1.000  H
  C378     1.0000 0.47962  0.90682  0.37560  Biso   1.000  C
  C379     1.0000 0.50070  0.93629  0.41305  Biso   1.000  C
  H303     1.0000 0.51510  0.91640  0.43800  Biso   1.000  H
  C380     1.0000 0.50018  0.99531  0.41295  Biso   1.000  C
  H304     1.0000 0.51500  0.01440  0.43820  Biso   1.000  H
  C381     1.0000 0.53043  0.14470  0.28971  Biso   1.000  C
  H305     1.0000 0.50460  0.11250  0.28120  Biso   1.000  H
  C382     1.0000 0.57633  0.20135  0.34375  Biso   1.000  C
  H306     1.0000 0.58300  0.20900  0.37350  Biso   1.000  H
  C383     1.0000 0.55916  0.17888  0.25742  Biso   1.000  C
  H307     1.0000 0.55240  0.16980  0.22790  Biso   1.000  H
  C384     1.0000 0.60647  0.23773  0.31369  Biso   1.000  C
  H308     1.0000 0.63230  0.26940  0.32310  Biso   1.000  H
  C385     1.0000 0.59825  0.22705  0.26906  Biso   1.000  C
  C386     1.0000 0.62950  0.26531  0.23542  Biso   1.000  C
  C387     1.0000 0.65372  0.24460  0.19547  Biso   1.000  C
  H309     1.0000 0.65070  0.20570  0.18920  Biso   1.000  H
  C388     1.0000 0.63559  0.32390  0.24264  Biso   1.000  C
  H310     1.0000 0.62060  0.33980  0.26910  Biso   1.000  H
  C389     1.0000 0.66391  0.35826  0.21026  Biso   1.000  C
  H311     1.0000 0.66690  0.39740  0.21550  Biso   1.000  H
  C390     1.0000 0.68222  0.28179  0.16510  Biso   1.000  C
  H312     1.0000 0.69890  0.26690  0.13870  Biso   1.000  H
  Cu27     1.0000 0.98582  0.61025  0.37857  Biso   1.000  Cu
  N79      1.0000 0.97935  0.52651  0.37830  Biso   1.000  N
  N80      1.0000 0.03781  0.65542  0.33268  Biso   1.000  N
  N81      1.0000 0.18728  0.83840  0.17163  Biso   1.000  N
  C391     1.0000 0.95787  0.49787  0.34261  Biso   1.000  C
  H313     1.0000 0.94210  0.51870  0.31840  Biso   1.000  H
  C392     1.0000 0.95799  0.43864  0.33993  Biso   1.000  C
  H314     1.0000 0.94350  0.42050  0.31420  Biso   1.000  H
  C393     1.0000 0.97962  0.40682  0.37560  Biso   1.000  C
  C394     1.0000 0.00070  0.43629  0.41305  Biso   1.000  C
  H315     1.0000 0.01510  0.41640  0.43800  Biso   1.000  H
  C395     1.0000 0.00018  0.49531  0.41295  Biso   1.000  C
  H316     1.0000 0.01500  0.51440  0.43820  Biso   1.000  H
  C396     1.0000 0.03043  0.64470  0.28971  Biso   1.000  C
  H317     1.0000 0.00460  0.61250  0.28120  Biso   1.000  H
  C397     1.0000 0.07633  0.70135  0.34375  Biso   1.000  C
  H318     1.0000 0.08300  0.70900  0.37350  Biso   1.000  H
  C398     1.0000 0.05916  0.67888  0.25742  Biso   1.000  C
  H319     1.0000 0.05240  0.66980  0.22790  Biso   1.000  H
  C399     1.0000 0.10647  0.73773  0.31369  Biso   1.000  C
  H320     1.0000 0.13230  0.76940  0.32310  Biso   1.000  H
  C400     1.0000 0.09825  0.72705  0.26906  Biso   1.000  C
  C401     1.0000 0.12950  0.76531  0.23542  Biso   1.000  C
  C402     1.0000 0.15372  0.74460  0.19547  Biso   1.000  C
  H321     1.0000 0.15070  0.70570  0.18920  Biso   1.000  H
  C403     1.0000 0.13559  0.82390  0.24264  Biso   1.000  C
  H322     1.0000 0.12060  0.83980  0.26910  Biso   1.000  H
  C404     1.0000 0.16391  0.85826  0.21026  Biso   1.000  C
  H323     1.0000 0.16690  0.89740  0.21550  Biso   1.000  H
  C405     1.0000 0.18222  0.78179  0.16510  Biso   1.000  C
  H324     1.0000 0.19890  0.76690  0.13870  Biso   1.000  H
  Cu28     1.0000 0.98582  0.11025  0.87857  Biso   1.000  Cu
  N82      1.0000 0.97935  0.02651  0.87830  Biso   1.000  N
  N83      1.0000 0.03781  0.15542  0.83268  Biso   1.000  N
  N84      1.0000 0.18728  0.33840  0.67163  Biso   1.000  N
  C406     1.0000 0.95787  0.99787  0.84261  Biso   1.000  C
  H325     1.0000 0.94210  0.01870  0.81840  Biso   1.000  H
  C407     1.0000 0.95799  0.93864  0.83993  Biso   1.000  C
  H326     1.0000 0.94350  0.92050  0.81420  Biso   1.000  H
  C408     1.0000 0.97962  0.90682  0.87560  Biso   1.000  C
  C409     1.0000 0.00070  0.93629  0.91305  Biso   1.000  C
  H327     1.0000 0.01510  0.91640  0.93800  Biso   1.000  H
  C410     1.0000 0.00018  0.99531  0.91295  Biso   1.000  C
  H328     1.0000 0.01500  0.01440  0.93820  Biso   1.000  H
  C411     1.0000 0.03043  0.14470  0.78971  Biso   1.000  C
  H329     1.0000 0.00460  0.11250  0.78120  Biso   1.000  H
  C412     1.0000 0.07633  0.20135  0.84375  Biso   1.000  C
  H330     1.0000 0.08300  0.20900  0.87350  Biso   1.000  H
  C413     1.0000 0.05916  0.17888  0.75742  Biso   1.000  C
  H331     1.0000 0.05240  0.16980  0.72790  Biso   1.000  H
  C414     1.0000 0.10647  0.23773  0.81369  Biso   1.000  C
  H332     1.0000 0.13230  0.26940  0.82310  Biso   1.000  H
  C415     1.0000 0.09825  0.22705  0.76906  Biso   1.000  C
  C416     1.0000 0.12950  0.26531  0.73542  Biso   1.000  C
  C417     1.0000 0.15372  0.24460  0.69547  Biso   1.000  C
  H333     1.0000 0.15070  0.20570  0.68920  Biso   1.000  H
  C418     1.0000 0.13559  0.32390  0.74264  Biso   1.000  C
  H334     1.0000 0.12060  0.33980  0.76910  Biso   1.000  H
  C419     1.0000 0.16391  0.35826  0.71026  Biso   1.000  C
  H335     1.0000 0.16690  0.39740  0.71550  Biso   1.000  H
  C420     1.0000 0.18222  0.28179  0.66510  Biso   1.000  C
  H336     1.0000 0.19890  0.26690  0.63870  Biso   1.000  H
  Cu29     1.0000 0.48582  0.63975  0.37143  Biso   1.000  Cu
  N85      1.0000 0.47935  0.72349  0.37170  Biso   1.000  N
  N86      1.0000 0.53781  0.59458  0.41732  Biso   1.000  N
  N87      1.0000 0.68728  0.41160  0.57837  Biso   1.000  N
  C421     1.0000 0.45787  0.75213  0.40739  Biso   1.000  C
  H337     1.0000 0.44210  0.73130  0.43160  Biso   1.000  H
  C422     1.0000 0.45799  0.81136  0.41007  Biso   1.000  C
  H338     1.0000 0.44350  0.82950  0.43580  Biso   1.000  H
  C423     1.0000 0.47962  0.84318  0.37440  Biso   1.000  C
  C424     1.0000 0.50070  0.81371  0.33695  Biso   1.000  C
  H339     1.0000 0.51510  0.83360  0.31200  Biso   1.000  H
  C425     1.0000 0.50018  0.75469  0.33705  Biso   1.000  C
  H340     1.0000 0.51500  0.73560  0.31180  Biso   1.000  H
  C426     1.0000 0.53043  0.60530  0.46029  Biso   1.000  C
  H341     1.0000 0.50460  0.63750  0.46880  Biso   1.000  H
  C427     1.0000 0.57633  0.54865  0.40625  Biso   1.000  C
  H342     1.0000 0.58300  0.54100  0.37650  Biso   1.000  H
  C428     1.0000 0.55916  0.57112  0.49258  Biso   1.000  C
  H343     1.0000 0.55240  0.58020  0.52210  Biso   1.000  H
  C429     1.0000 0.60647  0.51227  0.43631  Biso   1.000  C
  H344     1.0000 0.63230  0.48060  0.42690  Biso   1.000  H
  C430     1.0000 0.59825  0.52295  0.48094  Biso   1.000  C
  C431     1.0000 0.62950  0.48469  0.51458  Biso   1.000  C
  C432     1.0000 0.65372  0.50540  0.55453  Biso   1.000  C
  H345     1.0000 0.65070  0.54430  0.56080  Biso   1.000  H
  C433     1.0000 0.63559  0.42610  0.50736  Biso   1.000  C
  H346     1.0000 0.62060  0.41020  0.48090  Biso   1.000  H
  C434     1.0000 0.66391  0.39174  0.53974  Biso   1.000  C
  H347     1.0000 0.66690  0.35260  0.53450  Biso   1.000  H
  C435     1.0000 0.68222  0.46821  0.58490  Biso   1.000  C
  H348     1.0000 0.69890  0.48310  0.61130  Biso   1.000  H
  Cu30     1.0000 0.48582  0.13975  0.87143  Biso   1.000  Cu
  N88      1.0000 0.47935  0.22349  0.87170  Biso   1.000  N
  N89      1.0000 0.53781  0.09458  0.91732  Biso   1.000  N
  N90      1.0000 0.68728  0.91160  0.07837  Biso   1.000  N
  C436     1.0000 0.45787  0.25213  0.90739  Biso   1.000  C
  H349     1.0000 0.44210  0.23130  0.93160  Biso   1.000  H
  C437     1.0000 0.45799  0.31136  0.91007  Biso   1.000  C
  H350     1.0000 0.44350  0.32950  0.93580  Biso   1.000  H
  C438     1.0000 0.47962  0.34318  0.87440  Biso   1.000  C
  C439     1.0000 0.50070  0.31371  0.83695  Biso   1.000  C
  H351     1.0000 0.51510  0.33360  0.81200  Biso   1.000  H
  C440     1.0000 0.50018  0.25469  0.83705  Biso   1.000  C
  H352     1.0000 0.51500  0.23560  0.81180  Biso   1.000  H
  C441     1.0000 0.53043  0.10530  0.96029  Biso   1.000  C
  H353     1.0000 0.50460  0.13750  0.96880  Biso   1.000  H
  C442     1.0000 0.57633  0.04865  0.90625  Biso   1.000  C
  H354     1.0000 0.58300  0.04100  0.87650  Biso   1.000  H
  C443     1.0000 0.55916  0.07112  0.99258  Biso   1.000  C
  H355     1.0000 0.55240  0.08020  0.02210  Biso   1.000  H
  C444     1.0000 0.60647  0.01227  0.93631  Biso   1.000  C
  H356     1.0000 0.63230  0.98060  0.92690  Biso   1.000  H
  C445     1.0000 0.59825  0.02295  0.98094  Biso   1.000  C
  C446     1.0000 0.62950  0.98469  0.01458  Biso   1.000  C
  C447     1.0000 0.65372  0.00540  0.05453  Biso   1.000  C
  H357     1.0000 0.65070  0.04430  0.06080  Biso   1.000  H
  C448     1.0000 0.63559  0.92610  0.00736  Biso   1.000  C
  H358     1.0000 0.62060  0.91020  0.98090  Biso   1.000  H
  C449     1.0000 0.66391  0.89174  0.03974  Biso   1.000  C
  H359     1.0000 0.66690  0.85260  0.03450  Biso   1.000  H
  C450     1.0000 0.68222  0.96821  0.08490  Biso   1.000  C
  H360     1.0000 0.69890  0.98310  0.11130  Biso   1.000  H
  Cu31     1.0000 0.98582  0.63975  0.87143  Biso   1.000  Cu
  N91      1.0000 0.97935  0.72349  0.87170  Biso   1.000  N
  N92      1.0000 0.03781  0.59458  0.91732  Biso   1.000  N
  N93      1.0000 0.18728  0.41160  0.07837  Biso   1.000  N
  C451     1.0000 0.95787  0.75213  0.90739  Biso   1.000  C
  H361     1.0000 0.94210  0.73130  0.93160  Biso   1.000  H
  C452     1.0000 0.95799  0.81136  0.91007  Biso   1.000  C
  H362     1.0000 0.94350  0.82950  0.93580  Biso   1.000  H
  C453     1.0000 0.97962  0.84318  0.87440  Biso   1.000  C
  C454     1.0000 0.00070  0.81371  0.83695  Biso   1.000  C
  H363     1.0000 0.01510  0.83360  0.81200  Biso   1.000  H
  C455     1.0000 0.00018  0.75469  0.83705  Biso   1.000  C
  H364     1.0000 0.01500  0.73560  0.81180  Biso   1.000  H
  C456     1.0000 0.03043  0.60530  0.96029  Biso   1.000  C
  H365     1.0000 0.00460  0.63750  0.96880  Biso   1.000  H
  C457     1.0000 0.07633  0.54865  0.90625  Biso   1.000  C
  H366     1.0000 0.08300  0.54100  0.87650  Biso   1.000  H
  C458     1.0000 0.05916  0.57112  0.99258  Biso   1.000  C
  H367     1.0000 0.05240  0.58020  0.02210  Biso   1.000  H
  C459     1.0000 0.10647  0.51227  0.93631  Biso   1.000  C
  H368     1.0000 0.13230  0.48060  0.92690  Biso   1.000  H
  C460     1.0000 0.09825  0.52295  0.98094  Biso   1.000  C
  C461     1.0000 0.12950  0.48469  0.01458  Biso   1.000  C
  C462     1.0000 0.15372  0.50540  0.05453  Biso   1.000  C
  H369     1.0000 0.15070  0.54430  0.06080  Biso   1.000  H
  C463     1.0000 0.13559  0.42610  0.00736  Biso   1.000  C
  H370     1.0000 0.12060  0.41020  0.98090  Biso   1.000  H
  C464     1.0000 0.16391  0.39174  0.03974  Biso   1.000  C
  H371     1.0000 0.16690  0.35260  0.03450  Biso   1.000  H
  C465     1.0000 0.18222  0.46821  0.08490  Biso   1.000  C
  H372     1.0000 0.19890  0.48310  0.11130  Biso   1.000  H
  Cu32     1.0000 0.98582  0.13975  0.37143  Biso   1.000  Cu
  N94      1.0000 0.97935  0.22349  0.37170  Biso   1.000  N
  N95      1.0000 0.03781  0.09458  0.41732  Biso   1.000  N
  N96      1.0000 0.18728  0.91160  0.57837  Biso   1.000  N
  C466     1.0000 0.95787  0.25213  0.40739  Biso   1.000  C
  H373     1.0000 0.94210  0.23130  0.43160  Biso   1.000  H
  C467     1.0000 0.95799  0.31136  0.41007  Biso   1.000  C
  H374     1.0000 0.94350  0.32950  0.43580  Biso   1.000  H
  C468     1.0000 0.97962  0.34318  0.37440  Biso   1.000  C
  C469     1.0000 0.00070  0.31371  0.33695  Biso   1.000  C
  H375     1.0000 0.01510  0.33360  0.31200  Biso   1.000  H
  C470     1.0000 0.00018  0.25469  0.33705  Biso   1.000  C
  H376     1.0000 0.01500  0.23560  0.31180  Biso   1.000  H
  C471     1.0000 0.03043  0.10530  0.46029  Biso   1.000  C
  H377     1.0000 0.00460  0.13750  0.46880  Biso   1.000  H
  C472     1.0000 0.07633  0.04865  0.40625  Biso   1.000  C
  H378     1.0000 0.08300  0.04100  0.37650  Biso   1.000  H
  C473     1.0000 0.05916  0.07112  0.49258  Biso   1.000  C
  H379     1.0000 0.05240  0.08020  0.52210  Biso   1.000  H
  C474     1.0000 0.10647  0.01227  0.43631  Biso   1.000  C
  H380     1.0000 0.13230  0.98060  0.42690  Biso   1.000  H
  C475     1.0000 0.09825  0.02295  0.48094  Biso   1.000  C
  C476     1.0000 0.12950  0.98469  0.51458  Biso   1.000  C
  C477     1.0000 0.15372  0.00540  0.55453  Biso   1.000  C
  H381     1.0000 0.15070  0.04430  0.56080  Biso   1.000  H
  C478     1.0000 0.13559  0.92610  0.50736  Biso   1.000  C
  H382     1.0000 0.12060  0.91020  0.48090  Biso   1.000  H
  C479     1.0000 0.16391  0.89174  0.53974  Biso   1.000  C
  H383     1.0000 0.16690  0.85260  0.53450  Biso   1.000  H
  C480     1.0000 0.18222  0.96821  0.58490  Biso   1.000  C
  H384     1.0000 0.19890  0.98310  0.61130  Biso   1.000  H
