data_image0
_cell_length_a       17.0192
_cell_length_b       57.8205
_cell_length_c       32.3846
_cell_angle_alpha    90
_cell_angle_beta     90
_cell_angle_gamma    90

_symmetry_space_group_name_H-M    "P 1"
_symmetry_int_tables_number       1

loop_
  _symmetry_equiv_pos_as_xyz
  'x, y, z'

loop_
  _atom_site_label
  _atom_site_occupancy
  _atom_site_fract_x
  _atom_site_fract_y
  _atom_site_fract_z
  _atom_site_thermal_displace_type
  _atom_site_B_iso_or_equiv
  _atom_site_type_symbol
  Gd1      1.0000 0.76830  0.13576  0.73058  Biso   1.000  Gd
  O1       1.0000 0.00420  0.13001  0.70492  Biso   1.000  O
  O2       1.0000 0.89210  0.14860  0.71427  Biso   1.000  O
  O3       1.0000 0.19640  0.13789  0.33364  Biso   1.000  O
  O4       1.0000 0.23220  0.17022  0.30871  Biso   1.000  O
  O5       1.0000 0.11470  0.09485  0.71863  Biso   1.000  O
  O6       1.0000 0.21000  0.11795  0.70540  Biso   1.000  O
  O7       1.0000 0.32420  0.10700  0.30910  Biso   1.000  O
  O8       1.0000 0.43160  0.08646  0.30702  Biso   1.000  O
  C1       1.0000 0.01060  0.23761  0.51359  Biso   1.000  C
  C2       1.0000 0.99790  0.22406  0.54978  Biso   1.000  C
  H1       1.0000 0.97610  0.23080  0.57320  Biso   1.000  H
  C3       1.0000 0.01770  0.20094  0.55021  Biso   1.000  C
  C4       1.0000 0.05160  0.19083  0.51682  Biso   1.000  C
  H2       1.0000 0.06670  0.17540  0.51790  Biso   1.000  H
  C5       1.0000 0.06390  0.20400  0.47970  Biso   1.000  C
  C6       1.0000 0.04400  0.22737  0.47997  Biso   1.000  C
  H3       1.0000 0.05370  0.23620  0.45660  Biso   1.000  H
  C7       1.0000 0.00120  0.18696  0.58821  Biso   1.000  C
  C8       1.0000 0.93370  0.19010  0.61170  Biso   1.000  C
  H4       1.0000 0.89770  0.20140  0.60400  Biso   1.000  H
  C9       1.0000 0.91890  0.17666  0.64650  Biso   1.000  C
  H5       1.0000 0.87270  0.17880  0.66150  Biso   1.000  H
  C10      1.0000 0.97190  0.16047  0.65872  Biso   1.000  C
  C11      1.0000 0.03970  0.15695  0.63660  Biso   1.000  C
  H6       1.0000 0.07570  0.14590  0.64530  Biso   1.000  H
  C12      1.0000 0.05440  0.16981  0.60154  Biso   1.000  C
  H7       1.0000 0.10000  0.16710  0.58650  Biso   1.000  H
  C13      1.0000 0.95550  0.14459  0.69620  Biso   1.000  C
  C14      1.0000 0.10030  0.19250  0.44284  Biso   1.000  C
  C15      1.0000 0.09510  0.16965  0.43630  Biso   1.000  C
  H8       1.0000 0.06840  0.16060  0.45540  Biso   1.000  H
  C16      1.0000 0.12900  0.15892  0.40120  Biso   1.000  C
  H9       1.0000 0.12410  0.14300  0.39760  Biso   1.000  H
  C17      1.0000 0.16640  0.17097  0.37415  Biso   1.000  C
  C18      1.0000 0.16850  0.19347  0.37970  Biso   1.000  C
  H10      1.0000 0.19310  0.20250  0.35980  Biso   1.000  H
  C19      1.0000 0.13640  0.20412  0.41320  Biso   1.000  C
  H11      1.0000 0.14000  0.22010  0.41530  Biso   1.000  H
  C20      1.0000 0.20280  0.15949  0.33630  Biso   1.000  C
  C21      1.0000 0.25120  0.01308  0.51348  Biso   1.000  C
  C22      1.0000 0.23280  0.02595  0.54822  Biso   1.000  C
  H12      1.0000 0.21880  0.01830  0.57240  Biso   1.000  H
  C23      1.0000 0.23480  0.05007  0.54796  Biso   1.000  C
  C24      1.0000 0.25750  0.06115  0.51162  Biso   1.000  C
  H13      1.0000 0.25970  0.07720  0.51090  Biso   1.000  H
  C25      1.0000 0.27670  0.04870  0.47652  Biso   1.000  C
  C26      1.0000 0.27530  0.02488  0.47794  Biso   1.000  C
  H14      1.0000 0.29070  0.01650  0.45480  Biso   1.000  H
  C27      1.0000 0.21570  0.06349  0.58579  Biso   1.000  C
  C28      1.0000 0.26050  0.08271  0.59610  Biso   1.000  C
  H15      1.0000 0.30190  0.08700  0.57900  Biso   1.000  H
  C29      1.0000 0.24530  0.09538  0.63040  Biso   1.000  C
  H16      1.0000 0.27510  0.10840  0.63650  Biso   1.000  H
  C30      1.0000 0.18430  0.08857  0.65660  Biso   1.000  C
  C31      1.0000 0.14110  0.07047  0.64650  Biso   1.000  C
  H17      1.0000 0.09900  0.06640  0.66340  Biso   1.000  H
  C32      1.0000 0.15660  0.05733  0.61165  Biso   1.000  C
  H18      1.0000 0.12650  0.04430  0.60600  Biso   1.000  H
  C33      1.0000 0.16990  0.10190  0.69710  Biso   1.000  C
  C34      1.0000 0.30180  0.06061  0.43739  Biso   1.000  C
  C35      1.0000 0.36390  0.05189  0.41456  Biso   1.000  C
  H19      1.0000 0.39020  0.03870  0.42350  Biso   1.000  H
  C36      1.0000 0.38680  0.06284  0.37834  Biso   1.000  C
  H20      1.0000 0.42950  0.05730  0.36340  Biso   1.000  H
  C37      1.0000 0.34610  0.08210  0.36435  Biso   1.000  C
  C38      1.0000 0.28490  0.09049  0.38698  Biso   1.000  C
  H21      1.0000 0.25740  0.10340  0.37770  Biso   1.000  H
  C39      1.0000 0.26280  0.07987  0.42429  Biso   1.000  C
  H22      1.0000 0.22190  0.08590  0.43990  Biso   1.000  H
  C40      1.0000 0.36980  0.09269  0.32280  Biso   1.000  C
  Gd2      1.0000 0.26830  0.63576  0.73058  Biso   1.000  Gd
  O9       1.0000 0.50420  0.63001  0.70492  Biso   1.000  O
  O10      1.0000 0.39210  0.64860  0.71427  Biso   1.000  O
  O11      1.0000 0.69640  0.63789  0.33364  Biso   1.000  O
  O12      1.0000 0.73220  0.67022  0.30871  Biso   1.000  O
  O13      1.0000 0.61470  0.59485  0.71863  Biso   1.000  O
  O14      1.0000 0.71000  0.61795  0.70540  Biso   1.000  O
  O15      1.0000 0.82420  0.60700  0.30910  Biso   1.000  O
  O16      1.0000 0.93160  0.58646  0.30702  Biso   1.000  O
  C41      1.0000 0.51060  0.73761  0.51359  Biso   1.000  C
  C42      1.0000 0.49790  0.72406  0.54978  Biso   1.000  C
  H23      1.0000 0.47610  0.73080  0.57320  Biso   1.000  H
  C43      1.0000 0.51770  0.70094  0.55021  Biso   1.000  C
  C44      1.0000 0.55160  0.69083  0.51682  Biso   1.000  C
  H24      1.0000 0.56670  0.67540  0.51790  Biso   1.000  H
  C45      1.0000 0.56390  0.70400  0.47970  Biso   1.000  C
  C46      1.0000 0.54400  0.72737  0.47997  Biso   1.000  C
  H25      1.0000 0.55370  0.73620  0.45660  Biso   1.000  H
  C47      1.0000 0.50120  0.68696  0.58821  Biso   1.000  C
  C48      1.0000 0.43370  0.69010  0.61170  Biso   1.000  C
  H26      1.0000 0.39770  0.70140  0.60400  Biso   1.000  H
  C49      1.0000 0.41890  0.67666  0.64650  Biso   1.000  C
  H27      1.0000 0.37270  0.67880  0.66150  Biso   1.000  H
  C50      1.0000 0.47190  0.66047  0.65872  Biso   1.000  C
  C51      1.0000 0.53970  0.65695  0.63660  Biso   1.000  C
  H28      1.0000 0.57570  0.64590  0.64530  Biso   1.000  H
  C52      1.0000 0.55440  0.66981  0.60154  Biso   1.000  C
  H29      1.0000 0.60000  0.66710  0.58650  Biso   1.000  H
  C53      1.0000 0.45550  0.64459  0.69620  Biso   1.000  C
  C54      1.0000 0.60030  0.69250  0.44284  Biso   1.000  C
  C55      1.0000 0.59510  0.66965  0.43630  Biso   1.000  C
  H30      1.0000 0.56840  0.66060  0.45540  Biso   1.000  H
  C56      1.0000 0.62900  0.65892  0.40120  Biso   1.000  C
  H31      1.0000 0.62410  0.64300  0.39760  Biso   1.000  H
  C57      1.0000 0.66640  0.67097  0.37415  Biso   1.000  C
  C58      1.0000 0.66850  0.69347  0.37970  Biso   1.000  C
  H32      1.0000 0.69310  0.70250  0.35980  Biso   1.000  H
  C59      1.0000 0.63640  0.70412  0.41320  Biso   1.000  C
  H33      1.0000 0.64000  0.72010  0.41530  Biso   1.000  H
  C60      1.0000 0.70280  0.65949  0.33630  Biso   1.000  C
  C61      1.0000 0.75120  0.51308  0.51348  Biso   1.000  C
  C62      1.0000 0.73280  0.52595  0.54822  Biso   1.000  C
  H34      1.0000 0.71880  0.51830  0.57240  Biso   1.000  H
  C63      1.0000 0.73480  0.55007  0.54796  Biso   1.000  C
  C64      1.0000 0.75750  0.56115  0.51162  Biso   1.000  C
  H35      1.0000 0.75970  0.57720  0.51090  Biso   1.000  H
  C65      1.0000 0.77670  0.54870  0.47652  Biso   1.000  C
  C66      1.0000 0.77530  0.52488  0.47794  Biso   1.000  C
  H36      1.0000 0.79070  0.51650  0.45480  Biso   1.000  H
  C67      1.0000 0.71570  0.56349  0.58579  Biso   1.000  C
  C68      1.0000 0.76050  0.58271  0.59610  Biso   1.000  C
  H37      1.0000 0.80190  0.58700  0.57900  Biso   1.000  H
  C69      1.0000 0.74530  0.59538  0.63040  Biso   1.000  C
  H38      1.0000 0.77510  0.60840  0.63650  Biso   1.000  H
  C70      1.0000 0.68430  0.58857  0.65660  Biso   1.000  C
  C71      1.0000 0.64110  0.57047  0.64650  Biso   1.000  C
  H39      1.0000 0.59900  0.56640  0.66340  Biso   1.000  H
  C72      1.0000 0.65660  0.55733  0.61165  Biso   1.000  C
  H40      1.0000 0.62650  0.54430  0.60600  Biso   1.000  H
  C73      1.0000 0.66990  0.60190  0.69710  Biso   1.000  C
  C74      1.0000 0.80180  0.56061  0.43739  Biso   1.000  C
  C75      1.0000 0.86390  0.55189  0.41456  Biso   1.000  C
  H41      1.0000 0.89020  0.53870  0.42350  Biso   1.000  H
  C76      1.0000 0.88680  0.56284  0.37834  Biso   1.000  C
  H42      1.0000 0.92950  0.55730  0.36340  Biso   1.000  H
  C77      1.0000 0.84610  0.58210  0.36435  Biso   1.000  C
  C78      1.0000 0.78490  0.59049  0.38698  Biso   1.000  C
  H43      1.0000 0.75740  0.60340  0.37770  Biso   1.000  H
  C79      1.0000 0.76280  0.57987  0.42429  Biso   1.000  C
  H44      1.0000 0.72190  0.58590  0.43990  Biso   1.000  H
  C80      1.0000 0.86980  0.59269  0.32280  Biso   1.000  C
  Gd3      1.0000 0.73170  0.86424  0.73058  Biso   1.000  Gd
  O17      1.0000 0.49580  0.86999  0.70492  Biso   1.000  O
  O18      1.0000 0.60790  0.85140  0.71427  Biso   1.000  O
  O19      1.0000 0.30360  0.86211  0.33364  Biso   1.000  O
  O20      1.0000 0.26780  0.82978  0.30871  Biso   1.000  O
  O21      1.0000 0.38530  0.90515  0.71863  Biso   1.000  O
  O22      1.0000 0.29000  0.88205  0.70540  Biso   1.000  O
  O23      1.0000 0.17580  0.89300  0.30910  Biso   1.000  O
  O24      1.0000 0.06840  0.91354  0.30702  Biso   1.000  O
  C81      1.0000 0.48940  0.76239  0.51359  Biso   1.000  C
  C82      1.0000 0.50210  0.77594  0.54978  Biso   1.000  C
  H45      1.0000 0.52390  0.76920  0.57320  Biso   1.000  H
  C83      1.0000 0.48230  0.79906  0.55021  Biso   1.000  C
  C84      1.0000 0.44840  0.80917  0.51682  Biso   1.000  C
  H46      1.0000 0.43330  0.82460  0.51790  Biso   1.000  H
  C85      1.0000 0.43610  0.79600  0.47970  Biso   1.000  C
  C86      1.0000 0.45600  0.77263  0.47997  Biso   1.000  C
  H47      1.0000 0.44630  0.76380  0.45660  Biso   1.000  H
  C87      1.0000 0.49880  0.81304  0.58821  Biso   1.000  C
  C88      1.0000 0.56630  0.80990  0.61170  Biso   1.000  C
  H48      1.0000 0.60230  0.79860  0.60400  Biso   1.000  H
  C89      1.0000 0.58110  0.82334  0.64650  Biso   1.000  C
  H49      1.0000 0.62730  0.82120  0.66150  Biso   1.000  H
  C90      1.0000 0.52810  0.83953  0.65872  Biso   1.000  C
  C91      1.0000 0.46030  0.84305  0.63660  Biso   1.000  C
  H50      1.0000 0.42430  0.85410  0.64530  Biso   1.000  H
  C92      1.0000 0.44560  0.83019  0.60154  Biso   1.000  C
  H51      1.0000 0.40000  0.83290  0.58650  Biso   1.000  H
  C93      1.0000 0.54450  0.85541  0.69620  Biso   1.000  C
  C94      1.0000 0.39970  0.80750  0.44284  Biso   1.000  C
  C95      1.0000 0.40490  0.83035  0.43630  Biso   1.000  C
  H52      1.0000 0.43160  0.83940  0.45540  Biso   1.000  H
  C96      1.0000 0.37100  0.84108  0.40120  Biso   1.000  C
  H53      1.0000 0.37590  0.85700  0.39760  Biso   1.000  H
  C97      1.0000 0.33360  0.82903  0.37415  Biso   1.000  C
  C98      1.0000 0.33150  0.80653  0.37970  Biso   1.000  C
  H54      1.0000 0.30690  0.79750  0.35980  Biso   1.000  H
  C99      1.0000 0.36360  0.79588  0.41320  Biso   1.000  C
  H55      1.0000 0.36000  0.77990  0.41530  Biso   1.000  H
  C100     1.0000 0.29720  0.84051  0.33630  Biso   1.000  C
  C101     1.0000 0.24880  0.98692  0.51348  Biso   1.000  C
  C102     1.0000 0.26720  0.97405  0.54822  Biso   1.000  C
  H56      1.0000 0.28120  0.98170  0.57240  Biso   1.000  H
  C103     1.0000 0.26520  0.94993  0.54796  Biso   1.000  C
  C104     1.0000 0.24250  0.93885  0.51162  Biso   1.000  C
  H57      1.0000 0.24030  0.92280  0.51090  Biso   1.000  H
  C105     1.0000 0.22330  0.95130  0.47652  Biso   1.000  C
  C106     1.0000 0.22470  0.97512  0.47794  Biso   1.000  C
  H58      1.0000 0.20930  0.98350  0.45480  Biso   1.000  H
  C107     1.0000 0.28430  0.93651  0.58579  Biso   1.000  C
  C108     1.0000 0.23950  0.91729  0.59610  Biso   1.000  C
  H59      1.0000 0.19810  0.91300  0.57900  Biso   1.000  H
  C109     1.0000 0.25470  0.90462  0.63040  Biso   1.000  C
  H60      1.0000 0.22490  0.89160  0.63650  Biso   1.000  H
  C110     1.0000 0.31570  0.91143  0.65660  Biso   1.000  C
  C111     1.0000 0.35890  0.92953  0.64650  Biso   1.000  C
  H61      1.0000 0.40100  0.93360  0.66340  Biso   1.000  H
  C112     1.0000 0.34340  0.94267  0.61165  Biso   1.000  C
  H62      1.0000 0.37350  0.95570  0.60600  Biso   1.000  H
  C113     1.0000 0.33010  0.89810  0.69710  Biso   1.000  C
  C114     1.0000 0.19820  0.93939  0.43739  Biso   1.000  C
  C115     1.0000 0.13610  0.94811  0.41456  Biso   1.000  C
  H63      1.0000 0.10980  0.96130  0.42350  Biso   1.000  H
  C116     1.0000 0.11320  0.93716  0.37834  Biso   1.000  C
  H64      1.0000 0.07050  0.94270  0.36340  Biso   1.000  H
  C117     1.0000 0.15390  0.91790  0.36435  Biso   1.000  C
  C118     1.0000 0.21510  0.90951  0.38698  Biso   1.000  C
  H65      1.0000 0.24260  0.89660  0.37770  Biso   1.000  H
  C119     1.0000 0.23720  0.92013  0.42429  Biso   1.000  C
  H66      1.0000 0.27810  0.91410  0.43990  Biso   1.000  H
  C120     1.0000 0.13020  0.90731  0.32280  Biso   1.000  C
  Gd4      1.0000 0.23170  0.36424  0.73058  Biso   1.000  Gd
  O25      1.0000 0.99580  0.36999  0.70492  Biso   1.000  O
  O26      1.0000 0.10790  0.35140  0.71427  Biso   1.000  O
  O27      1.0000 0.80360  0.36211  0.33364  Biso   1.000  O
  O28      1.0000 0.76780  0.32978  0.30871  Biso   1.000  O
  O29      1.0000 0.88530  0.40515  0.71863  Biso   1.000  O
  O30      1.0000 0.79000  0.38205  0.70540  Biso   1.000  O
  O31      1.0000 0.67580  0.39300  0.30910  Biso   1.000  O
  O32      1.0000 0.56840  0.41354  0.30702  Biso   1.000  O
  C121     1.0000 0.98940  0.26239  0.51359  Biso   1.000  C
  C122     1.0000 0.00210  0.27594  0.54978  Biso   1.000  C
  H67      1.0000 0.02390  0.26920  0.57320  Biso   1.000  H
  C123     1.0000 0.98230  0.29906  0.55021  Biso   1.000  C
  C124     1.0000 0.94840  0.30917  0.51682  Biso   1.000  C
  H68      1.0000 0.93330  0.32460  0.51790  Biso   1.000  H
  C125     1.0000 0.93610  0.29600  0.47970  Biso   1.000  C
  C126     1.0000 0.95600  0.27263  0.47997  Biso   1.000  C
  H69      1.0000 0.94630  0.26380  0.45660  Biso   1.000  H
  C127     1.0000 0.99880  0.31304  0.58821  Biso   1.000  C
  C128     1.0000 0.06630  0.30990  0.61170  Biso   1.000  C
  H70      1.0000 0.10230  0.29860  0.60400  Biso   1.000  H
  C129     1.0000 0.08110  0.32334  0.64650  Biso   1.000  C
  H71      1.0000 0.12730  0.32120  0.66150  Biso   1.000  H
  C130     1.0000 0.02810  0.33953  0.65872  Biso   1.000  C
  C131     1.0000 0.96030  0.34305  0.63660  Biso   1.000  C
  H72      1.0000 0.92430  0.35410  0.64530  Biso   1.000  H
  C132     1.0000 0.94560  0.33019  0.60154  Biso   1.000  C
  H73      1.0000 0.90000  0.33290  0.58650  Biso   1.000  H
  C133     1.0000 0.04450  0.35541  0.69620  Biso   1.000  C
  C134     1.0000 0.89970  0.30750  0.44284  Biso   1.000  C
  C135     1.0000 0.90490  0.33035  0.43630  Biso   1.000  C
  H74      1.0000 0.93160  0.33940  0.45540  Biso   1.000  H
  C136     1.0000 0.87100  0.34108  0.40120  Biso   1.000  C
  H75      1.0000 0.87590  0.35700  0.39760  Biso   1.000  H
  C137     1.0000 0.83360  0.32903  0.37415  Biso   1.000  C
  C138     1.0000 0.83150  0.30653  0.37970  Biso   1.000  C
  H76      1.0000 0.80690  0.29750  0.35980  Biso   1.000  H
  C139     1.0000 0.86360  0.29588  0.41320  Biso   1.000  C
  H77      1.0000 0.86000  0.27990  0.41530  Biso   1.000  H
  C140     1.0000 0.79720  0.34051  0.33630  Biso   1.000  C
  C141     1.0000 0.74880  0.48692  0.51348  Biso   1.000  C
  C142     1.0000 0.76720  0.47405  0.54822  Biso   1.000  C
  H78      1.0000 0.78120  0.48170  0.57240  Biso   1.000  H
  C143     1.0000 0.76520  0.44993  0.54796  Biso   1.000  C
  C144     1.0000 0.74250  0.43885  0.51162  Biso   1.000  C
  H79      1.0000 0.74030  0.42280  0.51090  Biso   1.000  H
  C145     1.0000 0.72330  0.45130  0.47652  Biso   1.000  C
  C146     1.0000 0.72470  0.47512  0.47794  Biso   1.000  C
  H80      1.0000 0.70930  0.48350  0.45480  Biso   1.000  H
  C147     1.0000 0.78430  0.43651  0.58579  Biso   1.000  C
  C148     1.0000 0.73950  0.41729  0.59610  Biso   1.000  C
  H81      1.0000 0.69810  0.41300  0.57900  Biso   1.000  H
  C149     1.0000 0.75470  0.40462  0.63040  Biso   1.000  C
  H82      1.0000 0.72490  0.39160  0.63650  Biso   1.000  H
  C150     1.0000 0.81570  0.41143  0.65660  Biso   1.000  C
  C151     1.0000 0.85890  0.42953  0.64650  Biso   1.000  C
  H83      1.0000 0.90100  0.43360  0.66340  Biso   1.000  H
  C152     1.0000 0.84340  0.44267  0.61165  Biso   1.000  C
  H84      1.0000 0.87350  0.45570  0.60600  Biso   1.000  H
  C153     1.0000 0.83010  0.39810  0.69710  Biso   1.000  C
  C154     1.0000 0.69820  0.43939  0.43739  Biso   1.000  C
  C155     1.0000 0.63610  0.44811  0.41456  Biso   1.000  C
  H85      1.0000 0.60980  0.46130  0.42350  Biso   1.000  H
  C156     1.0000 0.61320  0.43716  0.37834  Biso   1.000  C
  H86      1.0000 0.57050  0.44270  0.36340  Biso   1.000  H
  C157     1.0000 0.65390  0.41790  0.36435  Biso   1.000  C
  C158     1.0000 0.71510  0.40951  0.38698  Biso   1.000  C
  H87      1.0000 0.74260  0.39660  0.37770  Biso   1.000  H
  C159     1.0000 0.73720  0.42013  0.42429  Biso   1.000  C
  H88      1.0000 0.77810  0.41410  0.43990  Biso   1.000  H
  C160     1.0000 0.63020  0.40731  0.32280  Biso   1.000  C
  Gd5      1.0000 0.23170  0.13576  0.76942  Biso   1.000  Gd
  O33      1.0000 0.99580  0.13001  0.79508  Biso   1.000  O
  O34      1.0000 0.10790  0.14860  0.78573  Biso   1.000  O
  O35      1.0000 0.80360  0.13789  0.16636  Biso   1.000  O
  O36      1.0000 0.76780  0.17022  0.19129  Biso   1.000  O
  O37      1.0000 0.88530  0.09485  0.78137  Biso   1.000  O
  O38      1.0000 0.79000  0.11795  0.79460  Biso   1.000  O
  O39      1.0000 0.67580  0.10700  0.19090  Biso   1.000  O
  O40      1.0000 0.56840  0.08646  0.19298  Biso   1.000  O
  C161     1.0000 0.98940  0.23761  0.98641  Biso   1.000  C
  C162     1.0000 0.00210  0.22406  0.95022  Biso   1.000  C
  H89      1.0000 0.02390  0.23080  0.92680  Biso   1.000  H
  C163     1.0000 0.98230  0.20094  0.94979  Biso   1.000  C
  C164     1.0000 0.94840  0.19083  0.98318  Biso   1.000  C
  H90      1.0000 0.93330  0.17540  0.98210  Biso   1.000  H
  C165     1.0000 0.93610  0.20400  0.02030  Biso   1.000  C
  C166     1.0000 0.95600  0.22737  0.02003  Biso   1.000  C
  H91      1.0000 0.94630  0.23620  0.04340  Biso   1.000  H
  C167     1.0000 0.99880  0.18696  0.91179  Biso   1.000  C
  C168     1.0000 0.06630  0.19010  0.88830  Biso   1.000  C
  H92      1.0000 0.10230  0.20140  0.89600  Biso   1.000  H
  C169     1.0000 0.08110  0.17666  0.85350  Biso   1.000  C
  H93      1.0000 0.12730  0.17880  0.83850  Biso   1.000  H
  C170     1.0000 0.02810  0.16047  0.84128  Biso   1.000  C
  C171     1.0000 0.96030  0.15695  0.86340  Biso   1.000  C
  H94      1.0000 0.92430  0.14590  0.85470  Biso   1.000  H
  C172     1.0000 0.94560  0.16981  0.89846  Biso   1.000  C
  H95      1.0000 0.90000  0.16710  0.91350  Biso   1.000  H
  C173     1.0000 0.04450  0.14459  0.80380  Biso   1.000  C
  C174     1.0000 0.89970  0.19250  0.05716  Biso   1.000  C
  C175     1.0000 0.90490  0.16965  0.06370  Biso   1.000  C
  H96      1.0000 0.93160  0.16060  0.04460  Biso   1.000  H
  C176     1.0000 0.87100  0.15892  0.09880  Biso   1.000  C
  H97      1.0000 0.87590  0.14300  0.10240  Biso   1.000  H
  C177     1.0000 0.83360  0.17097  0.12585  Biso   1.000  C
  C178     1.0000 0.83150  0.19347  0.12030  Biso   1.000  C
  H98      1.0000 0.80690  0.20250  0.14020  Biso   1.000  H
  C179     1.0000 0.86360  0.20412  0.08680  Biso   1.000  C
  H99      1.0000 0.86000  0.22010  0.08470  Biso   1.000  H
  C180     1.0000 0.79720  0.15949  0.16370  Biso   1.000  C
  C181     1.0000 0.74880  0.01308  0.98652  Biso   1.000  C
  C182     1.0000 0.76720  0.02595  0.95178  Biso   1.000  C
  H100     1.0000 0.78120  0.01830  0.92760  Biso   1.000  H
  C183     1.0000 0.76520  0.05007  0.95204  Biso   1.000  C
  C184     1.0000 0.74250  0.06115  0.98838  Biso   1.000  C
  H101     1.0000 0.74030  0.07720  0.98910  Biso   1.000  H
  C185     1.0000 0.72330  0.04870  0.02348  Biso   1.000  C
  C186     1.0000 0.72470  0.02488  0.02206  Biso   1.000  C
  H102     1.0000 0.70930  0.01650  0.04520  Biso   1.000  H
  C187     1.0000 0.78430  0.06349  0.91421  Biso   1.000  C
  C188     1.0000 0.73950  0.08271  0.90390  Biso   1.000  C
  H103     1.0000 0.69810  0.08700  0.92100  Biso   1.000  H
  C189     1.0000 0.75470  0.09538  0.86960  Biso   1.000  C
  H104     1.0000 0.72490  0.10840  0.86350  Biso   1.000  H
  C190     1.0000 0.81570  0.08857  0.84340  Biso   1.000  C
  C191     1.0000 0.85890  0.07047  0.85350  Biso   1.000  C
  H105     1.0000 0.90100  0.06640  0.83660  Biso   1.000  H
  C192     1.0000 0.84340  0.05733  0.88835  Biso   1.000  C
  H106     1.0000 0.87350  0.04430  0.89400  Biso   1.000  H
  C193     1.0000 0.83010  0.10190  0.80290  Biso   1.000  C
  C194     1.0000 0.69820  0.06061  0.06261  Biso   1.000  C
  C195     1.0000 0.63610  0.05189  0.08544  Biso   1.000  C
  H107     1.0000 0.60980  0.03870  0.07650  Biso   1.000  H
  C196     1.0000 0.61320  0.06284  0.12166  Biso   1.000  C
  H108     1.0000 0.57050  0.05730  0.13660  Biso   1.000  H
  C197     1.0000 0.65390  0.08210  0.13565  Biso   1.000  C
  C198     1.0000 0.71510  0.09049  0.11302  Biso   1.000  C
  H109     1.0000 0.74260  0.10340  0.12230  Biso   1.000  H
  C199     1.0000 0.73720  0.07987  0.07571  Biso   1.000  C
  H110     1.0000 0.77810  0.08590  0.06010  Biso   1.000  H
  C200     1.0000 0.63020  0.09269  0.17720  Biso   1.000  C
  Gd6      1.0000 0.73170  0.63576  0.76942  Biso   1.000  Gd
  O41      1.0000 0.49580  0.63001  0.79508  Biso   1.000  O
  O42      1.0000 0.60790  0.64860  0.78573  Biso   1.000  O
  O43      1.0000 0.30360  0.63789  0.16636  Biso   1.000  O
  O44      1.0000 0.26780  0.67022  0.19129  Biso   1.000  O
  O45      1.0000 0.38530  0.59485  0.78137  Biso   1.000  O
  O46      1.0000 0.29000  0.61795  0.79460  Biso   1.000  O
  O47      1.0000 0.17580  0.60700  0.19090  Biso   1.000  O
  O48      1.0000 0.06840  0.58646  0.19298  Biso   1.000  O
  C201     1.0000 0.48940  0.73761  0.98641  Biso   1.000  C
  C202     1.0000 0.50210  0.72406  0.95022  Biso   1.000  C
  H111     1.0000 0.52390  0.73080  0.92680  Biso   1.000  H
  C203     1.0000 0.48230  0.70094  0.94979  Biso   1.000  C
  C204     1.0000 0.44840  0.69083  0.98318  Biso   1.000  C
  H112     1.0000 0.43330  0.67540  0.98210  Biso   1.000  H
  C205     1.0000 0.43610  0.70400  0.02030  Biso   1.000  C
  C206     1.0000 0.45600  0.72737  0.02003  Biso   1.000  C
  H113     1.0000 0.44630  0.73620  0.04340  Biso   1.000  H
  C207     1.0000 0.49880  0.68696  0.91179  Biso   1.000  C
  C208     1.0000 0.56630  0.69010  0.88830  Biso   1.000  C
  H114     1.0000 0.60230  0.70140  0.89600  Biso   1.000  H
  C209     1.0000 0.58110  0.67666  0.85350  Biso   1.000  C
  H115     1.0000 0.62730  0.67880  0.83850  Biso   1.000  H
  C210     1.0000 0.52810  0.66047  0.84128  Biso   1.000  C
  C211     1.0000 0.46030  0.65695  0.86340  Biso   1.000  C
  H116     1.0000 0.42430  0.64590  0.85470  Biso   1.000  H
  C212     1.0000 0.44560  0.66981  0.89846  Biso   1.000  C
  H117     1.0000 0.40000  0.66710  0.91350  Biso   1.000  H
  C213     1.0000 0.54450  0.64459  0.80380  Biso   1.000  C
  C214     1.0000 0.39970  0.69250  0.05716  Biso   1.000  C
  C215     1.0000 0.40490  0.66965  0.06370  Biso   1.000  C
  H118     1.0000 0.43160  0.66060  0.04460  Biso   1.000  H
  C216     1.0000 0.37100  0.65892  0.09880  Biso   1.000  C
  H119     1.0000 0.37590  0.64300  0.10240  Biso   1.000  H
  C217     1.0000 0.33360  0.67097  0.12585  Biso   1.000  C
  C218     1.0000 0.33150  0.69347  0.12030  Biso   1.000  C
  H120     1.0000 0.30690  0.70250  0.14020  Biso   1.000  H
  C219     1.0000 0.36360  0.70412  0.08680  Biso   1.000  C
  H121     1.0000 0.36000  0.72010  0.08470  Biso   1.000  H
  C220     1.0000 0.29720  0.65949  0.16370  Biso   1.000  C
  C221     1.0000 0.24880  0.51308  0.98652  Biso   1.000  C
  C222     1.0000 0.26720  0.52595  0.95178  Biso   1.000  C
  H122     1.0000 0.28120  0.51830  0.92760  Biso   1.000  H
  C223     1.0000 0.26520  0.55007  0.95204  Biso   1.000  C
  C224     1.0000 0.24250  0.56115  0.98838  Biso   1.000  C
  H123     1.0000 0.24030  0.57720  0.98910  Biso   1.000  H
  C225     1.0000 0.22330  0.54870  0.02348  Biso   1.000  C
  C226     1.0000 0.22470  0.52488  0.02206  Biso   1.000  C
  H124     1.0000 0.20930  0.51650  0.04520  Biso   1.000  H
  C227     1.0000 0.28430  0.56349  0.91421  Biso   1.000  C
  C228     1.0000 0.23950  0.58271  0.90390  Biso   1.000  C
  H125     1.0000 0.19810  0.58700  0.92100  Biso   1.000  H
  C229     1.0000 0.25470  0.59538  0.86960  Biso   1.000  C
  H126     1.0000 0.22490  0.60840  0.86350  Biso   1.000  H
  C230     1.0000 0.31570  0.58857  0.84340  Biso   1.000  C
  C231     1.0000 0.35890  0.57047  0.85350  Biso   1.000  C
  H127     1.0000 0.40100  0.56640  0.83660  Biso   1.000  H
  C232     1.0000 0.34340  0.55733  0.88835  Biso   1.000  C
  H128     1.0000 0.37350  0.54430  0.89400  Biso   1.000  H
  C233     1.0000 0.33010  0.60190  0.80290  Biso   1.000  C
  C234     1.0000 0.19820  0.56061  0.06261  Biso   1.000  C
  C235     1.0000 0.13610  0.55189  0.08544  Biso   1.000  C
  H129     1.0000 0.10980  0.53870  0.07650  Biso   1.000  H
  C236     1.0000 0.11320  0.56284  0.12166  Biso   1.000  C
  H130     1.0000 0.07050  0.55730  0.13660  Biso   1.000  H
  C237     1.0000 0.15390  0.58210  0.13565  Biso   1.000  C
  C238     1.0000 0.21510  0.59049  0.11302  Biso   1.000  C
  H131     1.0000 0.24260  0.60340  0.12230  Biso   1.000  H
  C239     1.0000 0.23720  0.57987  0.07571  Biso   1.000  C
  H132     1.0000 0.27810  0.58590  0.06010  Biso   1.000  H
  C240     1.0000 0.13020  0.59269  0.17720  Biso   1.000  C
  Gd7      1.0000 0.26830  0.86424  0.76942  Biso   1.000  Gd
  O49      1.0000 0.50420  0.86999  0.79508  Biso   1.000  O
  O50      1.0000 0.39210  0.85140  0.78573  Biso   1.000  O
  O51      1.0000 0.69640  0.86211  0.16636  Biso   1.000  O
  O52      1.0000 0.73220  0.82978  0.19129  Biso   1.000  O
  O53      1.0000 0.61470  0.90515  0.78137  Biso   1.000  O
  O54      1.0000 0.71000  0.88205  0.79460  Biso   1.000  O
  O55      1.0000 0.82420  0.89300  0.19090  Biso   1.000  O
  O56      1.0000 0.93160  0.91354  0.19298  Biso   1.000  O
  C241     1.0000 0.51060  0.76239  0.98641  Biso   1.000  C
  C242     1.0000 0.49790  0.77594  0.95022  Biso   1.000  C
  H133     1.0000 0.47610  0.76920  0.92680  Biso   1.000  H
  C243     1.0000 0.51770  0.79906  0.94979  Biso   1.000  C
  C244     1.0000 0.55160  0.80917  0.98318  Biso   1.000  C
  H134     1.0000 0.56670  0.82460  0.98210  Biso   1.000  H
  C245     1.0000 0.56390  0.79600  0.02030  Biso   1.000  C
  C246     1.0000 0.54400  0.77263  0.02003  Biso   1.000  C
  H135     1.0000 0.55370  0.76380  0.04340  Biso   1.000  H
  C247     1.0000 0.50120  0.81304  0.91179  Biso   1.000  C
  C248     1.0000 0.43370  0.80990  0.88830  Biso   1.000  C
  H136     1.0000 0.39770  0.79860  0.89600  Biso   1.000  H
  C249     1.0000 0.41890  0.82334  0.85350  Biso   1.000  C
  H137     1.0000 0.37270  0.82120  0.83850  Biso   1.000  H
  C250     1.0000 0.47190  0.83953  0.84128  Biso   1.000  C
  C251     1.0000 0.53970  0.84305  0.86340  Biso   1.000  C
  H138     1.0000 0.57570  0.85410  0.85470  Biso   1.000  H
  C252     1.0000 0.55440  0.83019  0.89846  Biso   1.000  C
  H139     1.0000 0.60000  0.83290  0.91350  Biso   1.000  H
  C253     1.0000 0.45550  0.85541  0.80380  Biso   1.000  C
  C254     1.0000 0.60030  0.80750  0.05716  Biso   1.000  C
  C255     1.0000 0.59510  0.83035  0.06370  Biso   1.000  C
  H140     1.0000 0.56840  0.83940  0.04460  Biso   1.000  H
  C256     1.0000 0.62900  0.84108  0.09880  Biso   1.000  C
  H141     1.0000 0.62410  0.85700  0.10240  Biso   1.000  H
  C257     1.0000 0.66640  0.82903  0.12585  Biso   1.000  C
  C258     1.0000 0.66850  0.80653  0.12030  Biso   1.000  C
  H142     1.0000 0.69310  0.79750  0.14020  Biso   1.000  H
  C259     1.0000 0.63640  0.79588  0.08680  Biso   1.000  C
  H143     1.0000 0.64000  0.77990  0.08470  Biso   1.000  H
  C260     1.0000 0.70280  0.84051  0.16370  Biso   1.000  C
  C261     1.0000 0.75120  0.98692  0.98652  Biso   1.000  C
  C262     1.0000 0.73280  0.97405  0.95178  Biso   1.000  C
  H144     1.0000 0.71880  0.98170  0.92760  Biso   1.000  H
  C263     1.0000 0.73480  0.94993  0.95204  Biso   1.000  C
  C264     1.0000 0.75750  0.93885  0.98838  Biso   1.000  C
  H145     1.0000 0.75970  0.92280  0.98910  Biso   1.000  H
  C265     1.0000 0.77670  0.95130  0.02348  Biso   1.000  C
  C266     1.0000 0.77530  0.97512  0.02206  Biso   1.000  C
  H146     1.0000 0.79070  0.98350  0.04520  Biso   1.000  H
  C267     1.0000 0.71570  0.93651  0.91421  Biso   1.000  C
  C268     1.0000 0.76050  0.91729  0.90390  Biso   1.000  C
  H147     1.0000 0.80190  0.91300  0.92100  Biso   1.000  H
  C269     1.0000 0.74530  0.90462  0.86960  Biso   1.000  C
  H148     1.0000 0.77510  0.89160  0.86350  Biso   1.000  H
  C270     1.0000 0.68430  0.91143  0.84340  Biso   1.000  C
  C271     1.0000 0.64110  0.92953  0.85350  Biso   1.000  C
  H149     1.0000 0.59900  0.93360  0.83660  Biso   1.000  H
  C272     1.0000 0.65660  0.94267  0.88835  Biso   1.000  C
  H150     1.0000 0.62650  0.95570  0.89400  Biso   1.000  H
  C273     1.0000 0.66990  0.89810  0.80290  Biso   1.000  C
  C274     1.0000 0.80180  0.93939  0.06261  Biso   1.000  C
  C275     1.0000 0.86390  0.94811  0.08544  Biso   1.000  C
  H151     1.0000 0.89020  0.96130  0.07650  Biso   1.000  H
  C276     1.0000 0.88680  0.93716  0.12166  Biso   1.000  C
  H152     1.0000 0.92950  0.94270  0.13660  Biso   1.000  H
  C277     1.0000 0.84610  0.91790  0.13565  Biso   1.000  C
  C278     1.0000 0.78490  0.90951  0.11302  Biso   1.000  C
  H153     1.0000 0.75740  0.89660  0.12230  Biso   1.000  H
  C279     1.0000 0.76280  0.92013  0.07571  Biso   1.000  C
  H154     1.0000 0.72190  0.91410  0.06010  Biso   1.000  H
  C280     1.0000 0.86980  0.90731  0.17720  Biso   1.000  C
  Gd8      1.0000 0.76830  0.36424  0.76942  Biso   1.000  Gd
  O57      1.0000 0.00420  0.36999  0.79508  Biso   1.000  O
  O58      1.0000 0.89210  0.35140  0.78573  Biso   1.000  O
  O59      1.0000 0.19640  0.36211  0.16636  Biso   1.000  O
  O60      1.0000 0.23220  0.32978  0.19129  Biso   1.000  O
  O61      1.0000 0.11470  0.40515  0.78137  Biso   1.000  O
  O62      1.0000 0.21000  0.38205  0.79460  Biso   1.000  O
  O63      1.0000 0.32420  0.39300  0.19090  Biso   1.000  O
  O64      1.0000 0.43160  0.41354  0.19298  Biso   1.000  O
  C281     1.0000 0.01060  0.26239  0.98641  Biso   1.000  C
  C282     1.0000 0.99790  0.27594  0.95022  Biso   1.000  C
  H155     1.0000 0.97610  0.26920  0.92680  Biso   1.000  H
  C283     1.0000 0.01770  0.29906  0.94979  Biso   1.000  C
  C284     1.0000 0.05160  0.30917  0.98318  Biso   1.000  C
  H156     1.0000 0.06670  0.32460  0.98210  Biso   1.000  H
  C285     1.0000 0.06390  0.29600  0.02030  Biso   1.000  C
  C286     1.0000 0.04400  0.27263  0.02003  Biso   1.000  C
  H157     1.0000 0.05370  0.26380  0.04340  Biso   1.000  H
  C287     1.0000 0.00120  0.31304  0.91179  Biso   1.000  C
  C288     1.0000 0.93370  0.30990  0.88830  Biso   1.000  C
  H158     1.0000 0.89770  0.29860  0.89600  Biso   1.000  H
  C289     1.0000 0.91890  0.32334  0.85350  Biso   1.000  C
  H159     1.0000 0.87270  0.32120  0.83850  Biso   1.000  H
  C290     1.0000 0.97190  0.33953  0.84128  Biso   1.000  C
  C291     1.0000 0.03970  0.34305  0.86340  Biso   1.000  C
  H160     1.0000 0.07570  0.35410  0.85470  Biso   1.000  H
  C292     1.0000 0.05440  0.33019  0.89846  Biso   1.000  C
  H161     1.0000 0.10000  0.33290  0.91350  Biso   1.000  H
  C293     1.0000 0.95550  0.35541  0.80380  Biso   1.000  C
  C294     1.0000 0.10030  0.30750  0.05716  Biso   1.000  C
  C295     1.0000 0.09510  0.33035  0.06370  Biso   1.000  C
  H162     1.0000 0.06840  0.33940  0.04460  Biso   1.000  H
  C296     1.0000 0.12900  0.34108  0.09880  Biso   1.000  C
  H163     1.0000 0.12410  0.35700  0.10240  Biso   1.000  H
  C297     1.0000 0.16640  0.32903  0.12585  Biso   1.000  C
  C298     1.0000 0.16850  0.30653  0.12030  Biso   1.000  C
  H164     1.0000 0.19310  0.29750  0.14020  Biso   1.000  H
  C299     1.0000 0.13640  0.29588  0.08680  Biso   1.000  C
  H165     1.0000 0.14000  0.27990  0.08470  Biso   1.000  H
  C300     1.0000 0.20280  0.34051  0.16370  Biso   1.000  C
  C301     1.0000 0.25120  0.48692  0.98652  Biso   1.000  C
  C302     1.0000 0.23280  0.47405  0.95178  Biso   1.000  C
  H166     1.0000 0.21880  0.48170  0.92760  Biso   1.000  H
  C303     1.0000 0.23480  0.44993  0.95204  Biso   1.000  C
  C304     1.0000 0.25750  0.43885  0.98838  Biso   1.000  C
  H167     1.0000 0.25970  0.42280  0.98910  Biso   1.000  H
  C305     1.0000 0.27670  0.45130  0.02348  Biso   1.000  C
  C306     1.0000 0.27530  0.47512  0.02206  Biso   1.000  C
  H168     1.0000 0.29070  0.48350  0.04520  Biso   1.000  H
  C307     1.0000 0.21570  0.43651  0.91421  Biso   1.000  C
  C308     1.0000 0.26050  0.41729  0.90390  Biso   1.000  C
  H169     1.0000 0.30190  0.41300  0.92100  Biso   1.000  H
  C309     1.0000 0.24530  0.40462  0.86960  Biso   1.000  C
  H170     1.0000 0.27510  0.39160  0.86350  Biso   1.000  H
  C310     1.0000 0.18430  0.41143  0.84340  Biso   1.000  C
  C311     1.0000 0.14110  0.42953  0.85350  Biso   1.000  C
  H171     1.0000 0.09900  0.43360  0.83660  Biso   1.000  H
  C312     1.0000 0.15660  0.44267  0.88835  Biso   1.000  C
  H172     1.0000 0.12650  0.45570  0.89400  Biso   1.000  H
  C313     1.0000 0.16990  0.39810  0.80290  Biso   1.000  C
  C314     1.0000 0.30180  0.43939  0.06261  Biso   1.000  C
  C315     1.0000 0.36390  0.44811  0.08544  Biso   1.000  C
  H173     1.0000 0.39020  0.46130  0.07650  Biso   1.000  H
  C316     1.0000 0.38680  0.43716  0.12166  Biso   1.000  C
  H174     1.0000 0.42950  0.44270  0.13660  Biso   1.000  H
  C317     1.0000 0.34610  0.41790  0.13565  Biso   1.000  C
  C318     1.0000 0.28490  0.40951  0.11302  Biso   1.000  C
  H175     1.0000 0.25740  0.39660  0.12230  Biso   1.000  H
  C319     1.0000 0.26280  0.42013  0.07571  Biso   1.000  C
  H176     1.0000 0.22190  0.41410  0.06010  Biso   1.000  H
  C320     1.0000 0.36980  0.40731  0.17720  Biso   1.000  C
  Gd9      1.0000 0.23170  0.86424  0.26942  Biso   1.000  Gd
  O65      1.0000 0.99580  0.86999  0.29508  Biso   1.000  O
  O66      1.0000 0.10790  0.85140  0.28573  Biso   1.000  O
  O67      1.0000 0.80360  0.86211  0.66636  Biso   1.000  O
  O68      1.0000 0.76780  0.82978  0.69129  Biso   1.000  O
  O69      1.0000 0.88530  0.90515  0.28137  Biso   1.000  O
  O70      1.0000 0.79000  0.88205  0.29460  Biso   1.000  O
  O71      1.0000 0.67580  0.89300  0.69090  Biso   1.000  O
  O72      1.0000 0.56840  0.91354  0.69298  Biso   1.000  O
  C321     1.0000 0.98940  0.76239  0.48641  Biso   1.000  C
  C322     1.0000 0.00210  0.77594  0.45022  Biso   1.000  C
  H177     1.0000 0.02390  0.76920  0.42680  Biso   1.000  H
  C323     1.0000 0.98230  0.79906  0.44979  Biso   1.000  C
  C324     1.0000 0.94840  0.80917  0.48318  Biso   1.000  C
  H178     1.0000 0.93330  0.82460  0.48210  Biso   1.000  H
  C325     1.0000 0.93610  0.79600  0.52030  Biso   1.000  C
  C326     1.0000 0.95600  0.77263  0.52003  Biso   1.000  C
  H179     1.0000 0.94630  0.76380  0.54340  Biso   1.000  H
  C327     1.0000 0.99880  0.81304  0.41179  Biso   1.000  C
  C328     1.0000 0.06630  0.80990  0.38830  Biso   1.000  C
  H180     1.0000 0.10230  0.79860  0.39600  Biso   1.000  H
  C329     1.0000 0.08110  0.82334  0.35350  Biso   1.000  C
  H181     1.0000 0.12730  0.82120  0.33850  Biso   1.000  H
  C330     1.0000 0.02810  0.83953  0.34128  Biso   1.000  C
  C331     1.0000 0.96030  0.84305  0.36340  Biso   1.000  C
  H182     1.0000 0.92430  0.85410  0.35470  Biso   1.000  H
  C332     1.0000 0.94560  0.83019  0.39846  Biso   1.000  C
  H183     1.0000 0.90000  0.83290  0.41350  Biso   1.000  H
  C333     1.0000 0.04450  0.85541  0.30380  Biso   1.000  C
  C334     1.0000 0.89970  0.80750  0.55716  Biso   1.000  C
  C335     1.0000 0.90490  0.83035  0.56370  Biso   1.000  C
  H184     1.0000 0.93160  0.83940  0.54460  Biso   1.000  H
  C336     1.0000 0.87100  0.84108  0.59880  Biso   1.000  C
  H185     1.0000 0.87590  0.85700  0.60240  Biso   1.000  H
  C337     1.0000 0.83360  0.82903  0.62585  Biso   1.000  C
  C338     1.0000 0.83150  0.80653  0.62030  Biso   1.000  C
  H186     1.0000 0.80690  0.79750  0.64020  Biso   1.000  H
  C339     1.0000 0.86360  0.79588  0.58680  Biso   1.000  C
  H187     1.0000 0.86000  0.77990  0.58470  Biso   1.000  H
  C340     1.0000 0.79720  0.84051  0.66370  Biso   1.000  C
  C341     1.0000 0.74880  0.98692  0.48652  Biso   1.000  C
  C342     1.0000 0.76720  0.97405  0.45178  Biso   1.000  C
  H188     1.0000 0.78120  0.98170  0.42760  Biso   1.000  H
  C343     1.0000 0.76520  0.94993  0.45204  Biso   1.000  C
  C344     1.0000 0.74250  0.93885  0.48838  Biso   1.000  C
  H189     1.0000 0.74030  0.92280  0.48910  Biso   1.000  H
  C345     1.0000 0.72330  0.95130  0.52348  Biso   1.000  C
  C346     1.0000 0.72470  0.97512  0.52206  Biso   1.000  C
  H190     1.0000 0.70930  0.98350  0.54520  Biso   1.000  H
  C347     1.0000 0.78430  0.93651  0.41421  Biso   1.000  C
  C348     1.0000 0.73950  0.91729  0.40390  Biso   1.000  C
  H191     1.0000 0.69810  0.91300  0.42100  Biso   1.000  H
  C349     1.0000 0.75470  0.90462  0.36960  Biso   1.000  C
  H192     1.0000 0.72490  0.89160  0.36350  Biso   1.000  H
  C350     1.0000 0.81570  0.91143  0.34340  Biso   1.000  C
  C351     1.0000 0.85890  0.92953  0.35350  Biso   1.000  C
  H193     1.0000 0.90100  0.93360  0.33660  Biso   1.000  H
  C352     1.0000 0.84340  0.94267  0.38835  Biso   1.000  C
  H194     1.0000 0.87350  0.95570  0.39400  Biso   1.000  H
  C353     1.0000 0.83010  0.89810  0.30290  Biso   1.000  C
  C354     1.0000 0.69820  0.93939  0.56261  Biso   1.000  C
  C355     1.0000 0.63610  0.94811  0.58544  Biso   1.000  C
  H195     1.0000 0.60980  0.96130  0.57650  Biso   1.000  H
  C356     1.0000 0.61320  0.93716  0.62166  Biso   1.000  C
  H196     1.0000 0.57050  0.94270  0.63660  Biso   1.000  H
  C357     1.0000 0.65390  0.91790  0.63565  Biso   1.000  C
  C358     1.0000 0.71510  0.90951  0.61302  Biso   1.000  C
  H197     1.0000 0.74260  0.89660  0.62230  Biso   1.000  H
  C359     1.0000 0.73720  0.92013  0.57571  Biso   1.000  C
  H198     1.0000 0.77810  0.91410  0.56010  Biso   1.000  H
  C360     1.0000 0.63020  0.90731  0.67720  Biso   1.000  C
  Gd10     1.0000 0.73170  0.36424  0.26942  Biso   1.000  Gd
  O73      1.0000 0.49580  0.36999  0.29508  Biso   1.000  O
  O74      1.0000 0.60790  0.35140  0.28573  Biso   1.000  O
  O75      1.0000 0.30360  0.36211  0.66636  Biso   1.000  O
  O76      1.0000 0.26780  0.32978  0.69129  Biso   1.000  O
  O77      1.0000 0.38530  0.40515  0.28137  Biso   1.000  O
  O78      1.0000 0.29000  0.38205  0.29460  Biso   1.000  O
  O79      1.0000 0.17580  0.39300  0.69090  Biso   1.000  O
  O80      1.0000 0.06840  0.41354  0.69298  Biso   1.000  O
  C361     1.0000 0.48940  0.26239  0.48641  Biso   1.000  C
  C362     1.0000 0.50210  0.27594  0.45022  Biso   1.000  C
  H199     1.0000 0.52390  0.26920  0.42680  Biso   1.000  H
  C363     1.0000 0.48230  0.29906  0.44979  Biso   1.000  C
  C364     1.0000 0.44840  0.30917  0.48318  Biso   1.000  C
  H200     1.0000 0.43330  0.32460  0.48210  Biso   1.000  H
  C365     1.0000 0.43610  0.29600  0.52030  Biso   1.000  C
  C366     1.0000 0.45600  0.27263  0.52003  Biso   1.000  C
  H201     1.0000 0.44630  0.26380  0.54340  Biso   1.000  H
  C367     1.0000 0.49880  0.31304  0.41179  Biso   1.000  C
  C368     1.0000 0.56630  0.30990  0.38830  Biso   1.000  C
  H202     1.0000 0.60230  0.29860  0.39600  Biso   1.000  H
  C369     1.0000 0.58110  0.32334  0.35350  Biso   1.000  C
  H203     1.0000 0.62730  0.32120  0.33850  Biso   1.000  H
  C370     1.0000 0.52810  0.33953  0.34128  Biso   1.000  C
  C371     1.0000 0.46030  0.34305  0.36340  Biso   1.000  C
  H204     1.0000 0.42430  0.35410  0.35470  Biso   1.000  H
  C372     1.0000 0.44560  0.33019  0.39846  Biso   1.000  C
  H205     1.0000 0.40000  0.33290  0.41350  Biso   1.000  H
  C373     1.0000 0.54450  0.35541  0.30380  Biso   1.000  C
  C374     1.0000 0.39970  0.30750  0.55716  Biso   1.000  C
  C375     1.0000 0.40490  0.33035  0.56370  Biso   1.000  C
  H206     1.0000 0.43160  0.33940  0.54460  Biso   1.000  H
  C376     1.0000 0.37100  0.34108  0.59880  Biso   1.000  C
  H207     1.0000 0.37590  0.35700  0.60240  Biso   1.000  H
  C377     1.0000 0.33360  0.32903  0.62585  Biso   1.000  C
  C378     1.0000 0.33150  0.30653  0.62030  Biso   1.000  C
  H208     1.0000 0.30690  0.29750  0.64020  Biso   1.000  H
  C379     1.0000 0.36360  0.29588  0.58680  Biso   1.000  C
  H209     1.0000 0.36000  0.27990  0.58470  Biso   1.000  H
  C380     1.0000 0.29720  0.34051  0.66370  Biso   1.000  C
  C381     1.0000 0.24880  0.48692  0.48652  Biso   1.000  C
  C382     1.0000 0.26720  0.47405  0.45178  Biso   1.000  C
  H210     1.0000 0.28120  0.48170  0.42760  Biso   1.000  H
  C383     1.0000 0.26520  0.44993  0.45204  Biso   1.000  C
  C384     1.0000 0.24250  0.43885  0.48838  Biso   1.000  C
  H211     1.0000 0.24030  0.42280  0.48910  Biso   1.000  H
  C385     1.0000 0.22330  0.45130  0.52348  Biso   1.000  C
  C386     1.0000 0.22470  0.47512  0.52206  Biso   1.000  C
  H212     1.0000 0.20930  0.48350  0.54520  Biso   1.000  H
  C387     1.0000 0.28430  0.43651  0.41421  Biso   1.000  C
  C388     1.0000 0.23950  0.41729  0.40390  Biso   1.000  C
  H213     1.0000 0.19810  0.41300  0.42100  Biso   1.000  H
  C389     1.0000 0.25470  0.40462  0.36960  Biso   1.000  C
  H214     1.0000 0.22490  0.39160  0.36350  Biso   1.000  H
  C390     1.0000 0.31570  0.41143  0.34340  Biso   1.000  C
  C391     1.0000 0.35890  0.42953  0.35350  Biso   1.000  C
  H215     1.0000 0.40100  0.43360  0.33660  Biso   1.000  H
  C392     1.0000 0.34340  0.44267  0.38835  Biso   1.000  C
  H216     1.0000 0.37350  0.45570  0.39400  Biso   1.000  H
  C393     1.0000 0.33010  0.39810  0.30290  Biso   1.000  C
  C394     1.0000 0.19820  0.43939  0.56261  Biso   1.000  C
  C395     1.0000 0.13610  0.44811  0.58544  Biso   1.000  C
  H217     1.0000 0.10980  0.46130  0.57650  Biso   1.000  H
  C396     1.0000 0.11320  0.43716  0.62166  Biso   1.000  C
  H218     1.0000 0.07050  0.44270  0.63660  Biso   1.000  H
  C397     1.0000 0.15390  0.41790  0.63565  Biso   1.000  C
  C398     1.0000 0.21510  0.40951  0.61302  Biso   1.000  C
  H219     1.0000 0.24260  0.39660  0.62230  Biso   1.000  H
  C399     1.0000 0.23720  0.42013  0.57571  Biso   1.000  C
  H220     1.0000 0.27810  0.41410  0.56010  Biso   1.000  H
  C400     1.0000 0.13020  0.40731  0.67720  Biso   1.000  C
  Gd11     1.0000 0.26830  0.13576  0.26942  Biso   1.000  Gd
  O81      1.0000 0.50420  0.13001  0.29508  Biso   1.000  O
  O82      1.0000 0.39210  0.14860  0.28573  Biso   1.000  O
  O83      1.0000 0.69640  0.13789  0.66636  Biso   1.000  O
  O84      1.0000 0.73220  0.17022  0.69129  Biso   1.000  O
  O85      1.0000 0.61470  0.09485  0.28137  Biso   1.000  O
  O86      1.0000 0.71000  0.11795  0.29460  Biso   1.000  O
  O87      1.0000 0.82420  0.10700  0.69090  Biso   1.000  O
  O88      1.0000 0.93160  0.08646  0.69298  Biso   1.000  O
  C401     1.0000 0.51060  0.23761  0.48641  Biso   1.000  C
  C402     1.0000 0.49790  0.22406  0.45022  Biso   1.000  C
  H221     1.0000 0.47610  0.23080  0.42680  Biso   1.000  H
  C403     1.0000 0.51770  0.20094  0.44979  Biso   1.000  C
  C404     1.0000 0.55160  0.19083  0.48318  Biso   1.000  C
  H222     1.0000 0.56670  0.17540  0.48210  Biso   1.000  H
  C405     1.0000 0.56390  0.20400  0.52030  Biso   1.000  C
  C406     1.0000 0.54400  0.22737  0.52003  Biso   1.000  C
  H223     1.0000 0.55370  0.23620  0.54340  Biso   1.000  H
  C407     1.0000 0.50120  0.18696  0.41179  Biso   1.000  C
  C408     1.0000 0.43370  0.19010  0.38830  Biso   1.000  C
  H224     1.0000 0.39770  0.20140  0.39600  Biso   1.000  H
  C409     1.0000 0.41890  0.17666  0.35350  Biso   1.000  C
  H225     1.0000 0.37270  0.17880  0.33850  Biso   1.000  H
  C410     1.0000 0.47190  0.16047  0.34128  Biso   1.000  C
  C411     1.0000 0.53970  0.15695  0.36340  Biso   1.000  C
  H226     1.0000 0.57570  0.14590  0.35470  Biso   1.000  H
  C412     1.0000 0.55440  0.16981  0.39846  Biso   1.000  C
  H227     1.0000 0.60000  0.16710  0.41350  Biso   1.000  H
  C413     1.0000 0.45550  0.14459  0.30380  Biso   1.000  C
  C414     1.0000 0.60030  0.19250  0.55716  Biso   1.000  C
  C415     1.0000 0.59510  0.16965  0.56370  Biso   1.000  C
  H228     1.0000 0.56840  0.16060  0.54460  Biso   1.000  H
  C416     1.0000 0.62900  0.15892  0.59880  Biso   1.000  C
  H229     1.0000 0.62410  0.14300  0.60240  Biso   1.000  H
  C417     1.0000 0.66640  0.17097  0.62585  Biso   1.000  C
  C418     1.0000 0.66850  0.19347  0.62030  Biso   1.000  C
  H230     1.0000 0.69310  0.20250  0.64020  Biso   1.000  H
  C419     1.0000 0.63640  0.20412  0.58680  Biso   1.000  C
  H231     1.0000 0.64000  0.22010  0.58470  Biso   1.000  H
  C420     1.0000 0.70280  0.15949  0.66370  Biso   1.000  C
  C421     1.0000 0.75120  0.01308  0.48652  Biso   1.000  C
  C422     1.0000 0.73280  0.02595  0.45178  Biso   1.000  C
  H232     1.0000 0.71880  0.01830  0.42760  Biso   1.000  H
  C423     1.0000 0.73480  0.05007  0.45204  Biso   1.000  C
  C424     1.0000 0.75750  0.06115  0.48838  Biso   1.000  C
  H233     1.0000 0.75970  0.07720  0.48910  Biso   1.000  H
  C425     1.0000 0.77670  0.04870  0.52348  Biso   1.000  C
  C426     1.0000 0.77530  0.02488  0.52206  Biso   1.000  C
  H234     1.0000 0.79070  0.01650  0.54520  Biso   1.000  H
  C427     1.0000 0.71570  0.06349  0.41421  Biso   1.000  C
  C428     1.0000 0.76050  0.08271  0.40390  Biso   1.000  C
  H235     1.0000 0.80190  0.08700  0.42100  Biso   1.000  H
  C429     1.0000 0.74530  0.09538  0.36960  Biso   1.000  C
  H236     1.0000 0.77510  0.10840  0.36350  Biso   1.000  H
  C430     1.0000 0.68430  0.08857  0.34340  Biso   1.000  C
  C431     1.0000 0.64110  0.07047  0.35350  Biso   1.000  C
  H237     1.0000 0.59900  0.06640  0.33660  Biso   1.000  H
  C432     1.0000 0.65660  0.05733  0.38835  Biso   1.000  C
  H238     1.0000 0.62650  0.04430  0.39400  Biso   1.000  H
  C433     1.0000 0.66990  0.10190  0.30290  Biso   1.000  C
  C434     1.0000 0.80180  0.06061  0.56261  Biso   1.000  C
  C435     1.0000 0.86390  0.05189  0.58544  Biso   1.000  C
  H239     1.0000 0.89020  0.03870  0.57650  Biso   1.000  H
  C436     1.0000 0.88680  0.06284  0.62166  Biso   1.000  C
  H240     1.0000 0.92950  0.05730  0.63660  Biso   1.000  H
  C437     1.0000 0.84610  0.08210  0.63565  Biso   1.000  C
  C438     1.0000 0.78490  0.09049  0.61302  Biso   1.000  C
  H241     1.0000 0.75740  0.10340  0.62230  Biso   1.000  H
  C439     1.0000 0.76280  0.07987  0.57571  Biso   1.000  C
  H242     1.0000 0.72190  0.08590  0.56010  Biso   1.000  H
  C440     1.0000 0.86980  0.09269  0.67720  Biso   1.000  C
  Gd12     1.0000 0.76830  0.63576  0.26942  Biso   1.000  Gd
  O89      1.0000 0.00420  0.63001  0.29508  Biso   1.000  O
  O90      1.0000 0.89210  0.64860  0.28573  Biso   1.000  O
  O91      1.0000 0.19640  0.63789  0.66636  Biso   1.000  O
  O92      1.0000 0.23220  0.67022  0.69129  Biso   1.000  O
  O93      1.0000 0.11470  0.59485  0.28137  Biso   1.000  O
  O94      1.0000 0.21000  0.61795  0.29460  Biso   1.000  O
  O95      1.0000 0.32420  0.60700  0.69090  Biso   1.000  O
  O96      1.0000 0.43160  0.58646  0.69298  Biso   1.000  O
  C441     1.0000 0.01060  0.73761  0.48641  Biso   1.000  C
  C442     1.0000 0.99790  0.72406  0.45022  Biso   1.000  C
  H243     1.0000 0.97610  0.73080  0.42680  Biso   1.000  H
  C443     1.0000 0.01770  0.70094  0.44979  Biso   1.000  C
  C444     1.0000 0.05160  0.69083  0.48318  Biso   1.000  C
  H244     1.0000 0.06670  0.67540  0.48210  Biso   1.000  H
  C445     1.0000 0.06390  0.70400  0.52030  Biso   1.000  C
  C446     1.0000 0.04400  0.72737  0.52003  Biso   1.000  C
  H245     1.0000 0.05370  0.73620  0.54340  Biso   1.000  H
  C447     1.0000 0.00120  0.68696  0.41179  Biso   1.000  C
  C448     1.0000 0.93370  0.69010  0.38830  Biso   1.000  C
  H246     1.0000 0.89770  0.70140  0.39600  Biso   1.000  H
  C449     1.0000 0.91890  0.67666  0.35350  Biso   1.000  C
  H247     1.0000 0.87270  0.67880  0.33850  Biso   1.000  H
  C450     1.0000 0.97190  0.66047  0.34128  Biso   1.000  C
  C451     1.0000 0.03970  0.65695  0.36340  Biso   1.000  C
  H248     1.0000 0.07570  0.64590  0.35470  Biso   1.000  H
  C452     1.0000 0.05440  0.66981  0.39846  Biso   1.000  C
  H249     1.0000 0.10000  0.66710  0.41350  Biso   1.000  H
  C453     1.0000 0.95550  0.64459  0.30380  Biso   1.000  C
  C454     1.0000 0.10030  0.69250  0.55716  Biso   1.000  C
  C455     1.0000 0.09510  0.66965  0.56370  Biso   1.000  C
  H250     1.0000 0.06840  0.66060  0.54460  Biso   1.000  H
  C456     1.0000 0.12900  0.65892  0.59880  Biso   1.000  C
  H251     1.0000 0.12410  0.64300  0.60240  Biso   1.000  H
  C457     1.0000 0.16640  0.67097  0.62585  Biso   1.000  C
  C458     1.0000 0.16850  0.69347  0.62030  Biso   1.000  C
  H252     1.0000 0.19310  0.70250  0.64020  Biso   1.000  H
  C459     1.0000 0.13640  0.70412  0.58680  Biso   1.000  C
  H253     1.0000 0.14000  0.72010  0.58470  Biso   1.000  H
  C460     1.0000 0.20280  0.65949  0.66370  Biso   1.000  C
  C461     1.0000 0.25120  0.51308  0.48652  Biso   1.000  C
  C462     1.0000 0.23280  0.52595  0.45178  Biso   1.000  C
  H254     1.0000 0.21880  0.51830  0.42760  Biso   1.000  H
  C463     1.0000 0.23480  0.55007  0.45204  Biso   1.000  C
  C464     1.0000 0.25750  0.56115  0.48838  Biso   1.000  C
  H255     1.0000 0.25970  0.57720  0.48910  Biso   1.000  H
  C465     1.0000 0.27670  0.54870  0.52348  Biso   1.000  C
  C466     1.0000 0.27530  0.52488  0.52206  Biso   1.000  C
  H256     1.0000 0.29070  0.51650  0.54520  Biso   1.000  H
  C467     1.0000 0.21570  0.56349  0.41421  Biso   1.000  C
  C468     1.0000 0.26050  0.58271  0.40390  Biso   1.000  C
  H257     1.0000 0.30190  0.58700  0.42100  Biso   1.000  H
  C469     1.0000 0.24530  0.59538  0.36960  Biso   1.000  C
  H258     1.0000 0.27510  0.60840  0.36350  Biso   1.000  H
  C470     1.0000 0.18430  0.58857  0.34340  Biso   1.000  C
  C471     1.0000 0.14110  0.57047  0.35350  Biso   1.000  C
  H259     1.0000 0.09900  0.56640  0.33660  Biso   1.000  H
  C472     1.0000 0.15660  0.55733  0.38835  Biso   1.000  C
  H260     1.0000 0.12650  0.54430  0.39400  Biso   1.000  H
  C473     1.0000 0.16990  0.60190  0.30290  Biso   1.000  C
  C474     1.0000 0.30180  0.56061  0.56261  Biso   1.000  C
  C475     1.0000 0.36390  0.55189  0.58544  Biso   1.000  C
  H261     1.0000 0.39020  0.53870  0.57650  Biso   1.000  H
  C476     1.0000 0.38680  0.56284  0.62166  Biso   1.000  C
  H262     1.0000 0.42950  0.55730  0.63660  Biso   1.000  H
  C477     1.0000 0.34610  0.58210  0.63565  Biso   1.000  C
  C478     1.0000 0.28490  0.59049  0.61302  Biso   1.000  C
  H263     1.0000 0.25740  0.60340  0.62230  Biso   1.000  H
  C479     1.0000 0.26280  0.57987  0.57571  Biso   1.000  C
  H264     1.0000 0.22190  0.58590  0.56010  Biso   1.000  H
  C480     1.0000 0.36980  0.59269  0.67720  Biso   1.000  C
  Gd13     1.0000 0.76830  0.86424  0.23058  Biso   1.000  Gd
  O97      1.0000 0.00420  0.86999  0.20492  Biso   1.000  O
  O98      1.0000 0.89210  0.85140  0.21427  Biso   1.000  O
  O99      1.0000 0.19640  0.86211  0.83364  Biso   1.000  O
  O100     1.0000 0.23220  0.82978  0.80871  Biso   1.000  O
  O101     1.0000 0.11470  0.90515  0.21863  Biso   1.000  O
  O102     1.0000 0.21000  0.88205  0.20540  Biso   1.000  O
  O103     1.0000 0.32420  0.89300  0.80910  Biso   1.000  O
  O104     1.0000 0.43160  0.91354  0.80702  Biso   1.000  O
  C481     1.0000 0.01060  0.76239  0.01359  Biso   1.000  C
  C482     1.0000 0.99790  0.77594  0.04978  Biso   1.000  C
  H265     1.0000 0.97610  0.76920  0.07320  Biso   1.000  H
  C483     1.0000 0.01770  0.79906  0.05021  Biso   1.000  C
  C484     1.0000 0.05160  0.80917  0.01682  Biso   1.000  C
  H266     1.0000 0.06670  0.82460  0.01790  Biso   1.000  H
  C485     1.0000 0.06390  0.79600  0.97970  Biso   1.000  C
  C486     1.0000 0.04400  0.77263  0.97997  Biso   1.000  C
  H267     1.0000 0.05370  0.76380  0.95660  Biso   1.000  H
  C487     1.0000 0.00120  0.81304  0.08821  Biso   1.000  C
  C488     1.0000 0.93370  0.80990  0.11170  Biso   1.000  C
  H268     1.0000 0.89770  0.79860  0.10400  Biso   1.000  H
  C489     1.0000 0.91890  0.82334  0.14650  Biso   1.000  C
  H269     1.0000 0.87270  0.82120  0.16150  Biso   1.000  H
  C490     1.0000 0.97190  0.83953  0.15872  Biso   1.000  C
  C491     1.0000 0.03970  0.84305  0.13660  Biso   1.000  C
  H270     1.0000 0.07570  0.85410  0.14530  Biso   1.000  H
  C492     1.0000 0.05440  0.83019  0.10154  Biso   1.000  C
  H271     1.0000 0.10000  0.83290  0.08650  Biso   1.000  H
  C493     1.0000 0.95550  0.85541  0.19620  Biso   1.000  C
  C494     1.0000 0.10030  0.80750  0.94284  Biso   1.000  C
  C495     1.0000 0.09510  0.83035  0.93630  Biso   1.000  C
  H272     1.0000 0.06840  0.83940  0.95540  Biso   1.000  H
  C496     1.0000 0.12900  0.84108  0.90120  Biso   1.000  C
  H273     1.0000 0.12410  0.85700  0.89760  Biso   1.000  H
  C497     1.0000 0.16640  0.82903  0.87415  Biso   1.000  C
  C498     1.0000 0.16850  0.80653  0.87970  Biso   1.000  C
  H274     1.0000 0.19310  0.79750  0.85980  Biso   1.000  H
  C499     1.0000 0.13640  0.79588  0.91320  Biso   1.000  C
  H275     1.0000 0.14000  0.77990  0.91530  Biso   1.000  H
  C500     1.0000 0.20280  0.84051  0.83630  Biso   1.000  C
  C501     1.0000 0.25120  0.98692  0.01348  Biso   1.000  C
  C502     1.0000 0.23280  0.97405  0.04822  Biso   1.000  C
  H276     1.0000 0.21880  0.98170  0.07240  Biso   1.000  H
  C503     1.0000 0.23480  0.94993  0.04796  Biso   1.000  C
  C504     1.0000 0.25750  0.93885  0.01162  Biso   1.000  C
  H277     1.0000 0.25970  0.92280  0.01090  Biso   1.000  H
  C505     1.0000 0.27670  0.95130  0.97652  Biso   1.000  C
  C506     1.0000 0.27530  0.97512  0.97794  Biso   1.000  C
  H278     1.0000 0.29070  0.98350  0.95480  Biso   1.000  H
  C507     1.0000 0.21570  0.93651  0.08579  Biso   1.000  C
  C508     1.0000 0.26050  0.91729  0.09610  Biso   1.000  C
  H279     1.0000 0.30190  0.91300  0.07900  Biso   1.000  H
  C509     1.0000 0.24530  0.90462  0.13040  Biso   1.000  C
  H280     1.0000 0.27510  0.89160  0.13650  Biso   1.000  H
  C510     1.0000 0.18430  0.91143  0.15660  Biso   1.000  C
  C511     1.0000 0.14110  0.92953  0.14650  Biso   1.000  C
  H281     1.0000 0.09900  0.93360  0.16340  Biso   1.000  H
  C512     1.0000 0.15660  0.94267  0.11165  Biso   1.000  C
  H282     1.0000 0.12650  0.95570  0.10600  Biso   1.000  H
  C513     1.0000 0.16990  0.89810  0.19710  Biso   1.000  C
  C514     1.0000 0.30180  0.93939  0.93739  Biso   1.000  C
  C515     1.0000 0.36390  0.94811  0.91456  Biso   1.000  C
  H283     1.0000 0.39020  0.96130  0.92350  Biso   1.000  H
  C516     1.0000 0.38680  0.93716  0.87834  Biso   1.000  C
  H284     1.0000 0.42950  0.94270  0.86340  Biso   1.000  H
  C517     1.0000 0.34610  0.91790  0.86435  Biso   1.000  C
  C518     1.0000 0.28490  0.90951  0.88698  Biso   1.000  C
  H285     1.0000 0.25740  0.89660  0.87770  Biso   1.000  H
  C519     1.0000 0.26280  0.92013  0.92429  Biso   1.000  C
  H286     1.0000 0.22190  0.91410  0.93990  Biso   1.000  H
  C520     1.0000 0.36980  0.90731  0.82280  Biso   1.000  C
  Gd14     1.0000 0.26830  0.36424  0.23058  Biso   1.000  Gd
  O105     1.0000 0.50420  0.36999  0.20492  Biso   1.000  O
  O106     1.0000 0.39210  0.35140  0.21427  Biso   1.000  O
  O107     1.0000 0.69640  0.36211  0.83364  Biso   1.000  O
  O108     1.0000 0.73220  0.32978  0.80871  Biso   1.000  O
  O109     1.0000 0.61470  0.40515  0.21863  Biso   1.000  O
  O110     1.0000 0.71000  0.38205  0.20540  Biso   1.000  O
  O111     1.0000 0.82420  0.39300  0.80910  Biso   1.000  O
  O112     1.0000 0.93160  0.41354  0.80702  Biso   1.000  O
  C521     1.0000 0.51060  0.26239  0.01359  Biso   1.000  C
  C522     1.0000 0.49790  0.27594  0.04978  Biso   1.000  C
  H287     1.0000 0.47610  0.26920  0.07320  Biso   1.000  H
  C523     1.0000 0.51770  0.29906  0.05021  Biso   1.000  C
  C524     1.0000 0.55160  0.30917  0.01682  Biso   1.000  C
  H288     1.0000 0.56670  0.32460  0.01790  Biso   1.000  H
  C525     1.0000 0.56390  0.29600  0.97970  Biso   1.000  C
  C526     1.0000 0.54400  0.27263  0.97997  Biso   1.000  C
  H289     1.0000 0.55370  0.26380  0.95660  Biso   1.000  H
  C527     1.0000 0.50120  0.31304  0.08821  Biso   1.000  C
  C528     1.0000 0.43370  0.30990  0.11170  Biso   1.000  C
  H290     1.0000 0.39770  0.29860  0.10400  Biso   1.000  H
  C529     1.0000 0.41890  0.32334  0.14650  Biso   1.000  C
  H291     1.0000 0.37270  0.32120  0.16150  Biso   1.000  H
  C530     1.0000 0.47190  0.33953  0.15872  Biso   1.000  C
  C531     1.0000 0.53970  0.34305  0.13660  Biso   1.000  C
  H292     1.0000 0.57570  0.35410  0.14530  Biso   1.000  H
  C532     1.0000 0.55440  0.33019  0.10154  Biso   1.000  C
  H293     1.0000 0.60000  0.33290  0.08650  Biso   1.000  H
  C533     1.0000 0.45550  0.35541  0.19620  Biso   1.000  C
  C534     1.0000 0.60030  0.30750  0.94284  Biso   1.000  C
  C535     1.0000 0.59510  0.33035  0.93630  Biso   1.000  C
  H294     1.0000 0.56840  0.33940  0.95540  Biso   1.000  H
  C536     1.0000 0.62900  0.34108  0.90120  Biso   1.000  C
  H295     1.0000 0.62410  0.35700  0.89760  Biso   1.000  H
  C537     1.0000 0.66640  0.32903  0.87415  Biso   1.000  C
  C538     1.0000 0.66850  0.30653  0.87970  Biso   1.000  C
  H296     1.0000 0.69310  0.29750  0.85980  Biso   1.000  H
  C539     1.0000 0.63640  0.29588  0.91320  Biso   1.000  C
  H297     1.0000 0.64000  0.27990  0.91530  Biso   1.000  H
  C540     1.0000 0.70280  0.34051  0.83630  Biso   1.000  C
  C541     1.0000 0.75120  0.48692  0.01348  Biso   1.000  C
  C542     1.0000 0.73280  0.47405  0.04822  Biso   1.000  C
  H298     1.0000 0.71880  0.48170  0.07240  Biso   1.000  H
  C543     1.0000 0.73480  0.44993  0.04796  Biso   1.000  C
  C544     1.0000 0.75750  0.43885  0.01162  Biso   1.000  C
  H299     1.0000 0.75970  0.42280  0.01090  Biso   1.000  H
  C545     1.0000 0.77670  0.45130  0.97652  Biso   1.000  C
  C546     1.0000 0.77530  0.47512  0.97794  Biso   1.000  C
  H300     1.0000 0.79070  0.48350  0.95480  Biso   1.000  H
  C547     1.0000 0.71570  0.43651  0.08579  Biso   1.000  C
  C548     1.0000 0.76050  0.41729  0.09610  Biso   1.000  C
  H301     1.0000 0.80190  0.41300  0.07900  Biso   1.000  H
  C549     1.0000 0.74530  0.40462  0.13040  Biso   1.000  C
  H302     1.0000 0.77510  0.39160  0.13650  Biso   1.000  H
  C550     1.0000 0.68430  0.41143  0.15660  Biso   1.000  C
  C551     1.0000 0.64110  0.42953  0.14650  Biso   1.000  C
  H303     1.0000 0.59900  0.43360  0.16340  Biso   1.000  H
  C552     1.0000 0.65660  0.44267  0.11165  Biso   1.000  C
  H304     1.0000 0.62650  0.45570  0.10600  Biso   1.000  H
  C553     1.0000 0.66990  0.39810  0.19710  Biso   1.000  C
  C554     1.0000 0.80180  0.43939  0.93739  Biso   1.000  C
  C555     1.0000 0.86390  0.44811  0.91456  Biso   1.000  C
  H305     1.0000 0.89020  0.46130  0.92350  Biso   1.000  H
  C556     1.0000 0.88680  0.43716  0.87834  Biso   1.000  C
  H306     1.0000 0.92950  0.44270  0.86340  Biso   1.000  H
  C557     1.0000 0.84610  0.41790  0.86435  Biso   1.000  C
  C558     1.0000 0.78490  0.40951  0.88698  Biso   1.000  C
  H307     1.0000 0.75740  0.39660  0.87770  Biso   1.000  H
  C559     1.0000 0.76280  0.42013  0.92429  Biso   1.000  C
  H308     1.0000 0.72190  0.41410  0.93990  Biso   1.000  H
  C560     1.0000 0.86980  0.40731  0.82280  Biso   1.000  C
  Gd15     1.0000 0.73170  0.13576  0.23058  Biso   1.000  Gd
  O113     1.0000 0.49580  0.13001  0.20492  Biso   1.000  O
  O114     1.0000 0.60790  0.14860  0.21427  Biso   1.000  O
  O115     1.0000 0.30360  0.13789  0.83364  Biso   1.000  O
  O116     1.0000 0.26780  0.17022  0.80871  Biso   1.000  O
  O117     1.0000 0.38530  0.09485  0.21863  Biso   1.000  O
  O118     1.0000 0.29000  0.11795  0.20540  Biso   1.000  O
  O119     1.0000 0.17580  0.10700  0.80910  Biso   1.000  O
  O120     1.0000 0.06840  0.08646  0.80702  Biso   1.000  O
  C561     1.0000 0.48940  0.23761  0.01359  Biso   1.000  C
  C562     1.0000 0.50210  0.22406  0.04978  Biso   1.000  C
  H309     1.0000 0.52390  0.23080  0.07320  Biso   1.000  H
  C563     1.0000 0.48230  0.20094  0.05021  Biso   1.000  C
  C564     1.0000 0.44840  0.19083  0.01682  Biso   1.000  C
  H310     1.0000 0.43330  0.17540  0.01790  Biso   1.000  H
  C565     1.0000 0.43610  0.20400  0.97970  Biso   1.000  C
  C566     1.0000 0.45600  0.22737  0.97997  Biso   1.000  C
  H311     1.0000 0.44630  0.23620  0.95660  Biso   1.000  H
  C567     1.0000 0.49880  0.18696  0.08821  Biso   1.000  C
  C568     1.0000 0.56630  0.19010  0.11170  Biso   1.000  C
  H312     1.0000 0.60230  0.20140  0.10400  Biso   1.000  H
  C569     1.0000 0.58110  0.17666  0.14650  Biso   1.000  C
  H313     1.0000 0.62730  0.17880  0.16150  Biso   1.000  H
  C570     1.0000 0.52810  0.16047  0.15872  Biso   1.000  C
  C571     1.0000 0.46030  0.15695  0.13660  Biso   1.000  C
  H314     1.0000 0.42430  0.14590  0.14530  Biso   1.000  H
  C572     1.0000 0.44560  0.16981  0.10154  Biso   1.000  C
  H315     1.0000 0.40000  0.16710  0.08650  Biso   1.000  H
  C573     1.0000 0.54450  0.14459  0.19620  Biso   1.000  C
  C574     1.0000 0.39970  0.19250  0.94284  Biso   1.000  C
  C575     1.0000 0.40490  0.16965  0.93630  Biso   1.000  C
  H316     1.0000 0.43160  0.16060  0.95540  Biso   1.000  H
  C576     1.0000 0.37100  0.15892  0.90120  Biso   1.000  C
  H317     1.0000 0.37590  0.14300  0.89760  Biso   1.000  H
  C577     1.0000 0.33360  0.17097  0.87415  Biso   1.000  C
  C578     1.0000 0.33150  0.19347  0.87970  Biso   1.000  C
  H318     1.0000 0.30690  0.20250  0.85980  Biso   1.000  H
  C579     1.0000 0.36360  0.20412  0.91320  Biso   1.000  C
  H319     1.0000 0.36000  0.22010  0.91530  Biso   1.000  H
  C580     1.0000 0.29720  0.15949  0.83630  Biso   1.000  C
  C581     1.0000 0.24880  0.01308  0.01348  Biso   1.000  C
  C582     1.0000 0.26720  0.02595  0.04822  Biso   1.000  C
  H320     1.0000 0.28120  0.01830  0.07240  Biso   1.000  H
  C583     1.0000 0.26520  0.05007  0.04796  Biso   1.000  C
  C584     1.0000 0.24250  0.06115  0.01162  Biso   1.000  C
  H321     1.0000 0.24030  0.07720  0.01090  Biso   1.000  H
  C585     1.0000 0.22330  0.04870  0.97652  Biso   1.000  C
  C586     1.0000 0.22470  0.02488  0.97794  Biso   1.000  C
  H322     1.0000 0.20930  0.01650  0.95480  Biso   1.000  H
  C587     1.0000 0.28430  0.06349  0.08579  Biso   1.000  C
  C588     1.0000 0.23950  0.08271  0.09610  Biso   1.000  C
  H323     1.0000 0.19810  0.08700  0.07900  Biso   1.000  H
  C589     1.0000 0.25470  0.09538  0.13040  Biso   1.000  C
  H324     1.0000 0.22490  0.10840  0.13650  Biso   1.000  H
  C590     1.0000 0.31570  0.08857  0.15660  Biso   1.000  C
  C591     1.0000 0.35890  0.07047  0.14650  Biso   1.000  C
  H325     1.0000 0.40100  0.06640  0.16340  Biso   1.000  H
  C592     1.0000 0.34340  0.05733  0.11165  Biso   1.000  C
  H326     1.0000 0.37350  0.04430  0.10600  Biso   1.000  H
  C593     1.0000 0.33010  0.10190  0.19710  Biso   1.000  C
  C594     1.0000 0.19820  0.06061  0.93739  Biso   1.000  C
  C595     1.0000 0.13610  0.05189  0.91456  Biso   1.000  C
  H327     1.0000 0.10980  0.03870  0.92350  Biso   1.000  H
  C596     1.0000 0.11320  0.06284  0.87834  Biso   1.000  C
  H328     1.0000 0.07050  0.05730  0.86340  Biso   1.000  H
  C597     1.0000 0.15390  0.08210  0.86435  Biso   1.000  C
  C598     1.0000 0.21510  0.09049  0.88698  Biso   1.000  C
  H329     1.0000 0.24260  0.10340  0.87770  Biso   1.000  H
  C599     1.0000 0.23720  0.07987  0.92429  Biso   1.000  C
  H330     1.0000 0.27810  0.08590  0.93990  Biso   1.000  H
  C600     1.0000 0.13020  0.09269  0.82280  Biso   1.000  C
  Gd16     1.0000 0.23170  0.63576  0.23058  Biso   1.000  Gd
  O121     1.0000 0.99580  0.63001  0.20492  Biso   1.000  O
  O122     1.0000 0.10790  0.64860  0.21427  Biso   1.000  O
  O123     1.0000 0.80360  0.63789  0.83364  Biso   1.000  O
  O124     1.0000 0.76780  0.67022  0.80871  Biso   1.000  O
  O125     1.0000 0.88530  0.59485  0.21863  Biso   1.000  O
  O126     1.0000 0.79000  0.61795  0.20540  Biso   1.000  O
  O127     1.0000 0.67580  0.60700  0.80910  Biso   1.000  O
  O128     1.0000 0.56840  0.58646  0.80702  Biso   1.000  O
  C601     1.0000 0.98940  0.73761  0.01359  Biso   1.000  C
  C602     1.0000 0.00210  0.72406  0.04978  Biso   1.000  C
  H331     1.0000 0.02390  0.73080  0.07320  Biso   1.000  H
  C603     1.0000 0.98230  0.70094  0.05021  Biso   1.000  C
  C604     1.0000 0.94840  0.69083  0.01682  Biso   1.000  C
  H332     1.0000 0.93330  0.67540  0.01790  Biso   1.000  H
  C605     1.0000 0.93610  0.70400  0.97970  Biso   1.000  C
  C606     1.0000 0.95600  0.72737  0.97997  Biso   1.000  C
  H333     1.0000 0.94630  0.73620  0.95660  Biso   1.000  H
  C607     1.0000 0.99880  0.68696  0.08821  Biso   1.000  C
  C608     1.0000 0.06630  0.69010  0.11170  Biso   1.000  C
  H334     1.0000 0.10230  0.70140  0.10400  Biso   1.000  H
  C609     1.0000 0.08110  0.67666  0.14650  Biso   1.000  C
  H335     1.0000 0.12730  0.67880  0.16150  Biso   1.000  H
  C610     1.0000 0.02810  0.66047  0.15872  Biso   1.000  C
  C611     1.0000 0.96030  0.65695  0.13660  Biso   1.000  C
  H336     1.0000 0.92430  0.64590  0.14530  Biso   1.000  H
  C612     1.0000 0.94560  0.66981  0.10154  Biso   1.000  C
  H337     1.0000 0.90000  0.66710  0.08650  Biso   1.000  H
  C613     1.0000 0.04450  0.64459  0.19620  Biso   1.000  C
  C614     1.0000 0.89970  0.69250  0.94284  Biso   1.000  C
  C615     1.0000 0.90490  0.66965  0.93630  Biso   1.000  C
  H338     1.0000 0.93160  0.66060  0.95540  Biso   1.000  H
  C616     1.0000 0.87100  0.65892  0.90120  Biso   1.000  C
  H339     1.0000 0.87590  0.64300  0.89760  Biso   1.000  H
  C617     1.0000 0.83360  0.67097  0.87415  Biso   1.000  C
  C618     1.0000 0.83150  0.69347  0.87970  Biso   1.000  C
  H340     1.0000 0.80690  0.70250  0.85980  Biso   1.000  H
  C619     1.0000 0.86360  0.70412  0.91320  Biso   1.000  C
  H341     1.0000 0.86000  0.72010  0.91530  Biso   1.000  H
  C620     1.0000 0.79720  0.65949  0.83630  Biso   1.000  C
  C621     1.0000 0.74880  0.51308  0.01348  Biso   1.000  C
  C622     1.0000 0.76720  0.52595  0.04822  Biso   1.000  C
  H342     1.0000 0.78120  0.51830  0.07240  Biso   1.000  H
  C623     1.0000 0.76520  0.55007  0.04796  Biso   1.000  C
  C624     1.0000 0.74250  0.56115  0.01162  Biso   1.000  C
  H343     1.0000 0.74030  0.57720  0.01090  Biso   1.000  H
  C625     1.0000 0.72330  0.54870  0.97652  Biso   1.000  C
  C626     1.0000 0.72470  0.52488  0.97794  Biso   1.000  C
  H344     1.0000 0.70930  0.51650  0.95480  Biso   1.000  H
  C627     1.0000 0.78430  0.56349  0.08579  Biso   1.000  C
  C628     1.0000 0.73950  0.58271  0.09610  Biso   1.000  C
  H345     1.0000 0.69810  0.58700  0.07900  Biso   1.000  H
  C629     1.0000 0.75470  0.59538  0.13040  Biso   1.000  C
  H346     1.0000 0.72490  0.60840  0.13650  Biso   1.000  H
  C630     1.0000 0.81570  0.58857  0.15660  Biso   1.000  C
  C631     1.0000 0.85890  0.57047  0.14650  Biso   1.000  C
  H347     1.0000 0.90100  0.56640  0.16340  Biso   1.000  H
  C632     1.0000 0.84340  0.55733  0.11165  Biso   1.000  C
  H348     1.0000 0.87350  0.54430  0.10600  Biso   1.000  H
  C633     1.0000 0.83010  0.60190  0.19710  Biso   1.000  C
  C634     1.0000 0.69820  0.56061  0.93739  Biso   1.000  C
  C635     1.0000 0.63610  0.55189  0.91456  Biso   1.000  C
  H349     1.0000 0.60980  0.53870  0.92350  Biso   1.000  H
  C636     1.0000 0.61320  0.56284  0.87834  Biso   1.000  C
  H350     1.0000 0.57050  0.55730  0.86340  Biso   1.000  H
  C637     1.0000 0.65390  0.58210  0.86435  Biso   1.000  C
  C638     1.0000 0.71510  0.59049  0.88698  Biso   1.000  C
  H351     1.0000 0.74260  0.60340  0.87770  Biso   1.000  H
  C639     1.0000 0.73720  0.57987  0.92429  Biso   1.000  C
  H352     1.0000 0.77810  0.58590  0.93990  Biso   1.000  H
  C640     1.0000 0.63020  0.59269  0.82280  Biso   1.000  C
  Gd17     1.0000 0.00000  0.09952  0.75000  Biso   1.000  Gd
  Gd18     1.0000 0.50000  0.59952  0.75000  Biso   1.000  Gd
  Gd19     1.0000 0.50000  0.90048  0.75000  Biso   1.000  Gd
  Gd20     1.0000 0.00000  0.40048  0.75000  Biso   1.000  Gd
  Gd21     1.0000 0.00000  0.90048  0.25000  Biso   1.000  Gd
  Gd22     1.0000 0.50000  0.40048  0.25000  Biso   1.000  Gd
  Gd23     1.0000 0.50000  0.09952  0.25000  Biso   1.000  Gd
  Gd24     1.0000 0.00000  0.59952  0.25000  Biso   1.000  Gd
