data_image0
_cell_length_a       16.3257
_cell_length_b       59.1677
_cell_length_c       32.1508
_cell_angle_alpha    90
_cell_angle_beta     90
_cell_angle_gamma    90

_symmetry_space_group_name_H-M    "P 1"
_symmetry_int_tables_number       1

loop_
  _symmetry_equiv_pos_as_xyz
  'x, y, z'

loop_
  _atom_site_label
  _atom_site_occupancy
  _atom_site_fract_x
  _atom_site_fract_y
  _atom_site_fract_z
  _atom_site_thermal_displace_type
  _atom_site_B_iso_or_equiv
  _atom_site_type_symbol
  Ho1      1.0000 0.76137  0.13427  0.72949  Biso   1.000  Ho
  O1       1.0000 0.00813  0.13063  0.70539  Biso   1.000  O
  O2       1.0000 0.88850  0.14640  0.71318  Biso   1.000  O
  O3       1.0000 0.19830  0.13789  0.33620  Biso   1.000  O
  O4       1.0000 0.22657  0.16994  0.30754  Biso   1.000  O
  O5       1.0000 0.11990  0.09533  0.71876  Biso   1.000  O
  O6       1.0000 0.22720  0.11614  0.70764  Biso   1.000  O
  O7       1.0000 0.31370  0.10509  0.30768  Biso   1.000  O
  O8       1.0000 0.43109  0.08760  0.30751  Biso   1.000  O
  C1       1.0000 0.00980  0.23760  0.51569  Biso   1.000  C
  C2       1.0000 0.99772  0.22439  0.55114  Biso   1.000  C
  H1       1.0000 0.97620  0.23120  0.57480  Biso   1.000  H
  C3       1.0000 0.01710  0.20097  0.55231  Biso   1.000  C
  C4       1.0000 0.05160  0.19124  0.51742  Biso   1.000  C
  H2       1.0000 0.06630  0.17610  0.51790  Biso   1.000  H
  C5       1.0000 0.06480  0.20401  0.48123  Biso   1.000  C
  C6       1.0000 0.04290  0.22737  0.48114  Biso   1.000  C
  H3       1.0000 0.05130  0.23590  0.45720  Biso   1.000  H
  C7       1.0000 0.00250  0.18716  0.58932  Biso   1.000  C
  C8       1.0000 0.93290  0.18973  0.61245  Biso   1.000  C
  H4       1.0000 0.89550  0.20090  0.60520  Biso   1.000  H
  C9       1.0000 0.91660  0.17610  0.64636  Biso   1.000  C
  H5       1.0000 0.86830  0.17790  0.66130  Biso   1.000  H
  C10      1.0000 0.97270  0.15965  0.65808  Biso   1.000  C
  C11      1.0000 0.04190  0.15701  0.63621  Biso   1.000  C
  H6       1.0000 0.07980  0.14600  0.64390  Biso   1.000  H
  C12      1.0000 0.05680  0.17062  0.60226  Biso   1.000  C
  H7       1.0000 0.10520  0.16860  0.58750  Biso   1.000  H
  C13      1.0000 0.95600  0.14429  0.69531  Biso   1.000  C
  C14      1.0000 0.09950  0.19273  0.44393  Biso   1.000  C
  C15      1.0000 0.09640  0.16985  0.43857  Biso   1.000  C
  H8       1.0000 0.07170  0.16110  0.45900  Biso   1.000  H
  C16      1.0000 0.12880  0.15907  0.40374  Biso   1.000  C
  H9       1.0000 0.12460  0.14350  0.40110  Biso   1.000  H
  C17      1.0000 0.16550  0.17108  0.37441  Biso   1.000  C
  C18      1.0000 0.16840  0.19325  0.37873  Biso   1.000  C
  H10      1.0000 0.19390  0.20180  0.35820  Biso   1.000  H
  C19      1.0000 0.13430  0.20434  0.41324  Biso   1.000  C
  H11      1.0000 0.13610  0.22000  0.41470  Biso   1.000  H
  C20      1.0000 0.20020  0.15947  0.33677  Biso   1.000  C
  C21      1.0000 0.25300  0.01299  0.51398  Biso   1.000  C
  C22      1.0000 0.23370  0.02572  0.54871  Biso   1.000  C
  H12      1.0000 0.21710  0.01840  0.57290  Biso   1.000  H
  C23      1.0000 0.23850  0.04971  0.54857  Biso   1.000  C
  C24      1.0000 0.26140  0.06070  0.51216  Biso   1.000  C
  H13      1.0000 0.26520  0.07640  0.51150  Biso   1.000  H
  C25      1.0000 0.27830  0.04823  0.47700  Biso   1.000  C
  C26      1.0000 0.27540  0.02479  0.47830  Biso   1.000  C
  H14      1.0000 0.28900  0.01670  0.45450  Biso   1.000  H
  C27      1.0000 0.22070  0.06290  0.58635  Biso   1.000  C
  C28      1.0000 0.26760  0.08180  0.59707  Biso   1.000  C
  H15      1.0000 0.30980  0.08620  0.57940  Biso   1.000  H
  C29      1.0000 0.25400  0.09400  0.63247  Biso   1.000  C
  H16      1.0000 0.28660  0.10640  0.63860  Biso   1.000  H
  C30      1.0000 0.19240  0.08784  0.65869  Biso   1.000  C
  C31      1.0000 0.14250  0.06989  0.64784  Biso   1.000  C
  H17      1.0000 0.09750  0.06640  0.66440  Biso   1.000  H
  C32      1.0000 0.15840  0.05711  0.61269  Biso   1.000  C
  H18      1.0000 0.12650  0.04450  0.60690  Biso   1.000  H
  C33      1.0000 0.18050  0.10151  0.69859  Biso   1.000  C
  C34      1.0000 0.30300  0.06024  0.43788  Biso   1.000  C
  C35      1.0000 0.36670  0.05203  0.41405  Biso   1.000  C
  H19      1.0000 0.39560  0.03930  0.42280  Biso   1.000  H
  C36      1.0000 0.38740  0.06235  0.37798  Biso   1.000  C
  H20      1.0000 0.43080  0.05680  0.36230  Biso   1.000  H
  C37      1.0000 0.34440  0.08122  0.36406  Biso   1.000  C
  C38      1.0000 0.28110  0.08973  0.38759  Biso   1.000  C
  H21      1.0000 0.25160  0.10230  0.37850  Biso   1.000  H
  C39      1.0000 0.26200  0.07940  0.42484  Biso   1.000  C
  H22      1.0000 0.22080  0.08540  0.44140  Biso   1.000  H
  C40      1.0000 0.36530  0.09257  0.32311  Biso   1.000  C
  Ho2      1.0000 0.26137  0.63427  0.72949  Biso   1.000  Ho
  O9       1.0000 0.50813  0.63063  0.70539  Biso   1.000  O
  O10      1.0000 0.38850  0.64640  0.71318  Biso   1.000  O
  O11      1.0000 0.69830  0.63789  0.33620  Biso   1.000  O
  O12      1.0000 0.72657  0.66994  0.30754  Biso   1.000  O
  O13      1.0000 0.61990  0.59533  0.71876  Biso   1.000  O
  O14      1.0000 0.72720  0.61614  0.70764  Biso   1.000  O
  O15      1.0000 0.81370  0.60509  0.30768  Biso   1.000  O
  O16      1.0000 0.93109  0.58760  0.30751  Biso   1.000  O
  C41      1.0000 0.50980  0.73760  0.51569  Biso   1.000  C
  C42      1.0000 0.49772  0.72439  0.55114  Biso   1.000  C
  H23      1.0000 0.47620  0.73120  0.57480  Biso   1.000  H
  C43      1.0000 0.51710  0.70097  0.55231  Biso   1.000  C
  C44      1.0000 0.55160  0.69124  0.51742  Biso   1.000  C
  H24      1.0000 0.56630  0.67610  0.51790  Biso   1.000  H
  C45      1.0000 0.56480  0.70401  0.48123  Biso   1.000  C
  C46      1.0000 0.54290  0.72737  0.48114  Biso   1.000  C
  H25      1.0000 0.55130  0.73590  0.45720  Biso   1.000  H
  C47      1.0000 0.50250  0.68716  0.58932  Biso   1.000  C
  C48      1.0000 0.43290  0.68973  0.61245  Biso   1.000  C
  H26      1.0000 0.39550  0.70090  0.60520  Biso   1.000  H
  C49      1.0000 0.41660  0.67610  0.64636  Biso   1.000  C
  H27      1.0000 0.36830  0.67790  0.66130  Biso   1.000  H
  C50      1.0000 0.47270  0.65965  0.65808  Biso   1.000  C
  C51      1.0000 0.54190  0.65701  0.63621  Biso   1.000  C
  H28      1.0000 0.57980  0.64600  0.64390  Biso   1.000  H
  C52      1.0000 0.55680  0.67062  0.60226  Biso   1.000  C
  H29      1.0000 0.60520  0.66860  0.58750  Biso   1.000  H
  C53      1.0000 0.45600  0.64429  0.69531  Biso   1.000  C
  C54      1.0000 0.59950  0.69273  0.44393  Biso   1.000  C
  C55      1.0000 0.59640  0.66985  0.43857  Biso   1.000  C
  H30      1.0000 0.57170  0.66110  0.45900  Biso   1.000  H
  C56      1.0000 0.62880  0.65907  0.40374  Biso   1.000  C
  H31      1.0000 0.62460  0.64350  0.40110  Biso   1.000  H
  C57      1.0000 0.66550  0.67108  0.37441  Biso   1.000  C
  C58      1.0000 0.66840  0.69325  0.37873  Biso   1.000  C
  H32      1.0000 0.69390  0.70180  0.35820  Biso   1.000  H
  C59      1.0000 0.63430  0.70434  0.41324  Biso   1.000  C
  H33      1.0000 0.63610  0.72000  0.41470  Biso   1.000  H
  C60      1.0000 0.70020  0.65947  0.33677  Biso   1.000  C
  C61      1.0000 0.75300  0.51299  0.51398  Biso   1.000  C
  C62      1.0000 0.73370  0.52572  0.54871  Biso   1.000  C
  H34      1.0000 0.71710  0.51840  0.57290  Biso   1.000  H
  C63      1.0000 0.73850  0.54971  0.54857  Biso   1.000  C
  C64      1.0000 0.76140  0.56070  0.51216  Biso   1.000  C
  H35      1.0000 0.76520  0.57640  0.51150  Biso   1.000  H
  C65      1.0000 0.77830  0.54823  0.47700  Biso   1.000  C
  C66      1.0000 0.77540  0.52479  0.47830  Biso   1.000  C
  H36      1.0000 0.78900  0.51670  0.45450  Biso   1.000  H
  C67      1.0000 0.72070  0.56290  0.58635  Biso   1.000  C
  C68      1.0000 0.76760  0.58180  0.59707  Biso   1.000  C
  H37      1.0000 0.80980  0.58620  0.57940  Biso   1.000  H
  C69      1.0000 0.75400  0.59400  0.63247  Biso   1.000  C
  H38      1.0000 0.78660  0.60640  0.63860  Biso   1.000  H
  C70      1.0000 0.69240  0.58784  0.65869  Biso   1.000  C
  C71      1.0000 0.64250  0.56989  0.64784  Biso   1.000  C
  H39      1.0000 0.59750  0.56640  0.66440  Biso   1.000  H
  C72      1.0000 0.65840  0.55711  0.61269  Biso   1.000  C
  H40      1.0000 0.62650  0.54450  0.60690  Biso   1.000  H
  C73      1.0000 0.68050  0.60151  0.69859  Biso   1.000  C
  C74      1.0000 0.80300  0.56024  0.43788  Biso   1.000  C
  C75      1.0000 0.86670  0.55203  0.41405  Biso   1.000  C
  H41      1.0000 0.89560  0.53930  0.42280  Biso   1.000  H
  C76      1.0000 0.88740  0.56235  0.37798  Biso   1.000  C
  H42      1.0000 0.93080  0.55680  0.36230  Biso   1.000  H
  C77      1.0000 0.84440  0.58122  0.36406  Biso   1.000  C
  C78      1.0000 0.78110  0.58973  0.38759  Biso   1.000  C
  H43      1.0000 0.75160  0.60230  0.37850  Biso   1.000  H
  C79      1.0000 0.76200  0.57940  0.42484  Biso   1.000  C
  H44      1.0000 0.72080  0.58540  0.44140  Biso   1.000  H
  C80      1.0000 0.86530  0.59257  0.32311  Biso   1.000  C
  Ho3      1.0000 0.73863  0.86573  0.72949  Biso   1.000  Ho
  O17      1.0000 0.49187  0.86937  0.70539  Biso   1.000  O
  O18      1.0000 0.61150  0.85360  0.71318  Biso   1.000  O
  O19      1.0000 0.30170  0.86211  0.33620  Biso   1.000  O
  O20      1.0000 0.27343  0.83006  0.30754  Biso   1.000  O
  O21      1.0000 0.38010  0.90467  0.71876  Biso   1.000  O
  O22      1.0000 0.27280  0.88386  0.70764  Biso   1.000  O
  O23      1.0000 0.18630  0.89491  0.30768  Biso   1.000  O
  O24      1.0000 0.06891  0.91240  0.30751  Biso   1.000  O
  C81      1.0000 0.49020  0.76240  0.51569  Biso   1.000  C
  C82      1.0000 0.50228  0.77561  0.55114  Biso   1.000  C
  H45      1.0000 0.52380  0.76880  0.57480  Biso   1.000  H
  C83      1.0000 0.48290  0.79903  0.55231  Biso   1.000  C
  C84      1.0000 0.44840  0.80876  0.51742  Biso   1.000  C
  H46      1.0000 0.43370  0.82390  0.51790  Biso   1.000  H
  C85      1.0000 0.43520  0.79599  0.48123  Biso   1.000  C
  C86      1.0000 0.45710  0.77263  0.48114  Biso   1.000  C
  H47      1.0000 0.44870  0.76410  0.45720  Biso   1.000  H
  C87      1.0000 0.49750  0.81284  0.58932  Biso   1.000  C
  C88      1.0000 0.56710  0.81027  0.61245  Biso   1.000  C
  H48      1.0000 0.60450  0.79910  0.60520  Biso   1.000  H
  C89      1.0000 0.58340  0.82390  0.64636  Biso   1.000  C
  H49      1.0000 0.63170  0.82210  0.66130  Biso   1.000  H
  C90      1.0000 0.52730  0.84035  0.65808  Biso   1.000  C
  C91      1.0000 0.45810  0.84299  0.63621  Biso   1.000  C
  H50      1.0000 0.42020  0.85400  0.64390  Biso   1.000  H
  C92      1.0000 0.44320  0.82938  0.60226  Biso   1.000  C
  H51      1.0000 0.39480  0.83140  0.58750  Biso   1.000  H
  C93      1.0000 0.54400  0.85571  0.69531  Biso   1.000  C
  C94      1.0000 0.40050  0.80727  0.44393  Biso   1.000  C
  C95      1.0000 0.40360  0.83015  0.43857  Biso   1.000  C
  H52      1.0000 0.42830  0.83890  0.45900  Biso   1.000  H
  C96      1.0000 0.37120  0.84093  0.40374  Biso   1.000  C
  H53      1.0000 0.37540  0.85650  0.40110  Biso   1.000  H
  C97      1.0000 0.33450  0.82892  0.37441  Biso   1.000  C
  C98      1.0000 0.33160  0.80675  0.37873  Biso   1.000  C
  H54      1.0000 0.30610  0.79820  0.35820  Biso   1.000  H
  C99      1.0000 0.36570  0.79566  0.41324  Biso   1.000  C
  H55      1.0000 0.36390  0.78000  0.41470  Biso   1.000  H
  C100     1.0000 0.29980  0.84053  0.33677  Biso   1.000  C
  C101     1.0000 0.24700  0.98701  0.51398  Biso   1.000  C
  C102     1.0000 0.26630  0.97428  0.54871  Biso   1.000  C
  H56      1.0000 0.28290  0.98160  0.57290  Biso   1.000  H
  C103     1.0000 0.26150  0.95029  0.54857  Biso   1.000  C
  C104     1.0000 0.23860  0.93930  0.51216  Biso   1.000  C
  H57      1.0000 0.23480  0.92360  0.51150  Biso   1.000  H
  C105     1.0000 0.22170  0.95177  0.47700  Biso   1.000  C
  C106     1.0000 0.22460  0.97521  0.47830  Biso   1.000  C
  H58      1.0000 0.21100  0.98330  0.45450  Biso   1.000  H
  C107     1.0000 0.27930  0.93710  0.58635  Biso   1.000  C
  C108     1.0000 0.23240  0.91820  0.59707  Biso   1.000  C
  H59      1.0000 0.19020  0.91380  0.57940  Biso   1.000  H
  C109     1.0000 0.24600  0.90600  0.63247  Biso   1.000  C
  H60      1.0000 0.21340  0.89360  0.63860  Biso   1.000  H
  C110     1.0000 0.30760  0.91216  0.65869  Biso   1.000  C
  C111     1.0000 0.35750  0.93011  0.64784  Biso   1.000  C
  H61      1.0000 0.40250  0.93360  0.66440  Biso   1.000  H
  C112     1.0000 0.34160  0.94289  0.61269  Biso   1.000  C
  H62      1.0000 0.37350  0.95550  0.60690  Biso   1.000  H
  C113     1.0000 0.31950  0.89849  0.69859  Biso   1.000  C
  C114     1.0000 0.19700  0.93976  0.43788  Biso   1.000  C
  C115     1.0000 0.13330  0.94797  0.41405  Biso   1.000  C
  H63      1.0000 0.10440  0.96070  0.42280  Biso   1.000  H
  C116     1.0000 0.11260  0.93765  0.37798  Biso   1.000  C
  H64      1.0000 0.06920  0.94320  0.36230  Biso   1.000  H
  C117     1.0000 0.15560  0.91878  0.36406  Biso   1.000  C
  C118     1.0000 0.21890  0.91027  0.38759  Biso   1.000  C
  H65      1.0000 0.24840  0.89770  0.37850  Biso   1.000  H
  C119     1.0000 0.23800  0.92060  0.42484  Biso   1.000  C
  H66      1.0000 0.27920  0.91460  0.44140  Biso   1.000  H
  C120     1.0000 0.13470  0.90743  0.32311  Biso   1.000  C
  Ho4      1.0000 0.23863  0.36573  0.72949  Biso   1.000  Ho
  O25      1.0000 0.99187  0.36937  0.70539  Biso   1.000  O
  O26      1.0000 0.11150  0.35360  0.71318  Biso   1.000  O
  O27      1.0000 0.80170  0.36211  0.33620  Biso   1.000  O
  O28      1.0000 0.77343  0.33006  0.30754  Biso   1.000  O
  O29      1.0000 0.88010  0.40467  0.71876  Biso   1.000  O
  O30      1.0000 0.77280  0.38386  0.70764  Biso   1.000  O
  O31      1.0000 0.68630  0.39491  0.30768  Biso   1.000  O
  O32      1.0000 0.56891  0.41240  0.30751  Biso   1.000  O
  C121     1.0000 0.99020  0.26240  0.51569  Biso   1.000  C
  C122     1.0000 0.00228  0.27561  0.55114  Biso   1.000  C
  H67      1.0000 0.02380  0.26880  0.57480  Biso   1.000  H
  C123     1.0000 0.98290  0.29903  0.55231  Biso   1.000  C
  C124     1.0000 0.94840  0.30876  0.51742  Biso   1.000  C
  H68      1.0000 0.93370  0.32390  0.51790  Biso   1.000  H
  C125     1.0000 0.93520  0.29599  0.48123  Biso   1.000  C
  C126     1.0000 0.95710  0.27263  0.48114  Biso   1.000  C
  H69      1.0000 0.94870  0.26410  0.45720  Biso   1.000  H
  C127     1.0000 0.99750  0.31284  0.58932  Biso   1.000  C
  C128     1.0000 0.06710  0.31027  0.61245  Biso   1.000  C
  H70      1.0000 0.10450  0.29910  0.60520  Biso   1.000  H
  C129     1.0000 0.08340  0.32390  0.64636  Biso   1.000  C
  H71      1.0000 0.13170  0.32210  0.66130  Biso   1.000  H
  C130     1.0000 0.02730  0.34035  0.65808  Biso   1.000  C
  C131     1.0000 0.95810  0.34299  0.63621  Biso   1.000  C
  H72      1.0000 0.92020  0.35400  0.64390  Biso   1.000  H
  C132     1.0000 0.94320  0.32938  0.60226  Biso   1.000  C
  H73      1.0000 0.89480  0.33140  0.58750  Biso   1.000  H
  C133     1.0000 0.04400  0.35571  0.69531  Biso   1.000  C
  C134     1.0000 0.90050  0.30727  0.44393  Biso   1.000  C
  C135     1.0000 0.90360  0.33015  0.43857  Biso   1.000  C
  H74      1.0000 0.92830  0.33890  0.45900  Biso   1.000  H
  C136     1.0000 0.87120  0.34093  0.40374  Biso   1.000  C
  H75      1.0000 0.87540  0.35650  0.40110  Biso   1.000  H
  C137     1.0000 0.83450  0.32892  0.37441  Biso   1.000  C
  C138     1.0000 0.83160  0.30675  0.37873  Biso   1.000  C
  H76      1.0000 0.80610  0.29820  0.35820  Biso   1.000  H
  C139     1.0000 0.86570  0.29566  0.41324  Biso   1.000  C
  H77      1.0000 0.86390  0.28000  0.41470  Biso   1.000  H
  C140     1.0000 0.79980  0.34053  0.33677  Biso   1.000  C
  C141     1.0000 0.74700  0.48701  0.51398  Biso   1.000  C
  C142     1.0000 0.76630  0.47428  0.54871  Biso   1.000  C
  H78      1.0000 0.78290  0.48160  0.57290  Biso   1.000  H
  C143     1.0000 0.76150  0.45029  0.54857  Biso   1.000  C
  C144     1.0000 0.73860  0.43930  0.51216  Biso   1.000  C
  H79      1.0000 0.73480  0.42360  0.51150  Biso   1.000  H
  C145     1.0000 0.72170  0.45177  0.47700  Biso   1.000  C
  C146     1.0000 0.72460  0.47521  0.47830  Biso   1.000  C
  H80      1.0000 0.71100  0.48330  0.45450  Biso   1.000  H
  C147     1.0000 0.77930  0.43710  0.58635  Biso   1.000  C
  C148     1.0000 0.73240  0.41820  0.59707  Biso   1.000  C
  H81      1.0000 0.69020  0.41380  0.57940  Biso   1.000  H
  C149     1.0000 0.74600  0.40600  0.63247  Biso   1.000  C
  H82      1.0000 0.71340  0.39360  0.63860  Biso   1.000  H
  C150     1.0000 0.80760  0.41216  0.65869  Biso   1.000  C
  C151     1.0000 0.85750  0.43011  0.64784  Biso   1.000  C
  H83      1.0000 0.90250  0.43360  0.66440  Biso   1.000  H
  C152     1.0000 0.84160  0.44289  0.61269  Biso   1.000  C
  H84      1.0000 0.87350  0.45550  0.60690  Biso   1.000  H
  C153     1.0000 0.81950  0.39849  0.69859  Biso   1.000  C
  C154     1.0000 0.69700  0.43976  0.43788  Biso   1.000  C
  C155     1.0000 0.63330  0.44797  0.41405  Biso   1.000  C
  H85      1.0000 0.60440  0.46070  0.42280  Biso   1.000  H
  C156     1.0000 0.61260  0.43765  0.37798  Biso   1.000  C
  H86      1.0000 0.56920  0.44320  0.36230  Biso   1.000  H
  C157     1.0000 0.65560  0.41878  0.36406  Biso   1.000  C
  C158     1.0000 0.71890  0.41027  0.38759  Biso   1.000  C
  H87      1.0000 0.74840  0.39770  0.37850  Biso   1.000  H
  C159     1.0000 0.73800  0.42060  0.42484  Biso   1.000  C
  H88      1.0000 0.77920  0.41460  0.44140  Biso   1.000  H
  C160     1.0000 0.63470  0.40743  0.32311  Biso   1.000  C
  Ho5      1.0000 0.23863  0.13427  0.77051  Biso   1.000  Ho
  O33      1.0000 0.99187  0.13063  0.79461  Biso   1.000  O
  O34      1.0000 0.11150  0.14640  0.78682  Biso   1.000  O
  O35      1.0000 0.80170  0.13789  0.16380  Biso   1.000  O
  O36      1.0000 0.77343  0.16994  0.19246  Biso   1.000  O
  O37      1.0000 0.88010  0.09533  0.78124  Biso   1.000  O
  O38      1.0000 0.77280  0.11614  0.79236  Biso   1.000  O
  O39      1.0000 0.68630  0.10509  0.19232  Biso   1.000  O
  O40      1.0000 0.56891  0.08760  0.19249  Biso   1.000  O
  C161     1.0000 0.99020  0.23760  0.98431  Biso   1.000  C
  C162     1.0000 0.00228  0.22439  0.94886  Biso   1.000  C
  H89      1.0000 0.02380  0.23120  0.92520  Biso   1.000  H
  C163     1.0000 0.98290  0.20097  0.94769  Biso   1.000  C
  C164     1.0000 0.94840  0.19124  0.98258  Biso   1.000  C
  H90      1.0000 0.93370  0.17610  0.98210  Biso   1.000  H
  C165     1.0000 0.93520  0.20401  0.01877  Biso   1.000  C
  C166     1.0000 0.95710  0.22737  0.01886  Biso   1.000  C
  H91      1.0000 0.94870  0.23590  0.04280  Biso   1.000  H
  C167     1.0000 0.99750  0.18716  0.91068  Biso   1.000  C
  C168     1.0000 0.06710  0.18973  0.88755  Biso   1.000  C
  H92      1.0000 0.10450  0.20090  0.89480  Biso   1.000  H
  C169     1.0000 0.08340  0.17610  0.85364  Biso   1.000  C
  H93      1.0000 0.13170  0.17790  0.83870  Biso   1.000  H
  C170     1.0000 0.02730  0.15965  0.84192  Biso   1.000  C
  C171     1.0000 0.95810  0.15701  0.86379  Biso   1.000  C
  H94      1.0000 0.92020  0.14600  0.85610  Biso   1.000  H
  C172     1.0000 0.94320  0.17062  0.89774  Biso   1.000  C
  H95      1.0000 0.89480  0.16860  0.91250  Biso   1.000  H
  C173     1.0000 0.04400  0.14429  0.80469  Biso   1.000  C
  C174     1.0000 0.90050  0.19273  0.05607  Biso   1.000  C
  C175     1.0000 0.90360  0.16985  0.06143  Biso   1.000  C
  H96      1.0000 0.92830  0.16110  0.04100  Biso   1.000  H
  C176     1.0000 0.87120  0.15907  0.09626  Biso   1.000  C
  H97      1.0000 0.87540  0.14350  0.09890  Biso   1.000  H
  C177     1.0000 0.83450  0.17108  0.12559  Biso   1.000  C
  C178     1.0000 0.83160  0.19325  0.12127  Biso   1.000  C
  H98      1.0000 0.80610  0.20180  0.14180  Biso   1.000  H
  C179     1.0000 0.86570  0.20434  0.08676  Biso   1.000  C
  H99      1.0000 0.86390  0.22000  0.08530  Biso   1.000  H
  C180     1.0000 0.79980  0.15947  0.16323  Biso   1.000  C
  C181     1.0000 0.74700  0.01299  0.98602  Biso   1.000  C
  C182     1.0000 0.76630  0.02572  0.95129  Biso   1.000  C
  H100     1.0000 0.78290  0.01840  0.92710  Biso   1.000  H
  C183     1.0000 0.76150  0.04971  0.95143  Biso   1.000  C
  C184     1.0000 0.73860  0.06070  0.98784  Biso   1.000  C
  H101     1.0000 0.73480  0.07640  0.98850  Biso   1.000  H
  C185     1.0000 0.72170  0.04823  0.02300  Biso   1.000  C
  C186     1.0000 0.72460  0.02479  0.02170  Biso   1.000  C
  H102     1.0000 0.71100  0.01670  0.04550  Biso   1.000  H
  C187     1.0000 0.77930  0.06290  0.91365  Biso   1.000  C
  C188     1.0000 0.73240  0.08180  0.90293  Biso   1.000  C
  H103     1.0000 0.69020  0.08620  0.92060  Biso   1.000  H
  C189     1.0000 0.74600  0.09400  0.86753  Biso   1.000  C
  H104     1.0000 0.71340  0.10640  0.86140  Biso   1.000  H
  C190     1.0000 0.80760  0.08784  0.84131  Biso   1.000  C
  C191     1.0000 0.85750  0.06989  0.85216  Biso   1.000  C
  H105     1.0000 0.90250  0.06640  0.83560  Biso   1.000  H
  C192     1.0000 0.84160  0.05711  0.88731  Biso   1.000  C
  H106     1.0000 0.87350  0.04450  0.89310  Biso   1.000  H
  C193     1.0000 0.81950  0.10151  0.80141  Biso   1.000  C
  C194     1.0000 0.69700  0.06024  0.06212  Biso   1.000  C
  C195     1.0000 0.63330  0.05203  0.08595  Biso   1.000  C
  H107     1.0000 0.60440  0.03930  0.07720  Biso   1.000  H
  C196     1.0000 0.61260  0.06235  0.12202  Biso   1.000  C
  H108     1.0000 0.56920  0.05680  0.13770  Biso   1.000  H
  C197     1.0000 0.65560  0.08122  0.13594  Biso   1.000  C
  C198     1.0000 0.71890  0.08973  0.11241  Biso   1.000  C
  H109     1.0000 0.74840  0.10230  0.12150  Biso   1.000  H
  C199     1.0000 0.73800  0.07940  0.07516  Biso   1.000  C
  H110     1.0000 0.77920  0.08540  0.05860  Biso   1.000  H
  C200     1.0000 0.63470  0.09257  0.17689  Biso   1.000  C
  Ho6      1.0000 0.73863  0.63427  0.77051  Biso   1.000  Ho
  O41      1.0000 0.49187  0.63063  0.79461  Biso   1.000  O
  O42      1.0000 0.61150  0.64640  0.78682  Biso   1.000  O
  O43      1.0000 0.30170  0.63789  0.16380  Biso   1.000  O
  O44      1.0000 0.27343  0.66994  0.19246  Biso   1.000  O
  O45      1.0000 0.38010  0.59533  0.78124  Biso   1.000  O
  O46      1.0000 0.27280  0.61614  0.79236  Biso   1.000  O
  O47      1.0000 0.18630  0.60509  0.19232  Biso   1.000  O
  O48      1.0000 0.06891  0.58760  0.19249  Biso   1.000  O
  C201     1.0000 0.49020  0.73760  0.98431  Biso   1.000  C
  C202     1.0000 0.50228  0.72439  0.94886  Biso   1.000  C
  H111     1.0000 0.52380  0.73120  0.92520  Biso   1.000  H
  C203     1.0000 0.48290  0.70097  0.94769  Biso   1.000  C
  C204     1.0000 0.44840  0.69124  0.98258  Biso   1.000  C
  H112     1.0000 0.43370  0.67610  0.98210  Biso   1.000  H
  C205     1.0000 0.43520  0.70401  0.01877  Biso   1.000  C
  C206     1.0000 0.45710  0.72737  0.01886  Biso   1.000  C
  H113     1.0000 0.44870  0.73590  0.04280  Biso   1.000  H
  C207     1.0000 0.49750  0.68716  0.91068  Biso   1.000  C
  C208     1.0000 0.56710  0.68973  0.88755  Biso   1.000  C
  H114     1.0000 0.60450  0.70090  0.89480  Biso   1.000  H
  C209     1.0000 0.58340  0.67610  0.85364  Biso   1.000  C
  H115     1.0000 0.63170  0.67790  0.83870  Biso   1.000  H
  C210     1.0000 0.52730  0.65965  0.84192  Biso   1.000  C
  C211     1.0000 0.45810  0.65701  0.86379  Biso   1.000  C
  H116     1.0000 0.42020  0.64600  0.85610  Biso   1.000  H
  C212     1.0000 0.44320  0.67062  0.89774  Biso   1.000  C
  H117     1.0000 0.39480  0.66860  0.91250  Biso   1.000  H
  C213     1.0000 0.54400  0.64429  0.80469  Biso   1.000  C
  C214     1.0000 0.40050  0.69273  0.05607  Biso   1.000  C
  C215     1.0000 0.40360  0.66985  0.06143  Biso   1.000  C
  H118     1.0000 0.42830  0.66110  0.04100  Biso   1.000  H
  C216     1.0000 0.37120  0.65907  0.09626  Biso   1.000  C
  H119     1.0000 0.37540  0.64350  0.09890  Biso   1.000  H
  C217     1.0000 0.33450  0.67108  0.12559  Biso   1.000  C
  C218     1.0000 0.33160  0.69325  0.12127  Biso   1.000  C
  H120     1.0000 0.30610  0.70180  0.14180  Biso   1.000  H
  C219     1.0000 0.36570  0.70434  0.08676  Biso   1.000  C
  H121     1.0000 0.36390  0.72000  0.08530  Biso   1.000  H
  C220     1.0000 0.29980  0.65947  0.16323  Biso   1.000  C
  C221     1.0000 0.24700  0.51299  0.98602  Biso   1.000  C
  C222     1.0000 0.26630  0.52572  0.95129  Biso   1.000  C
  H122     1.0000 0.28290  0.51840  0.92710  Biso   1.000  H
  C223     1.0000 0.26150  0.54971  0.95143  Biso   1.000  C
  C224     1.0000 0.23860  0.56070  0.98784  Biso   1.000  C
  H123     1.0000 0.23480  0.57640  0.98850  Biso   1.000  H
  C225     1.0000 0.22170  0.54823  0.02300  Biso   1.000  C
  C226     1.0000 0.22460  0.52479  0.02170  Biso   1.000  C
  H124     1.0000 0.21100  0.51670  0.04550  Biso   1.000  H
  C227     1.0000 0.27930  0.56290  0.91365  Biso   1.000  C
  C228     1.0000 0.23240  0.58180  0.90293  Biso   1.000  C
  H125     1.0000 0.19020  0.58620  0.92060  Biso   1.000  H
  C229     1.0000 0.24600  0.59400  0.86753  Biso   1.000  C
  H126     1.0000 0.21340  0.60640  0.86140  Biso   1.000  H
  C230     1.0000 0.30760  0.58784  0.84131  Biso   1.000  C
  C231     1.0000 0.35750  0.56989  0.85216  Biso   1.000  C
  H127     1.0000 0.40250  0.56640  0.83560  Biso   1.000  H
  C232     1.0000 0.34160  0.55711  0.88731  Biso   1.000  C
  H128     1.0000 0.37350  0.54450  0.89310  Biso   1.000  H
  C233     1.0000 0.31950  0.60151  0.80141  Biso   1.000  C
  C234     1.0000 0.19700  0.56024  0.06212  Biso   1.000  C
  C235     1.0000 0.13330  0.55203  0.08595  Biso   1.000  C
  H129     1.0000 0.10440  0.53930  0.07720  Biso   1.000  H
  C236     1.0000 0.11260  0.56235  0.12202  Biso   1.000  C
  H130     1.0000 0.06920  0.55680  0.13770  Biso   1.000  H
  C237     1.0000 0.15560  0.58122  0.13594  Biso   1.000  C
  C238     1.0000 0.21890  0.58973  0.11241  Biso   1.000  C
  H131     1.0000 0.24840  0.60230  0.12150  Biso   1.000  H
  C239     1.0000 0.23800  0.57940  0.07516  Biso   1.000  C
  H132     1.0000 0.27920  0.58540  0.05860  Biso   1.000  H
  C240     1.0000 0.13470  0.59257  0.17689  Biso   1.000  C
  Ho7      1.0000 0.26137  0.86573  0.77051  Biso   1.000  Ho
  O49      1.0000 0.50813  0.86937  0.79461  Biso   1.000  O
  O50      1.0000 0.38850  0.85360  0.78682  Biso   1.000  O
  O51      1.0000 0.69830  0.86211  0.16380  Biso   1.000  O
  O52      1.0000 0.72657  0.83006  0.19246  Biso   1.000  O
  O53      1.0000 0.61990  0.90467  0.78124  Biso   1.000  O
  O54      1.0000 0.72720  0.88386  0.79236  Biso   1.000  O
  O55      1.0000 0.81370  0.89491  0.19232  Biso   1.000  O
  O56      1.0000 0.93109  0.91240  0.19249  Biso   1.000  O
  C241     1.0000 0.50980  0.76240  0.98431  Biso   1.000  C
  C242     1.0000 0.49772  0.77561  0.94886  Biso   1.000  C
  H133     1.0000 0.47620  0.76880  0.92520  Biso   1.000  H
  C243     1.0000 0.51710  0.79903  0.94769  Biso   1.000  C
  C244     1.0000 0.55160  0.80876  0.98258  Biso   1.000  C
  H134     1.0000 0.56630  0.82390  0.98210  Biso   1.000  H
  C245     1.0000 0.56480  0.79599  0.01877  Biso   1.000  C
  C246     1.0000 0.54290  0.77263  0.01886  Biso   1.000  C
  H135     1.0000 0.55130  0.76410  0.04280  Biso   1.000  H
  C247     1.0000 0.50250  0.81284  0.91068  Biso   1.000  C
  C248     1.0000 0.43290  0.81027  0.88755  Biso   1.000  C
  H136     1.0000 0.39550  0.79910  0.89480  Biso   1.000  H
  C249     1.0000 0.41660  0.82390  0.85364  Biso   1.000  C
  H137     1.0000 0.36830  0.82210  0.83870  Biso   1.000  H
  C250     1.0000 0.47270  0.84035  0.84192  Biso   1.000  C
  C251     1.0000 0.54190  0.84299  0.86379  Biso   1.000  C
  H138     1.0000 0.57980  0.85400  0.85610  Biso   1.000  H
  C252     1.0000 0.55680  0.82938  0.89774  Biso   1.000  C
  H139     1.0000 0.60520  0.83140  0.91250  Biso   1.000  H
  C253     1.0000 0.45600  0.85571  0.80469  Biso   1.000  C
  C254     1.0000 0.59950  0.80727  0.05607  Biso   1.000  C
  C255     1.0000 0.59640  0.83015  0.06143  Biso   1.000  C
  H140     1.0000 0.57170  0.83890  0.04100  Biso   1.000  H
  C256     1.0000 0.62880  0.84093  0.09626  Biso   1.000  C
  H141     1.0000 0.62460  0.85650  0.09890  Biso   1.000  H
  C257     1.0000 0.66550  0.82892  0.12559  Biso   1.000  C
  C258     1.0000 0.66840  0.80675  0.12127  Biso   1.000  C
  H142     1.0000 0.69390  0.79820  0.14180  Biso   1.000  H
  C259     1.0000 0.63430  0.79566  0.08676  Biso   1.000  C
  H143     1.0000 0.63610  0.78000  0.08530  Biso   1.000  H
  C260     1.0000 0.70020  0.84053  0.16323  Biso   1.000  C
  C261     1.0000 0.75300  0.98701  0.98602  Biso   1.000  C
  C262     1.0000 0.73370  0.97428  0.95129  Biso   1.000  C
  H144     1.0000 0.71710  0.98160  0.92710  Biso   1.000  H
  C263     1.0000 0.73850  0.95029  0.95143  Biso   1.000  C
  C264     1.0000 0.76140  0.93930  0.98784  Biso   1.000  C
  H145     1.0000 0.76520  0.92360  0.98850  Biso   1.000  H
  C265     1.0000 0.77830  0.95177  0.02300  Biso   1.000  C
  C266     1.0000 0.77540  0.97521  0.02170  Biso   1.000  C
  H146     1.0000 0.78900  0.98330  0.04550  Biso   1.000  H
  C267     1.0000 0.72070  0.93710  0.91365  Biso   1.000  C
  C268     1.0000 0.76760  0.91820  0.90293  Biso   1.000  C
  H147     1.0000 0.80980  0.91380  0.92060  Biso   1.000  H
  C269     1.0000 0.75400  0.90600  0.86753  Biso   1.000  C
  H148     1.0000 0.78660  0.89360  0.86140  Biso   1.000  H
  C270     1.0000 0.69240  0.91216  0.84131  Biso   1.000  C
  C271     1.0000 0.64250  0.93011  0.85216  Biso   1.000  C
  H149     1.0000 0.59750  0.93360  0.83560  Biso   1.000  H
  C272     1.0000 0.65840  0.94289  0.88731  Biso   1.000  C
  H150     1.0000 0.62650  0.95550  0.89310  Biso   1.000  H
  C273     1.0000 0.68050  0.89849  0.80141  Biso   1.000  C
  C274     1.0000 0.80300  0.93976  0.06212  Biso   1.000  C
  C275     1.0000 0.86670  0.94797  0.08595  Biso   1.000  C
  H151     1.0000 0.89560  0.96070  0.07720  Biso   1.000  H
  C276     1.0000 0.88740  0.93765  0.12202  Biso   1.000  C
  H152     1.0000 0.93080  0.94320  0.13770  Biso   1.000  H
  C277     1.0000 0.84440  0.91878  0.13594  Biso   1.000  C
  C278     1.0000 0.78110  0.91027  0.11241  Biso   1.000  C
  H153     1.0000 0.75160  0.89770  0.12150  Biso   1.000  H
  C279     1.0000 0.76200  0.92060  0.07516  Biso   1.000  C
  H154     1.0000 0.72080  0.91460  0.05860  Biso   1.000  H
  C280     1.0000 0.86530  0.90743  0.17689  Biso   1.000  C
  Ho8      1.0000 0.76137  0.36573  0.77051  Biso   1.000  Ho
  O57      1.0000 0.00813  0.36937  0.79461  Biso   1.000  O
  O58      1.0000 0.88850  0.35360  0.78682  Biso   1.000  O
  O59      1.0000 0.19830  0.36211  0.16380  Biso   1.000  O
  O60      1.0000 0.22657  0.33006  0.19246  Biso   1.000  O
  O61      1.0000 0.11990  0.40467  0.78124  Biso   1.000  O
  O62      1.0000 0.22720  0.38386  0.79236  Biso   1.000  O
  O63      1.0000 0.31370  0.39491  0.19232  Biso   1.000  O
  O64      1.0000 0.43109  0.41240  0.19249  Biso   1.000  O
  C281     1.0000 0.00980  0.26240  0.98431  Biso   1.000  C
  C282     1.0000 0.99772  0.27561  0.94886  Biso   1.000  C
  H155     1.0000 0.97620  0.26880  0.92520  Biso   1.000  H
  C283     1.0000 0.01710  0.29903  0.94769  Biso   1.000  C
  C284     1.0000 0.05160  0.30876  0.98258  Biso   1.000  C
  H156     1.0000 0.06630  0.32390  0.98210  Biso   1.000  H
  C285     1.0000 0.06480  0.29599  0.01877  Biso   1.000  C
  C286     1.0000 0.04290  0.27263  0.01886  Biso   1.000  C
  H157     1.0000 0.05130  0.26410  0.04280  Biso   1.000  H
  C287     1.0000 0.00250  0.31284  0.91068  Biso   1.000  C
  C288     1.0000 0.93290  0.31027  0.88755  Biso   1.000  C
  H158     1.0000 0.89550  0.29910  0.89480  Biso   1.000  H
  C289     1.0000 0.91660  0.32390  0.85364  Biso   1.000  C
  H159     1.0000 0.86830  0.32210  0.83870  Biso   1.000  H
  C290     1.0000 0.97270  0.34035  0.84192  Biso   1.000  C
  C291     1.0000 0.04190  0.34299  0.86379  Biso   1.000  C
  H160     1.0000 0.07980  0.35400  0.85610  Biso   1.000  H
  C292     1.0000 0.05680  0.32938  0.89774  Biso   1.000  C
  H161     1.0000 0.10520  0.33140  0.91250  Biso   1.000  H
  C293     1.0000 0.95600  0.35571  0.80469  Biso   1.000  C
  C294     1.0000 0.09950  0.30727  0.05607  Biso   1.000  C
  C295     1.0000 0.09640  0.33015  0.06143  Biso   1.000  C
  H162     1.0000 0.07170  0.33890  0.04100  Biso   1.000  H
  C296     1.0000 0.12880  0.34093  0.09626  Biso   1.000  C
  H163     1.0000 0.12460  0.35650  0.09890  Biso   1.000  H
  C297     1.0000 0.16550  0.32892  0.12559  Biso   1.000  C
  C298     1.0000 0.16840  0.30675  0.12127  Biso   1.000  C
  H164     1.0000 0.19390  0.29820  0.14180  Biso   1.000  H
  C299     1.0000 0.13430  0.29566  0.08676  Biso   1.000  C
  H165     1.0000 0.13610  0.28000  0.08530  Biso   1.000  H
  C300     1.0000 0.20020  0.34053  0.16323  Biso   1.000  C
  C301     1.0000 0.25300  0.48701  0.98602  Biso   1.000  C
  C302     1.0000 0.23370  0.47428  0.95129  Biso   1.000  C
  H166     1.0000 0.21710  0.48160  0.92710  Biso   1.000  H
  C303     1.0000 0.23850  0.45029  0.95143  Biso   1.000  C
  C304     1.0000 0.26140  0.43930  0.98784  Biso   1.000  C
  H167     1.0000 0.26520  0.42360  0.98850  Biso   1.000  H
  C305     1.0000 0.27830  0.45177  0.02300  Biso   1.000  C
  C306     1.0000 0.27540  0.47521  0.02170  Biso   1.000  C
  H168     1.0000 0.28900  0.48330  0.04550  Biso   1.000  H
  C307     1.0000 0.22070  0.43710  0.91365  Biso   1.000  C
  C308     1.0000 0.26760  0.41820  0.90293  Biso   1.000  C
  H169     1.0000 0.30980  0.41380  0.92060  Biso   1.000  H
  C309     1.0000 0.25400  0.40600  0.86753  Biso   1.000  C
  H170     1.0000 0.28660  0.39360  0.86140  Biso   1.000  H
  C310     1.0000 0.19240  0.41216  0.84131  Biso   1.000  C
  C311     1.0000 0.14250  0.43011  0.85216  Biso   1.000  C
  H171     1.0000 0.09750  0.43360  0.83560  Biso   1.000  H
  C312     1.0000 0.15840  0.44289  0.88731  Biso   1.000  C
  H172     1.0000 0.12650  0.45550  0.89310  Biso   1.000  H
  C313     1.0000 0.18050  0.39849  0.80141  Biso   1.000  C
  C314     1.0000 0.30300  0.43976  0.06212  Biso   1.000  C
  C315     1.0000 0.36670  0.44797  0.08595  Biso   1.000  C
  H173     1.0000 0.39560  0.46070  0.07720  Biso   1.000  H
  C316     1.0000 0.38740  0.43765  0.12202  Biso   1.000  C
  H174     1.0000 0.43080  0.44320  0.13770  Biso   1.000  H
  C317     1.0000 0.34440  0.41878  0.13594  Biso   1.000  C
  C318     1.0000 0.28110  0.41027  0.11241  Biso   1.000  C
  H175     1.0000 0.25160  0.39770  0.12150  Biso   1.000  H
  C319     1.0000 0.26200  0.42060  0.07516  Biso   1.000  C
  H176     1.0000 0.22080  0.41460  0.05860  Biso   1.000  H
  C320     1.0000 0.36530  0.40743  0.17689  Biso   1.000  C
  Ho9      1.0000 0.23863  0.86573  0.27051  Biso   1.000  Ho
  O65      1.0000 0.99187  0.86937  0.29461  Biso   1.000  O
  O66      1.0000 0.11150  0.85360  0.28682  Biso   1.000  O
  O67      1.0000 0.80170  0.86211  0.66380  Biso   1.000  O
  O68      1.0000 0.77343  0.83006  0.69246  Biso   1.000  O
  O69      1.0000 0.88010  0.90467  0.28124  Biso   1.000  O
  O70      1.0000 0.77280  0.88386  0.29236  Biso   1.000  O
  O71      1.0000 0.68630  0.89491  0.69232  Biso   1.000  O
  O72      1.0000 0.56891  0.91240  0.69249  Biso   1.000  O
  C321     1.0000 0.99020  0.76240  0.48431  Biso   1.000  C
  C322     1.0000 0.00228  0.77561  0.44886  Biso   1.000  C
  H177     1.0000 0.02380  0.76880  0.42520  Biso   1.000  H
  C323     1.0000 0.98290  0.79903  0.44769  Biso   1.000  C
  C324     1.0000 0.94840  0.80876  0.48258  Biso   1.000  C
  H178     1.0000 0.93370  0.82390  0.48210  Biso   1.000  H
  C325     1.0000 0.93520  0.79599  0.51877  Biso   1.000  C
  C326     1.0000 0.95710  0.77263  0.51886  Biso   1.000  C
  H179     1.0000 0.94870  0.76410  0.54280  Biso   1.000  H
  C327     1.0000 0.99750  0.81284  0.41068  Biso   1.000  C
  C328     1.0000 0.06710  0.81027  0.38755  Biso   1.000  C
  H180     1.0000 0.10450  0.79910  0.39480  Biso   1.000  H
  C329     1.0000 0.08340  0.82390  0.35364  Biso   1.000  C
  H181     1.0000 0.13170  0.82210  0.33870  Biso   1.000  H
  C330     1.0000 0.02730  0.84035  0.34192  Biso   1.000  C
  C331     1.0000 0.95810  0.84299  0.36379  Biso   1.000  C
  H182     1.0000 0.92020  0.85400  0.35610  Biso   1.000  H
  C332     1.0000 0.94320  0.82938  0.39774  Biso   1.000  C
  H183     1.0000 0.89480  0.83140  0.41250  Biso   1.000  H
  C333     1.0000 0.04400  0.85571  0.30469  Biso   1.000  C
  C334     1.0000 0.90050  0.80727  0.55607  Biso   1.000  C
  C335     1.0000 0.90360  0.83015  0.56143  Biso   1.000  C
  H184     1.0000 0.92830  0.83890  0.54100  Biso   1.000  H
  C336     1.0000 0.87120  0.84093  0.59626  Biso   1.000  C
  H185     1.0000 0.87540  0.85650  0.59890  Biso   1.000  H
  C337     1.0000 0.83450  0.82892  0.62559  Biso   1.000  C
  C338     1.0000 0.83160  0.80675  0.62127  Biso   1.000  C
  H186     1.0000 0.80610  0.79820  0.64180  Biso   1.000  H
  C339     1.0000 0.86570  0.79566  0.58676  Biso   1.000  C
  H187     1.0000 0.86390  0.78000  0.58530  Biso   1.000  H
  C340     1.0000 0.79980  0.84053  0.66323  Biso   1.000  C
  C341     1.0000 0.74700  0.98701  0.48602  Biso   1.000  C
  C342     1.0000 0.76630  0.97428  0.45129  Biso   1.000  C
  H188     1.0000 0.78290  0.98160  0.42710  Biso   1.000  H
  C343     1.0000 0.76150  0.95029  0.45143  Biso   1.000  C
  C344     1.0000 0.73860  0.93930  0.48784  Biso   1.000  C
  H189     1.0000 0.73480  0.92360  0.48850  Biso   1.000  H
  C345     1.0000 0.72170  0.95177  0.52300  Biso   1.000  C
  C346     1.0000 0.72460  0.97521  0.52170  Biso   1.000  C
  H190     1.0000 0.71100  0.98330  0.54550  Biso   1.000  H
  C347     1.0000 0.77930  0.93710  0.41365  Biso   1.000  C
  C348     1.0000 0.73240  0.91820  0.40293  Biso   1.000  C
  H191     1.0000 0.69020  0.91380  0.42060  Biso   1.000  H
  C349     1.0000 0.74600  0.90600  0.36753  Biso   1.000  C
  H192     1.0000 0.71340  0.89360  0.36140  Biso   1.000  H
  C350     1.0000 0.80760  0.91216  0.34131  Biso   1.000  C
  C351     1.0000 0.85750  0.93011  0.35216  Biso   1.000  C
  H193     1.0000 0.90250  0.93360  0.33560  Biso   1.000  H
  C352     1.0000 0.84160  0.94289  0.38731  Biso   1.000  C
  H194     1.0000 0.87350  0.95550  0.39310  Biso   1.000  H
  C353     1.0000 0.81950  0.89849  0.30141  Biso   1.000  C
  C354     1.0000 0.69700  0.93976  0.56212  Biso   1.000  C
  C355     1.0000 0.63330  0.94797  0.58595  Biso   1.000  C
  H195     1.0000 0.60440  0.96070  0.57720  Biso   1.000  H
  C356     1.0000 0.61260  0.93765  0.62202  Biso   1.000  C
  H196     1.0000 0.56920  0.94320  0.63770  Biso   1.000  H
  C357     1.0000 0.65560  0.91878  0.63594  Biso   1.000  C
  C358     1.0000 0.71890  0.91027  0.61241  Biso   1.000  C
  H197     1.0000 0.74840  0.89770  0.62150  Biso   1.000  H
  C359     1.0000 0.73800  0.92060  0.57516  Biso   1.000  C
  H198     1.0000 0.77920  0.91460  0.55860  Biso   1.000  H
  C360     1.0000 0.63470  0.90743  0.67689  Biso   1.000  C
  Ho10     1.0000 0.73863  0.36573  0.27051  Biso   1.000  Ho
  O73      1.0000 0.49187  0.36937  0.29461  Biso   1.000  O
  O74      1.0000 0.61150  0.35360  0.28682  Biso   1.000  O
  O75      1.0000 0.30170  0.36211  0.66380  Biso   1.000  O
  O76      1.0000 0.27343  0.33006  0.69246  Biso   1.000  O
  O77      1.0000 0.38010  0.40467  0.28124  Biso   1.000  O
  O78      1.0000 0.27280  0.38386  0.29236  Biso   1.000  O
  O79      1.0000 0.18630  0.39491  0.69232  Biso   1.000  O
  O80      1.0000 0.06891  0.41240  0.69249  Biso   1.000  O
  C361     1.0000 0.49020  0.26240  0.48431  Biso   1.000  C
  C362     1.0000 0.50228  0.27561  0.44886  Biso   1.000  C
  H199     1.0000 0.52380  0.26880  0.42520  Biso   1.000  H
  C363     1.0000 0.48290  0.29903  0.44769  Biso   1.000  C
  C364     1.0000 0.44840  0.30876  0.48258  Biso   1.000  C
  H200     1.0000 0.43370  0.32390  0.48210  Biso   1.000  H
  C365     1.0000 0.43520  0.29599  0.51877  Biso   1.000  C
  C366     1.0000 0.45710  0.27263  0.51886  Biso   1.000  C
  H201     1.0000 0.44870  0.26410  0.54280  Biso   1.000  H
  C367     1.0000 0.49750  0.31284  0.41068  Biso   1.000  C
  C368     1.0000 0.56710  0.31027  0.38755  Biso   1.000  C
  H202     1.0000 0.60450  0.29910  0.39480  Biso   1.000  H
  C369     1.0000 0.58340  0.32390  0.35364  Biso   1.000  C
  H203     1.0000 0.63170  0.32210  0.33870  Biso   1.000  H
  C370     1.0000 0.52730  0.34035  0.34192  Biso   1.000  C
  C371     1.0000 0.45810  0.34299  0.36379  Biso   1.000  C
  H204     1.0000 0.42020  0.35400  0.35610  Biso   1.000  H
  C372     1.0000 0.44320  0.32938  0.39774  Biso   1.000  C
  H205     1.0000 0.39480  0.33140  0.41250  Biso   1.000  H
  C373     1.0000 0.54400  0.35571  0.30469  Biso   1.000  C
  C374     1.0000 0.40050  0.30727  0.55607  Biso   1.000  C
  C375     1.0000 0.40360  0.33015  0.56143  Biso   1.000  C
  H206     1.0000 0.42830  0.33890  0.54100  Biso   1.000  H
  C376     1.0000 0.37120  0.34093  0.59626  Biso   1.000  C
  H207     1.0000 0.37540  0.35650  0.59890  Biso   1.000  H
  C377     1.0000 0.33450  0.32892  0.62559  Biso   1.000  C
  C378     1.0000 0.33160  0.30675  0.62127  Biso   1.000  C
  H208     1.0000 0.30610  0.29820  0.64180  Biso   1.000  H
  C379     1.0000 0.36570  0.29566  0.58676  Biso   1.000  C
  H209     1.0000 0.36390  0.28000  0.58530  Biso   1.000  H
  C380     1.0000 0.29980  0.34053  0.66323  Biso   1.000  C
  C381     1.0000 0.24700  0.48701  0.48602  Biso   1.000  C
  C382     1.0000 0.26630  0.47428  0.45129  Biso   1.000  C
  H210     1.0000 0.28290  0.48160  0.42710  Biso   1.000  H
  C383     1.0000 0.26150  0.45029  0.45143  Biso   1.000  C
  C384     1.0000 0.23860  0.43930  0.48784  Biso   1.000  C
  H211     1.0000 0.23480  0.42360  0.48850  Biso   1.000  H
  C385     1.0000 0.22170  0.45177  0.52300  Biso   1.000  C
  C386     1.0000 0.22460  0.47521  0.52170  Biso   1.000  C
  H212     1.0000 0.21100  0.48330  0.54550  Biso   1.000  H
  C387     1.0000 0.27930  0.43710  0.41365  Biso   1.000  C
  C388     1.0000 0.23240  0.41820  0.40293  Biso   1.000  C
  H213     1.0000 0.19020  0.41380  0.42060  Biso   1.000  H
  C389     1.0000 0.24600  0.40600  0.36753  Biso   1.000  C
  H214     1.0000 0.21340  0.39360  0.36140  Biso   1.000  H
  C390     1.0000 0.30760  0.41216  0.34131  Biso   1.000  C
  C391     1.0000 0.35750  0.43011  0.35216  Biso   1.000  C
  H215     1.0000 0.40250  0.43360  0.33560  Biso   1.000  H
  C392     1.0000 0.34160  0.44289  0.38731  Biso   1.000  C
  H216     1.0000 0.37350  0.45550  0.39310  Biso   1.000  H
  C393     1.0000 0.31950  0.39849  0.30141  Biso   1.000  C
  C394     1.0000 0.19700  0.43976  0.56212  Biso   1.000  C
  C395     1.0000 0.13330  0.44797  0.58595  Biso   1.000  C
  H217     1.0000 0.10440  0.46070  0.57720  Biso   1.000  H
  C396     1.0000 0.11260  0.43765  0.62202  Biso   1.000  C
  H218     1.0000 0.06920  0.44320  0.63770  Biso   1.000  H
  C397     1.0000 0.15560  0.41878  0.63594  Biso   1.000  C
  C398     1.0000 0.21890  0.41027  0.61241  Biso   1.000  C
  H219     1.0000 0.24840  0.39770  0.62150  Biso   1.000  H
  C399     1.0000 0.23800  0.42060  0.57516  Biso   1.000  C
  H220     1.0000 0.27920  0.41460  0.55860  Biso   1.000  H
  C400     1.0000 0.13470  0.40743  0.67689  Biso   1.000  C
  Ho11     1.0000 0.26137  0.13427  0.27051  Biso   1.000  Ho
  O81      1.0000 0.50813  0.13063  0.29461  Biso   1.000  O
  O82      1.0000 0.38850  0.14640  0.28682  Biso   1.000  O
  O83      1.0000 0.69830  0.13789  0.66380  Biso   1.000  O
  O84      1.0000 0.72657  0.16994  0.69246  Biso   1.000  O
  O85      1.0000 0.61990  0.09533  0.28124  Biso   1.000  O
  O86      1.0000 0.72720  0.11614  0.29236  Biso   1.000  O
  O87      1.0000 0.81370  0.10509  0.69232  Biso   1.000  O
  O88      1.0000 0.93109  0.08760  0.69249  Biso   1.000  O
  C401     1.0000 0.50980  0.23760  0.48431  Biso   1.000  C
  C402     1.0000 0.49772  0.22439  0.44886  Biso   1.000  C
  H221     1.0000 0.47620  0.23120  0.42520  Biso   1.000  H
  C403     1.0000 0.51710  0.20097  0.44769  Biso   1.000  C
  C404     1.0000 0.55160  0.19124  0.48258  Biso   1.000  C
  H222     1.0000 0.56630  0.17610  0.48210  Biso   1.000  H
  C405     1.0000 0.56480  0.20401  0.51877  Biso   1.000  C
  C406     1.0000 0.54290  0.22737  0.51886  Biso   1.000  C
  H223     1.0000 0.55130  0.23590  0.54280  Biso   1.000  H
  C407     1.0000 0.50250  0.18716  0.41068  Biso   1.000  C
  C408     1.0000 0.43290  0.18973  0.38755  Biso   1.000  C
  H224     1.0000 0.39550  0.20090  0.39480  Biso   1.000  H
  C409     1.0000 0.41660  0.17610  0.35364  Biso   1.000  C
  H225     1.0000 0.36830  0.17790  0.33870  Biso   1.000  H
  C410     1.0000 0.47270  0.15965  0.34192  Biso   1.000  C
  C411     1.0000 0.54190  0.15701  0.36379  Biso   1.000  C
  H226     1.0000 0.57980  0.14600  0.35610  Biso   1.000  H
  C412     1.0000 0.55680  0.17062  0.39774  Biso   1.000  C
  H227     1.0000 0.60520  0.16860  0.41250  Biso   1.000  H
  C413     1.0000 0.45600  0.14429  0.30469  Biso   1.000  C
  C414     1.0000 0.59950  0.19273  0.55607  Biso   1.000  C
  C415     1.0000 0.59640  0.16985  0.56143  Biso   1.000  C
  H228     1.0000 0.57170  0.16110  0.54100  Biso   1.000  H
  C416     1.0000 0.62880  0.15907  0.59626  Biso   1.000  C
  H229     1.0000 0.62460  0.14350  0.59890  Biso   1.000  H
  C417     1.0000 0.66550  0.17108  0.62559  Biso   1.000  C
  C418     1.0000 0.66840  0.19325  0.62127  Biso   1.000  C
  H230     1.0000 0.69390  0.20180  0.64180  Biso   1.000  H
  C419     1.0000 0.63430  0.20434  0.58676  Biso   1.000  C
  H231     1.0000 0.63610  0.22000  0.58530  Biso   1.000  H
  C420     1.0000 0.70020  0.15947  0.66323  Biso   1.000  C
  C421     1.0000 0.75300  0.01299  0.48602  Biso   1.000  C
  C422     1.0000 0.73370  0.02572  0.45129  Biso   1.000  C
  H232     1.0000 0.71710  0.01840  0.42710  Biso   1.000  H
  C423     1.0000 0.73850  0.04971  0.45143  Biso   1.000  C
  C424     1.0000 0.76140  0.06070  0.48784  Biso   1.000  C
  H233     1.0000 0.76520  0.07640  0.48850  Biso   1.000  H
  C425     1.0000 0.77830  0.04823  0.52300  Biso   1.000  C
  C426     1.0000 0.77540  0.02479  0.52170  Biso   1.000  C
  H234     1.0000 0.78900  0.01670  0.54550  Biso   1.000  H
  C427     1.0000 0.72070  0.06290  0.41365  Biso   1.000  C
  C428     1.0000 0.76760  0.08180  0.40293  Biso   1.000  C
  H235     1.0000 0.80980  0.08620  0.42060  Biso   1.000  H
  C429     1.0000 0.75400  0.09400  0.36753  Biso   1.000  C
  H236     1.0000 0.78660  0.10640  0.36140  Biso   1.000  H
  C430     1.0000 0.69240  0.08784  0.34131  Biso   1.000  C
  C431     1.0000 0.64250  0.06989  0.35216  Biso   1.000  C
  H237     1.0000 0.59750  0.06640  0.33560  Biso   1.000  H
  C432     1.0000 0.65840  0.05711  0.38731  Biso   1.000  C
  H238     1.0000 0.62650  0.04450  0.39310  Biso   1.000  H
  C433     1.0000 0.68050  0.10151  0.30141  Biso   1.000  C
  C434     1.0000 0.80300  0.06024  0.56212  Biso   1.000  C
  C435     1.0000 0.86670  0.05203  0.58595  Biso   1.000  C
  H239     1.0000 0.89560  0.03930  0.57720  Biso   1.000  H
  C436     1.0000 0.88740  0.06235  0.62202  Biso   1.000  C
  H240     1.0000 0.93080  0.05680  0.63770  Biso   1.000  H
  C437     1.0000 0.84440  0.08122  0.63594  Biso   1.000  C
  C438     1.0000 0.78110  0.08973  0.61241  Biso   1.000  C
  H241     1.0000 0.75160  0.10230  0.62150  Biso   1.000  H
  C439     1.0000 0.76200  0.07940  0.57516  Biso   1.000  C
  H242     1.0000 0.72080  0.08540  0.55860  Biso   1.000  H
  C440     1.0000 0.86530  0.09257  0.67689  Biso   1.000  C
  Ho12     1.0000 0.76137  0.63427  0.27051  Biso   1.000  Ho
  O89      1.0000 0.00813  0.63063  0.29461  Biso   1.000  O
  O90      1.0000 0.88850  0.64640  0.28682  Biso   1.000  O
  O91      1.0000 0.19830  0.63789  0.66380  Biso   1.000  O
  O92      1.0000 0.22657  0.66994  0.69246  Biso   1.000  O
  O93      1.0000 0.11990  0.59533  0.28124  Biso   1.000  O
  O94      1.0000 0.22720  0.61614  0.29236  Biso   1.000  O
  O95      1.0000 0.31370  0.60509  0.69232  Biso   1.000  O
  O96      1.0000 0.43109  0.58760  0.69249  Biso   1.000  O
  C441     1.0000 0.00980  0.73760  0.48431  Biso   1.000  C
  C442     1.0000 0.99772  0.72439  0.44886  Biso   1.000  C
  H243     1.0000 0.97620  0.73120  0.42520  Biso   1.000  H
  C443     1.0000 0.01710  0.70097  0.44769  Biso   1.000  C
  C444     1.0000 0.05160  0.69124  0.48258  Biso   1.000  C
  H244     1.0000 0.06630  0.67610  0.48210  Biso   1.000  H
  C445     1.0000 0.06480  0.70401  0.51877  Biso   1.000  C
  C446     1.0000 0.04290  0.72737  0.51886  Biso   1.000  C
  H245     1.0000 0.05130  0.73590  0.54280  Biso   1.000  H
  C447     1.0000 0.00250  0.68716  0.41068  Biso   1.000  C
  C448     1.0000 0.93290  0.68973  0.38755  Biso   1.000  C
  H246     1.0000 0.89550  0.70090  0.39480  Biso   1.000  H
  C449     1.0000 0.91660  0.67610  0.35364  Biso   1.000  C
  H247     1.0000 0.86830  0.67790  0.33870  Biso   1.000  H
  C450     1.0000 0.97270  0.65965  0.34192  Biso   1.000  C
  C451     1.0000 0.04190  0.65701  0.36379  Biso   1.000  C
  H248     1.0000 0.07980  0.64600  0.35610  Biso   1.000  H
  C452     1.0000 0.05680  0.67062  0.39774  Biso   1.000  C
  H249     1.0000 0.10520  0.66860  0.41250  Biso   1.000  H
  C453     1.0000 0.95600  0.64429  0.30469  Biso   1.000  C
  C454     1.0000 0.09950  0.69273  0.55607  Biso   1.000  C
  C455     1.0000 0.09640  0.66985  0.56143  Biso   1.000  C
  H250     1.0000 0.07170  0.66110  0.54100  Biso   1.000  H
  C456     1.0000 0.12880  0.65907  0.59626  Biso   1.000  C
  H251     1.0000 0.12460  0.64350  0.59890  Biso   1.000  H
  C457     1.0000 0.16550  0.67108  0.62559  Biso   1.000  C
  C458     1.0000 0.16840  0.69325  0.62127  Biso   1.000  C
  H252     1.0000 0.19390  0.70180  0.64180  Biso   1.000  H
  C459     1.0000 0.13430  0.70434  0.58676  Biso   1.000  C
  H253     1.0000 0.13610  0.72000  0.58530  Biso   1.000  H
  C460     1.0000 0.20020  0.65947  0.66323  Biso   1.000  C
  C461     1.0000 0.25300  0.51299  0.48602  Biso   1.000  C
  C462     1.0000 0.23370  0.52572  0.45129  Biso   1.000  C
  H254     1.0000 0.21710  0.51840  0.42710  Biso   1.000  H
  C463     1.0000 0.23850  0.54971  0.45143  Biso   1.000  C
  C464     1.0000 0.26140  0.56070  0.48784  Biso   1.000  C
  H255     1.0000 0.26520  0.57640  0.48850  Biso   1.000  H
  C465     1.0000 0.27830  0.54823  0.52300  Biso   1.000  C
  C466     1.0000 0.27540  0.52479  0.52170  Biso   1.000  C
  H256     1.0000 0.28900  0.51670  0.54550  Biso   1.000  H
  C467     1.0000 0.22070  0.56290  0.41365  Biso   1.000  C
  C468     1.0000 0.26760  0.58180  0.40293  Biso   1.000  C
  H257     1.0000 0.30980  0.58620  0.42060  Biso   1.000  H
  C469     1.0000 0.25400  0.59400  0.36753  Biso   1.000  C
  H258     1.0000 0.28660  0.60640  0.36140  Biso   1.000  H
  C470     1.0000 0.19240  0.58784  0.34131  Biso   1.000  C
  C471     1.0000 0.14250  0.56989  0.35216  Biso   1.000  C
  H259     1.0000 0.09750  0.56640  0.33560  Biso   1.000  H
  C472     1.0000 0.15840  0.55711  0.38731  Biso   1.000  C
  H260     1.0000 0.12650  0.54450  0.39310  Biso   1.000  H
  C473     1.0000 0.18050  0.60151  0.30141  Biso   1.000  C
  C474     1.0000 0.30300  0.56024  0.56212  Biso   1.000  C
  C475     1.0000 0.36670  0.55203  0.58595  Biso   1.000  C
  H261     1.0000 0.39560  0.53930  0.57720  Biso   1.000  H
  C476     1.0000 0.38740  0.56235  0.62202  Biso   1.000  C
  H262     1.0000 0.43080  0.55680  0.63770  Biso   1.000  H
  C477     1.0000 0.34440  0.58122  0.63594  Biso   1.000  C
  C478     1.0000 0.28110  0.58973  0.61241  Biso   1.000  C
  H263     1.0000 0.25160  0.60230  0.62150  Biso   1.000  H
  C479     1.0000 0.26200  0.57940  0.57516  Biso   1.000  C
  H264     1.0000 0.22080  0.58540  0.55860  Biso   1.000  H
  C480     1.0000 0.36530  0.59257  0.67689  Biso   1.000  C
  Ho13     1.0000 0.76137  0.86573  0.22949  Biso   1.000  Ho
  O97      1.0000 0.00813  0.86937  0.20539  Biso   1.000  O
  O98      1.0000 0.88850  0.85360  0.21318  Biso   1.000  O
  O99      1.0000 0.19830  0.86211  0.83620  Biso   1.000  O
  O100     1.0000 0.22657  0.83006  0.80754  Biso   1.000  O
  O101     1.0000 0.11990  0.90467  0.21876  Biso   1.000  O
  O102     1.0000 0.22720  0.88386  0.20764  Biso   1.000  O
  O103     1.0000 0.31370  0.89491  0.80768  Biso   1.000  O
  O104     1.0000 0.43109  0.91240  0.80751  Biso   1.000  O
  C481     1.0000 0.00980  0.76240  0.01569  Biso   1.000  C
  C482     1.0000 0.99772  0.77561  0.05114  Biso   1.000  C
  H265     1.0000 0.97620  0.76880  0.07480  Biso   1.000  H
  C483     1.0000 0.01710  0.79903  0.05231  Biso   1.000  C
  C484     1.0000 0.05160  0.80876  0.01742  Biso   1.000  C
  H266     1.0000 0.06630  0.82390  0.01790  Biso   1.000  H
  C485     1.0000 0.06480  0.79599  0.98123  Biso   1.000  C
  C486     1.0000 0.04290  0.77263  0.98114  Biso   1.000  C
  H267     1.0000 0.05130  0.76410  0.95720  Biso   1.000  H
  C487     1.0000 0.00250  0.81284  0.08932  Biso   1.000  C
  C488     1.0000 0.93290  0.81027  0.11245  Biso   1.000  C
  H268     1.0000 0.89550  0.79910  0.10520  Biso   1.000  H
  C489     1.0000 0.91660  0.82390  0.14636  Biso   1.000  C
  H269     1.0000 0.86830  0.82210  0.16130  Biso   1.000  H
  C490     1.0000 0.97270  0.84035  0.15808  Biso   1.000  C
  C491     1.0000 0.04190  0.84299  0.13621  Biso   1.000  C
  H270     1.0000 0.07980  0.85400  0.14390  Biso   1.000  H
  C492     1.0000 0.05680  0.82938  0.10226  Biso   1.000  C
  H271     1.0000 0.10520  0.83140  0.08750  Biso   1.000  H
  C493     1.0000 0.95600  0.85571  0.19531  Biso   1.000  C
  C494     1.0000 0.09950  0.80727  0.94393  Biso   1.000  C
  C495     1.0000 0.09640  0.83015  0.93857  Biso   1.000  C
  H272     1.0000 0.07170  0.83890  0.95900  Biso   1.000  H
  C496     1.0000 0.12880  0.84093  0.90374  Biso   1.000  C
  H273     1.0000 0.12460  0.85650  0.90110  Biso   1.000  H
  C497     1.0000 0.16550  0.82892  0.87441  Biso   1.000  C
  C498     1.0000 0.16840  0.80675  0.87873  Biso   1.000  C
  H274     1.0000 0.19390  0.79820  0.85820  Biso   1.000  H
  C499     1.0000 0.13430  0.79566  0.91324  Biso   1.000  C
  H275     1.0000 0.13610  0.78000  0.91470  Biso   1.000  H
  C500     1.0000 0.20020  0.84053  0.83677  Biso   1.000  C
  C501     1.0000 0.25300  0.98701  0.01398  Biso   1.000  C
  C502     1.0000 0.23370  0.97428  0.04871  Biso   1.000  C
  H276     1.0000 0.21710  0.98160  0.07290  Biso   1.000  H
  C503     1.0000 0.23850  0.95029  0.04857  Biso   1.000  C
  C504     1.0000 0.26140  0.93930  0.01216  Biso   1.000  C
  H277     1.0000 0.26520  0.92360  0.01150  Biso   1.000  H
  C505     1.0000 0.27830  0.95177  0.97700  Biso   1.000  C
  C506     1.0000 0.27540  0.97521  0.97830  Biso   1.000  C
  H278     1.0000 0.28900  0.98330  0.95450  Biso   1.000  H
  C507     1.0000 0.22070  0.93710  0.08635  Biso   1.000  C
  C508     1.0000 0.26760  0.91820  0.09707  Biso   1.000  C
  H279     1.0000 0.30980  0.91380  0.07940  Biso   1.000  H
  C509     1.0000 0.25400  0.90600  0.13247  Biso   1.000  C
  H280     1.0000 0.28660  0.89360  0.13860  Biso   1.000  H
  C510     1.0000 0.19240  0.91216  0.15869  Biso   1.000  C
  C511     1.0000 0.14250  0.93011  0.14784  Biso   1.000  C
  H281     1.0000 0.09750  0.93360  0.16440  Biso   1.000  H
  C512     1.0000 0.15840  0.94289  0.11269  Biso   1.000  C
  H282     1.0000 0.12650  0.95550  0.10690  Biso   1.000  H
  C513     1.0000 0.18050  0.89849  0.19859  Biso   1.000  C
  C514     1.0000 0.30300  0.93976  0.93788  Biso   1.000  C
  C515     1.0000 0.36670  0.94797  0.91405  Biso   1.000  C
  H283     1.0000 0.39560  0.96070  0.92280  Biso   1.000  H
  C516     1.0000 0.38740  0.93765  0.87798  Biso   1.000  C
  H284     1.0000 0.43080  0.94320  0.86230  Biso   1.000  H
  C517     1.0000 0.34440  0.91878  0.86406  Biso   1.000  C
  C518     1.0000 0.28110  0.91027  0.88759  Biso   1.000  C
  H285     1.0000 0.25160  0.89770  0.87850  Biso   1.000  H
  C519     1.0000 0.26200  0.92060  0.92484  Biso   1.000  C
  H286     1.0000 0.22080  0.91460  0.94140  Biso   1.000  H
  C520     1.0000 0.36530  0.90743  0.82311  Biso   1.000  C
  Ho14     1.0000 0.26137  0.36573  0.22949  Biso   1.000  Ho
  O105     1.0000 0.50813  0.36937  0.20539  Biso   1.000  O
  O106     1.0000 0.38850  0.35360  0.21318  Biso   1.000  O
  O107     1.0000 0.69830  0.36211  0.83620  Biso   1.000  O
  O108     1.0000 0.72657  0.33006  0.80754  Biso   1.000  O
  O109     1.0000 0.61990  0.40467  0.21876  Biso   1.000  O
  O110     1.0000 0.72720  0.38386  0.20764  Biso   1.000  O
  O111     1.0000 0.81370  0.39491  0.80768  Biso   1.000  O
  O112     1.0000 0.93109  0.41240  0.80751  Biso   1.000  O
  C521     1.0000 0.50980  0.26240  0.01569  Biso   1.000  C
  C522     1.0000 0.49772  0.27561  0.05114  Biso   1.000  C
  H287     1.0000 0.47620  0.26880  0.07480  Biso   1.000  H
  C523     1.0000 0.51710  0.29903  0.05231  Biso   1.000  C
  C524     1.0000 0.55160  0.30876  0.01742  Biso   1.000  C
  H288     1.0000 0.56630  0.32390  0.01790  Biso   1.000  H
  C525     1.0000 0.56480  0.29599  0.98123  Biso   1.000  C
  C526     1.0000 0.54290  0.27263  0.98114  Biso   1.000  C
  H289     1.0000 0.55130  0.26410  0.95720  Biso   1.000  H
  C527     1.0000 0.50250  0.31284  0.08932  Biso   1.000  C
  C528     1.0000 0.43290  0.31027  0.11245  Biso   1.000  C
  H290     1.0000 0.39550  0.29910  0.10520  Biso   1.000  H
  C529     1.0000 0.41660  0.32390  0.14636  Biso   1.000  C
  H291     1.0000 0.36830  0.32210  0.16130  Biso   1.000  H
  C530     1.0000 0.47270  0.34035  0.15808  Biso   1.000  C
  C531     1.0000 0.54190  0.34299  0.13621  Biso   1.000  C
  H292     1.0000 0.57980  0.35400  0.14390  Biso   1.000  H
  C532     1.0000 0.55680  0.32938  0.10226  Biso   1.000  C
  H293     1.0000 0.60520  0.33140  0.08750  Biso   1.000  H
  C533     1.0000 0.45600  0.35571  0.19531  Biso   1.000  C
  C534     1.0000 0.59950  0.30727  0.94393  Biso   1.000  C
  C535     1.0000 0.59640  0.33015  0.93857  Biso   1.000  C
  H294     1.0000 0.57170  0.33890  0.95900  Biso   1.000  H
  C536     1.0000 0.62880  0.34093  0.90374  Biso   1.000  C
  H295     1.0000 0.62460  0.35650  0.90110  Biso   1.000  H
  C537     1.0000 0.66550  0.32892  0.87441  Biso   1.000  C
  C538     1.0000 0.66840  0.30675  0.87873  Biso   1.000  C
  H296     1.0000 0.69390  0.29820  0.85820  Biso   1.000  H
  C539     1.0000 0.63430  0.29566  0.91324  Biso   1.000  C
  H297     1.0000 0.63610  0.28000  0.91470  Biso   1.000  H
  C540     1.0000 0.70020  0.34053  0.83677  Biso   1.000  C
  C541     1.0000 0.75300  0.48701  0.01398  Biso   1.000  C
  C542     1.0000 0.73370  0.47428  0.04871  Biso   1.000  C
  H298     1.0000 0.71710  0.48160  0.07290  Biso   1.000  H
  C543     1.0000 0.73850  0.45029  0.04857  Biso   1.000  C
  C544     1.0000 0.76140  0.43930  0.01216  Biso   1.000  C
  H299     1.0000 0.76520  0.42360  0.01150  Biso   1.000  H
  C545     1.0000 0.77830  0.45177  0.97700  Biso   1.000  C
  C546     1.0000 0.77540  0.47521  0.97830  Biso   1.000  C
  H300     1.0000 0.78900  0.48330  0.95450  Biso   1.000  H
  C547     1.0000 0.72070  0.43710  0.08635  Biso   1.000  C
  C548     1.0000 0.76760  0.41820  0.09707  Biso   1.000  C
  H301     1.0000 0.80980  0.41380  0.07940  Biso   1.000  H
  C549     1.0000 0.75400  0.40600  0.13247  Biso   1.000  C
  H302     1.0000 0.78660  0.39360  0.13860  Biso   1.000  H
  C550     1.0000 0.69240  0.41216  0.15869  Biso   1.000  C
  C551     1.0000 0.64250  0.43011  0.14784  Biso   1.000  C
  H303     1.0000 0.59750  0.43360  0.16440  Biso   1.000  H
  C552     1.0000 0.65840  0.44289  0.11269  Biso   1.000  C
  H304     1.0000 0.62650  0.45550  0.10690  Biso   1.000  H
  C553     1.0000 0.68050  0.39849  0.19859  Biso   1.000  C
  C554     1.0000 0.80300  0.43976  0.93788  Biso   1.000  C
  C555     1.0000 0.86670  0.44797  0.91405  Biso   1.000  C
  H305     1.0000 0.89560  0.46070  0.92280  Biso   1.000  H
  C556     1.0000 0.88740  0.43765  0.87798  Biso   1.000  C
  H306     1.0000 0.93080  0.44320  0.86230  Biso   1.000  H
  C557     1.0000 0.84440  0.41878  0.86406  Biso   1.000  C
  C558     1.0000 0.78110  0.41027  0.88759  Biso   1.000  C
  H307     1.0000 0.75160  0.39770  0.87850  Biso   1.000  H
  C559     1.0000 0.76200  0.42060  0.92484  Biso   1.000  C
  H308     1.0000 0.72080  0.41460  0.94140  Biso   1.000  H
  C560     1.0000 0.86530  0.40743  0.82311  Biso   1.000  C
  Ho15     1.0000 0.73863  0.13427  0.22949  Biso   1.000  Ho
  O113     1.0000 0.49187  0.13063  0.20539  Biso   1.000  O
  O114     1.0000 0.61150  0.14640  0.21318  Biso   1.000  O
  O115     1.0000 0.30170  0.13789  0.83620  Biso   1.000  O
  O116     1.0000 0.27343  0.16994  0.80754  Biso   1.000  O
  O117     1.0000 0.38010  0.09533  0.21876  Biso   1.000  O
  O118     1.0000 0.27280  0.11614  0.20764  Biso   1.000  O
  O119     1.0000 0.18630  0.10509  0.80768  Biso   1.000  O
  O120     1.0000 0.06891  0.08760  0.80751  Biso   1.000  O
  C561     1.0000 0.49020  0.23760  0.01569  Biso   1.000  C
  C562     1.0000 0.50228  0.22439  0.05114  Biso   1.000  C
  H309     1.0000 0.52380  0.23120  0.07480  Biso   1.000  H
  C563     1.0000 0.48290  0.20097  0.05231  Biso   1.000  C
  C564     1.0000 0.44840  0.19124  0.01742  Biso   1.000  C
  H310     1.0000 0.43370  0.17610  0.01790  Biso   1.000  H
  C565     1.0000 0.43520  0.20401  0.98123  Biso   1.000  C
  C566     1.0000 0.45710  0.22737  0.98114  Biso   1.000  C
  H311     1.0000 0.44870  0.23590  0.95720  Biso   1.000  H
  C567     1.0000 0.49750  0.18716  0.08932  Biso   1.000  C
  C568     1.0000 0.56710  0.18973  0.11245  Biso   1.000  C
  H312     1.0000 0.60450  0.20090  0.10520  Biso   1.000  H
  C569     1.0000 0.58340  0.17610  0.14636  Biso   1.000  C
  H313     1.0000 0.63170  0.17790  0.16130  Biso   1.000  H
  C570     1.0000 0.52730  0.15965  0.15808  Biso   1.000  C
  C571     1.0000 0.45810  0.15701  0.13621  Biso   1.000  C
  H314     1.0000 0.42020  0.14600  0.14390  Biso   1.000  H
  C572     1.0000 0.44320  0.17062  0.10226  Biso   1.000  C
  H315     1.0000 0.39480  0.16860  0.08750  Biso   1.000  H
  C573     1.0000 0.54400  0.14429  0.19531  Biso   1.000  C
  C574     1.0000 0.40050  0.19273  0.94393  Biso   1.000  C
  C575     1.0000 0.40360  0.16985  0.93857  Biso   1.000  C
  H316     1.0000 0.42830  0.16110  0.95900  Biso   1.000  H
  C576     1.0000 0.37120  0.15907  0.90374  Biso   1.000  C
  H317     1.0000 0.37540  0.14350  0.90110  Biso   1.000  H
  C577     1.0000 0.33450  0.17108  0.87441  Biso   1.000  C
  C578     1.0000 0.33160  0.19325  0.87873  Biso   1.000  C
  H318     1.0000 0.30610  0.20180  0.85820  Biso   1.000  H
  C579     1.0000 0.36570  0.20434  0.91324  Biso   1.000  C
  H319     1.0000 0.36390  0.22000  0.91470  Biso   1.000  H
  C580     1.0000 0.29980  0.15947  0.83677  Biso   1.000  C
  C581     1.0000 0.24700  0.01299  0.01398  Biso   1.000  C
  C582     1.0000 0.26630  0.02572  0.04871  Biso   1.000  C
  H320     1.0000 0.28290  0.01840  0.07290  Biso   1.000  H
  C583     1.0000 0.26150  0.04971  0.04857  Biso   1.000  C
  C584     1.0000 0.23860  0.06070  0.01216  Biso   1.000  C
  H321     1.0000 0.23480  0.07640  0.01150  Biso   1.000  H
  C585     1.0000 0.22170  0.04823  0.97700  Biso   1.000  C
  C586     1.0000 0.22460  0.02479  0.97830  Biso   1.000  C
  H322     1.0000 0.21100  0.01670  0.95450  Biso   1.000  H
  C587     1.0000 0.27930  0.06290  0.08635  Biso   1.000  C
  C588     1.0000 0.23240  0.08180  0.09707  Biso   1.000  C
  H323     1.0000 0.19020  0.08620  0.07940  Biso   1.000  H
  C589     1.0000 0.24600  0.09400  0.13247  Biso   1.000  C
  H324     1.0000 0.21340  0.10640  0.13860  Biso   1.000  H
  C590     1.0000 0.30760  0.08784  0.15869  Biso   1.000  C
  C591     1.0000 0.35750  0.06989  0.14784  Biso   1.000  C
  H325     1.0000 0.40250  0.06640  0.16440  Biso   1.000  H
  C592     1.0000 0.34160  0.05711  0.11269  Biso   1.000  C
  H326     1.0000 0.37350  0.04450  0.10690  Biso   1.000  H
  C593     1.0000 0.31950  0.10151  0.19859  Biso   1.000  C
  C594     1.0000 0.19700  0.06024  0.93788  Biso   1.000  C
  C595     1.0000 0.13330  0.05203  0.91405  Biso   1.000  C
  H327     1.0000 0.10440  0.03930  0.92280  Biso   1.000  H
  C596     1.0000 0.11260  0.06235  0.87798  Biso   1.000  C
  H328     1.0000 0.06920  0.05680  0.86230  Biso   1.000  H
  C597     1.0000 0.15560  0.08122  0.86406  Biso   1.000  C
  C598     1.0000 0.21890  0.08973  0.88759  Biso   1.000  C
  H329     1.0000 0.24840  0.10230  0.87850  Biso   1.000  H
  C599     1.0000 0.23800  0.07940  0.92484  Biso   1.000  C
  H330     1.0000 0.27920  0.08540  0.94140  Biso   1.000  H
  C600     1.0000 0.13470  0.09257  0.82311  Biso   1.000  C
  Ho16     1.0000 0.23863  0.63427  0.22949  Biso   1.000  Ho
  O121     1.0000 0.99187  0.63063  0.20539  Biso   1.000  O
  O122     1.0000 0.11150  0.64640  0.21318  Biso   1.000  O
  O123     1.0000 0.80170  0.63789  0.83620  Biso   1.000  O
  O124     1.0000 0.77343  0.66994  0.80754  Biso   1.000  O
  O125     1.0000 0.88010  0.59533  0.21876  Biso   1.000  O
  O126     1.0000 0.77280  0.61614  0.20764  Biso   1.000  O
  O127     1.0000 0.68630  0.60509  0.80768  Biso   1.000  O
  O128     1.0000 0.56891  0.58760  0.80751  Biso   1.000  O
  C601     1.0000 0.99020  0.73760  0.01569  Biso   1.000  C
  C602     1.0000 0.00228  0.72439  0.05114  Biso   1.000  C
  H331     1.0000 0.02380  0.73120  0.07480  Biso   1.000  H
  C603     1.0000 0.98290  0.70097  0.05231  Biso   1.000  C
  C604     1.0000 0.94840  0.69124  0.01742  Biso   1.000  C
  H332     1.0000 0.93370  0.67610  0.01790  Biso   1.000  H
  C605     1.0000 0.93520  0.70401  0.98123  Biso   1.000  C
  C606     1.0000 0.95710  0.72737  0.98114  Biso   1.000  C
  H333     1.0000 0.94870  0.73590  0.95720  Biso   1.000  H
  C607     1.0000 0.99750  0.68716  0.08932  Biso   1.000  C
  C608     1.0000 0.06710  0.68973  0.11245  Biso   1.000  C
  H334     1.0000 0.10450  0.70090  0.10520  Biso   1.000  H
  C609     1.0000 0.08340  0.67610  0.14636  Biso   1.000  C
  H335     1.0000 0.13170  0.67790  0.16130  Biso   1.000  H
  C610     1.0000 0.02730  0.65965  0.15808  Biso   1.000  C
  C611     1.0000 0.95810  0.65701  0.13621  Biso   1.000  C
  H336     1.0000 0.92020  0.64600  0.14390  Biso   1.000  H
  C612     1.0000 0.94320  0.67062  0.10226  Biso   1.000  C
  H337     1.0000 0.89480  0.66860  0.08750  Biso   1.000  H
  C613     1.0000 0.04400  0.64429  0.19531  Biso   1.000  C
  C614     1.0000 0.90050  0.69273  0.94393  Biso   1.000  C
  C615     1.0000 0.90360  0.66985  0.93857  Biso   1.000  C
  H338     1.0000 0.92830  0.66110  0.95900  Biso   1.000  H
  C616     1.0000 0.87120  0.65907  0.90374  Biso   1.000  C
  H339     1.0000 0.87540  0.64350  0.90110  Biso   1.000  H
  C617     1.0000 0.83450  0.67108  0.87441  Biso   1.000  C
  C618     1.0000 0.83160  0.69325  0.87873  Biso   1.000  C
  H340     1.0000 0.80610  0.70180  0.85820  Biso   1.000  H
  C619     1.0000 0.86570  0.70434  0.91324  Biso   1.000  C
  H341     1.0000 0.86390  0.72000  0.91470  Biso   1.000  H
  C620     1.0000 0.79980  0.65947  0.83677  Biso   1.000  C
  C621     1.0000 0.74700  0.51299  0.01398  Biso   1.000  C
  C622     1.0000 0.76630  0.52572  0.04871  Biso   1.000  C
  H342     1.0000 0.78290  0.51840  0.07290  Biso   1.000  H
  C623     1.0000 0.76150  0.54971  0.04857  Biso   1.000  C
  C624     1.0000 0.73860  0.56070  0.01216  Biso   1.000  C
  H343     1.0000 0.73480  0.57640  0.01150  Biso   1.000  H
  C625     1.0000 0.72170  0.54823  0.97700  Biso   1.000  C
  C626     1.0000 0.72460  0.52479  0.97830  Biso   1.000  C
  H344     1.0000 0.71100  0.51670  0.95450  Biso   1.000  H
  C627     1.0000 0.77930  0.56290  0.08635  Biso   1.000  C
  C628     1.0000 0.73240  0.58180  0.09707  Biso   1.000  C
  H345     1.0000 0.69020  0.58620  0.07940  Biso   1.000  H
  C629     1.0000 0.74600  0.59400  0.13247  Biso   1.000  C
  H346     1.0000 0.71340  0.60640  0.13860  Biso   1.000  H
  C630     1.0000 0.80760  0.58784  0.15869  Biso   1.000  C
  C631     1.0000 0.85750  0.56989  0.14784  Biso   1.000  C
  H347     1.0000 0.90250  0.56640  0.16440  Biso   1.000  H
  C632     1.0000 0.84160  0.55711  0.11269  Biso   1.000  C
  H348     1.0000 0.87350  0.54450  0.10690  Biso   1.000  H
  C633     1.0000 0.81950  0.60151  0.19859  Biso   1.000  C
  C634     1.0000 0.69700  0.56024  0.93788  Biso   1.000  C
  C635     1.0000 0.63330  0.55203  0.91405  Biso   1.000  C
  H349     1.0000 0.60440  0.53930  0.92280  Biso   1.000  H
  C636     1.0000 0.61260  0.56235  0.87798  Biso   1.000  C
  H350     1.0000 0.56920  0.55680  0.86230  Biso   1.000  H
  C637     1.0000 0.65560  0.58122  0.86406  Biso   1.000  C
  C638     1.0000 0.71890  0.58973  0.88759  Biso   1.000  C
  H351     1.0000 0.74840  0.60230  0.87850  Biso   1.000  H
  C639     1.0000 0.73800  0.57940  0.92484  Biso   1.000  C
  H352     1.0000 0.77920  0.58540  0.94140  Biso   1.000  H
  C640     1.0000 0.63470  0.59257  0.82311  Biso   1.000  C
  Ho17     1.0000 0.00000  0.09987  0.75000  Biso   1.000  Ho
  Ho18     1.0000 0.50000  0.59987  0.75000  Biso   1.000  Ho
  Ho19     1.0000 0.50000  0.90013  0.75000  Biso   1.000  Ho
  Ho20     1.0000 0.00000  0.40013  0.75000  Biso   1.000  Ho
  Ho21     1.0000 0.00000  0.90013  0.25000  Biso   1.000  Ho
  Ho22     1.0000 0.50000  0.40013  0.25000  Biso   1.000  Ho
  Ho23     1.0000 0.50000  0.09987  0.25000  Biso   1.000  Ho
  Ho24     1.0000 0.00000  0.59987  0.25000  Biso   1.000  Ho
