data_image0
_cell_length_a       60.91
_cell_length_b       60.91
_cell_length_c       60.91
_cell_angle_alpha    90
_cell_angle_beta     90
_cell_angle_gamma    90

_symmetry_space_group_name_H-M    "P 1"
_symmetry_int_tables_number       1

loop_
  _symmetry_equiv_pos_as_xyz
  'x, y, z'

loop_
  _atom_site_label
  _atom_site_occupancy
  _atom_site_fract_x
  _atom_site_fract_y
  _atom_site_fract_z
  _atom_site_thermal_displace_type
  _atom_site_B_iso_or_equiv
  _atom_site_type_symbol
  O1       1.0000 0.01716  0.74529  0.22161  Biso   1.000  O
  O2       1.0000 0.02485  0.71933  0.25032  Biso   1.000  O
  C1       1.0000 0.02813  0.73010  0.23223  Biso   1.000  C
  C2       1.0000 0.04703  0.71661  0.21935  Biso   1.000  C
  C3       1.0000 0.05543  0.72485  0.19980  Biso   1.000  C
  H1       1.0000 0.04930  0.73740  0.19350  Biso   1.000  H
  C4       1.0000 0.07294  0.71437  0.18958  Biso   1.000  C
  H2       1.0000 0.07860  0.71990  0.17650  Biso   1.000  H
  C5       1.0000 0.08205  0.69564  0.19892  Biso   1.000  C
  C6       1.0000 0.07365  0.68740  0.21847  Biso   1.000  C
  H3       1.0000 0.07970  0.67490  0.22470  Biso   1.000  H
  C7       1.0000 0.05614  0.69788  0.22869  Biso   1.000  C
  H4       1.0000 0.05050  0.69240  0.24180  Biso   1.000  H
  C8       1.0000 0.10055  0.68335  0.18791  Biso   1.000  C
  C9       1.0000 0.11512  0.69676  0.17656  Biso   1.000  C
  H5       1.0000 0.11320  0.71190  0.17660  Biso   1.000  H
  C10      1.0000 0.13254  0.68752  0.16507  Biso   1.000  C
  H6       1.0000 0.14230  0.69650  0.15750  Biso   1.000  H
  C11      1.0000 0.13540  0.66488  0.16495  Biso   1.000  C
  C12      1.0000 0.12083  0.65148  0.17630  Biso   1.000  C
  H7       1.0000 0.12270  0.63630  0.17620  Biso   1.000  H
  C13      1.0000 0.10341  0.66071  0.18779  Biso   1.000  C
  H8       1.0000 0.09370  0.65170  0.19540  Biso   1.000  H
  O3       1.0000 0.01716  0.24529  0.72161  Biso   1.000  O
  O4       1.0000 0.02485  0.21933  0.75032  Biso   1.000  O
  C14      1.0000 0.02813  0.23010  0.73223  Biso   1.000  C
  C15      1.0000 0.04703  0.21661  0.71935  Biso   1.000  C
  C16      1.0000 0.05543  0.22485  0.69980  Biso   1.000  C
  H9       1.0000 0.04930  0.23740  0.69350  Biso   1.000  H
  C17      1.0000 0.07294  0.21437  0.68958  Biso   1.000  C
  H10      1.0000 0.07860  0.21990  0.67650  Biso   1.000  H
  C18      1.0000 0.08205  0.19564  0.69892  Biso   1.000  C
  C19      1.0000 0.07365  0.18740  0.71847  Biso   1.000  C
  H11      1.0000 0.07970  0.17490  0.72470  Biso   1.000  H
  C20      1.0000 0.05614  0.19788  0.72869  Biso   1.000  C
  H12      1.0000 0.05050  0.19240  0.74180  Biso   1.000  H
  C21      1.0000 0.10055  0.18335  0.68791  Biso   1.000  C
  C22      1.0000 0.11512  0.19676  0.67656  Biso   1.000  C
  H13      1.0000 0.11320  0.21190  0.67660  Biso   1.000  H
  C23      1.0000 0.13254  0.18752  0.66507  Biso   1.000  C
  H14      1.0000 0.14230  0.19650  0.65750  Biso   1.000  H
  C24      1.0000 0.13540  0.16488  0.66495  Biso   1.000  C
  C25      1.0000 0.12083  0.15148  0.67630  Biso   1.000  C
  H15      1.0000 0.12270  0.13630  0.67620  Biso   1.000  H
  C26      1.0000 0.10341  0.16071  0.68779  Biso   1.000  C
  H16      1.0000 0.09370  0.15170  0.69540  Biso   1.000  H
  O5       1.0000 0.51716  0.74529  0.72161  Biso   1.000  O
  O6       1.0000 0.52485  0.71933  0.75032  Biso   1.000  O
  C27      1.0000 0.52813  0.73010  0.73223  Biso   1.000  C
  C28      1.0000 0.54703  0.71661  0.71935  Biso   1.000  C
  C29      1.0000 0.55543  0.72485  0.69980  Biso   1.000  C
  H17      1.0000 0.54930  0.73740  0.69350  Biso   1.000  H
  C30      1.0000 0.57294  0.71437  0.68958  Biso   1.000  C
  H18      1.0000 0.57860  0.71990  0.67650  Biso   1.000  H
  C31      1.0000 0.58205  0.69564  0.69892  Biso   1.000  C
  C32      1.0000 0.57365  0.68740  0.71847  Biso   1.000  C
  H19      1.0000 0.57970  0.67490  0.72470  Biso   1.000  H
  C33      1.0000 0.55614  0.69788  0.72869  Biso   1.000  C
  H20      1.0000 0.55050  0.69240  0.74180  Biso   1.000  H
  C34      1.0000 0.60055  0.68335  0.68791  Biso   1.000  C
  C35      1.0000 0.61512  0.69676  0.67656  Biso   1.000  C
  H21      1.0000 0.61320  0.71190  0.67660  Biso   1.000  H
  C36      1.0000 0.63254  0.68752  0.66507  Biso   1.000  C
  H22      1.0000 0.64230  0.69650  0.65750  Biso   1.000  H
  C37      1.0000 0.63540  0.66488  0.66495  Biso   1.000  C
  C38      1.0000 0.62083  0.65148  0.67630  Biso   1.000  C
  H23      1.0000 0.62270  0.63630  0.67620  Biso   1.000  H
  C39      1.0000 0.60341  0.66071  0.68779  Biso   1.000  C
  H24      1.0000 0.59370  0.65170  0.69540  Biso   1.000  H
  O7       1.0000 0.51716  0.24529  0.22161  Biso   1.000  O
  O8       1.0000 0.52485  0.21933  0.25032  Biso   1.000  O
  C40      1.0000 0.52813  0.23010  0.23223  Biso   1.000  C
  C41      1.0000 0.54703  0.21661  0.21935  Biso   1.000  C
  C42      1.0000 0.55543  0.22485  0.19980  Biso   1.000  C
  H25      1.0000 0.54930  0.23740  0.19350  Biso   1.000  H
  C43      1.0000 0.57294  0.21437  0.18958  Biso   1.000  C
  H26      1.0000 0.57860  0.21990  0.17650  Biso   1.000  H
  C44      1.0000 0.58205  0.19564  0.19892  Biso   1.000  C
  C45      1.0000 0.57365  0.18740  0.21847  Biso   1.000  C
  H27      1.0000 0.57970  0.17490  0.22470  Biso   1.000  H
  C46      1.0000 0.55614  0.19788  0.22869  Biso   1.000  C
  H28      1.0000 0.55050  0.19240  0.24180  Biso   1.000  H
  C47      1.0000 0.60055  0.18335  0.18791  Biso   1.000  C
  C48      1.0000 0.61512  0.19676  0.17656  Biso   1.000  C
  H29      1.0000 0.61320  0.21190  0.17660  Biso   1.000  H
  C49      1.0000 0.63254  0.18752  0.16507  Biso   1.000  C
  H30      1.0000 0.64230  0.19650  0.15750  Biso   1.000  H
  C50      1.0000 0.63540  0.16488  0.16495  Biso   1.000  C
  C51      1.0000 0.62083  0.15148  0.17630  Biso   1.000  C
  H31      1.0000 0.62270  0.13630  0.17620  Biso   1.000  H
  C52      1.0000 0.60341  0.16071  0.18779  Biso   1.000  C
  H32      1.0000 0.59370  0.15170  0.19540  Biso   1.000  H
  O9       1.0000 0.98284  0.25471  0.22161  Biso   1.000  O
  O10      1.0000 0.97515  0.28067  0.25032  Biso   1.000  O
  C53      1.0000 0.97187  0.26990  0.23223  Biso   1.000  C
  C54      1.0000 0.95297  0.28339  0.21935  Biso   1.000  C
  C55      1.0000 0.94457  0.27515  0.19980  Biso   1.000  C
  H33      1.0000 0.95070  0.26260  0.19350  Biso   1.000  H
  C56      1.0000 0.92706  0.28563  0.18958  Biso   1.000  C
  H34      1.0000 0.92140  0.28010  0.17650  Biso   1.000  H
  C57      1.0000 0.91795  0.30436  0.19892  Biso   1.000  C
  C58      1.0000 0.92635  0.31260  0.21847  Biso   1.000  C
  H35      1.0000 0.92030  0.32510  0.22470  Biso   1.000  H
  C59      1.0000 0.94386  0.30212  0.22869  Biso   1.000  C
  H36      1.0000 0.94950  0.30760  0.24180  Biso   1.000  H
  C60      1.0000 0.89945  0.31665  0.18791  Biso   1.000  C
  C61      1.0000 0.88488  0.30324  0.17656  Biso   1.000  C
  H37      1.0000 0.88680  0.28810  0.17660  Biso   1.000  H
  C62      1.0000 0.86746  0.31248  0.16507  Biso   1.000  C
  H38      1.0000 0.85770  0.30350  0.15750  Biso   1.000  H
  C63      1.0000 0.86460  0.33512  0.16495  Biso   1.000  C
  C64      1.0000 0.87917  0.34852  0.17630  Biso   1.000  C
  H39      1.0000 0.87730  0.36370  0.17620  Biso   1.000  H
  C65      1.0000 0.89659  0.33929  0.18779  Biso   1.000  C
  H40      1.0000 0.90630  0.34830  0.19540  Biso   1.000  H
  O11      1.0000 0.98284  0.75471  0.72161  Biso   1.000  O
  O12      1.0000 0.97515  0.78067  0.75032  Biso   1.000  O
  C66      1.0000 0.97187  0.76990  0.73223  Biso   1.000  C
  C67      1.0000 0.95297  0.78339  0.71935  Biso   1.000  C
  C68      1.0000 0.94457  0.77515  0.69980  Biso   1.000  C
  H41      1.0000 0.95070  0.76260  0.69350  Biso   1.000  H
  C69      1.0000 0.92706  0.78563  0.68958  Biso   1.000  C
  H42      1.0000 0.92140  0.78010  0.67650  Biso   1.000  H
  C70      1.0000 0.91795  0.80436  0.69892  Biso   1.000  C
  C71      1.0000 0.92635  0.81260  0.71847  Biso   1.000  C
  H43      1.0000 0.92030  0.82510  0.72470  Biso   1.000  H
  C72      1.0000 0.94386  0.80212  0.72869  Biso   1.000  C
  H44      1.0000 0.94950  0.80760  0.74180  Biso   1.000  H
  C73      1.0000 0.89945  0.81665  0.68791  Biso   1.000  C
  C74      1.0000 0.88488  0.80324  0.67656  Biso   1.000  C
  H45      1.0000 0.88680  0.78810  0.67660  Biso   1.000  H
  C75      1.0000 0.86746  0.81248  0.66507  Biso   1.000  C
  H46      1.0000 0.85770  0.80350  0.65750  Biso   1.000  H
  C76      1.0000 0.86460  0.83512  0.66495  Biso   1.000  C
  C77      1.0000 0.87917  0.84852  0.67630  Biso   1.000  C
  H47      1.0000 0.87730  0.86370  0.67620  Biso   1.000  H
  C78      1.0000 0.89659  0.83929  0.68779  Biso   1.000  C
  H48      1.0000 0.90630  0.84830  0.69540  Biso   1.000  H
  O13      1.0000 0.48284  0.25471  0.72161  Biso   1.000  O
  O14      1.0000 0.47515  0.28067  0.75032  Biso   1.000  O
  C79      1.0000 0.47187  0.26990  0.73223  Biso   1.000  C
  C80      1.0000 0.45297  0.28339  0.71935  Biso   1.000  C
  C81      1.0000 0.44457  0.27515  0.69980  Biso   1.000  C
  H49      1.0000 0.45070  0.26260  0.69350  Biso   1.000  H
  C82      1.0000 0.42706  0.28563  0.68958  Biso   1.000  C
  H50      1.0000 0.42140  0.28010  0.67650  Biso   1.000  H
  C83      1.0000 0.41795  0.30436  0.69892  Biso   1.000  C
  C84      1.0000 0.42635  0.31260  0.71847  Biso   1.000  C
  H51      1.0000 0.42030  0.32510  0.72470  Biso   1.000  H
  C85      1.0000 0.44386  0.30212  0.72869  Biso   1.000  C
  H52      1.0000 0.44950  0.30760  0.74180  Biso   1.000  H
  C86      1.0000 0.39945  0.31665  0.68791  Biso   1.000  C
  C87      1.0000 0.38488  0.30324  0.67656  Biso   1.000  C
  H53      1.0000 0.38680  0.28810  0.67660  Biso   1.000  H
  C88      1.0000 0.36746  0.31248  0.66507  Biso   1.000  C
  H54      1.0000 0.35770  0.30350  0.65750  Biso   1.000  H
  C89      1.0000 0.36460  0.33512  0.66495  Biso   1.000  C
  C90      1.0000 0.37917  0.34852  0.67630  Biso   1.000  C
  H55      1.0000 0.37730  0.36370  0.67620  Biso   1.000  H
  C91      1.0000 0.39659  0.33929  0.68779  Biso   1.000  C
  H56      1.0000 0.40630  0.34830  0.69540  Biso   1.000  H
  O15      1.0000 0.48284  0.75471  0.22161  Biso   1.000  O
  O16      1.0000 0.47515  0.78067  0.25032  Biso   1.000  O
  C92      1.0000 0.47187  0.76990  0.23223  Biso   1.000  C
  C93      1.0000 0.45297  0.78339  0.21935  Biso   1.000  C
  C94      1.0000 0.44457  0.77515  0.19980  Biso   1.000  C
  H57      1.0000 0.45070  0.76260  0.19350  Biso   1.000  H
  C95      1.0000 0.42706  0.78563  0.18958  Biso   1.000  C
  H58      1.0000 0.42140  0.78010  0.17650  Biso   1.000  H
  C96      1.0000 0.41795  0.80436  0.19892  Biso   1.000  C
  C97      1.0000 0.42635  0.81260  0.21847  Biso   1.000  C
  H59      1.0000 0.42030  0.82510  0.22470  Biso   1.000  H
  C98      1.0000 0.44386  0.80212  0.22869  Biso   1.000  C
  H60      1.0000 0.44950  0.80760  0.24180  Biso   1.000  H
  C99      1.0000 0.39945  0.81665  0.18791  Biso   1.000  C
  C100     1.0000 0.38488  0.80324  0.17656  Biso   1.000  C
  H61      1.0000 0.38680  0.78810  0.17660  Biso   1.000  H
  C101     1.0000 0.36746  0.81248  0.16507  Biso   1.000  C
  H62      1.0000 0.35770  0.80350  0.15750  Biso   1.000  H
  C102     1.0000 0.36460  0.83512  0.16495  Biso   1.000  C
  C103     1.0000 0.37917  0.84852  0.17630  Biso   1.000  C
  H63      1.0000 0.37730  0.86370  0.17620  Biso   1.000  H
  C104     1.0000 0.39659  0.83929  0.18779  Biso   1.000  C
  H64      1.0000 0.40630  0.84830  0.19540  Biso   1.000  H
  O17      1.0000 0.98284  0.74529  0.77839  Biso   1.000  O
  O18      1.0000 0.97515  0.71933  0.74968  Biso   1.000  O
  C105     1.0000 0.97187  0.73010  0.76777  Biso   1.000  C
  C106     1.0000 0.95297  0.71661  0.78065  Biso   1.000  C
  C107     1.0000 0.94457  0.72485  0.80020  Biso   1.000  C
  H65      1.0000 0.95070  0.73740  0.80650  Biso   1.000  H
  C108     1.0000 0.92706  0.71437  0.81042  Biso   1.000  C
  H66      1.0000 0.92140  0.71990  0.82350  Biso   1.000  H
  C109     1.0000 0.91795  0.69564  0.80108  Biso   1.000  C
  C110     1.0000 0.92635  0.68740  0.78153  Biso   1.000  C
  H67      1.0000 0.92030  0.67490  0.77530  Biso   1.000  H
  C111     1.0000 0.94386  0.69788  0.77131  Biso   1.000  C
  H68      1.0000 0.94950  0.69240  0.75820  Biso   1.000  H
  C112     1.0000 0.89945  0.68335  0.81209  Biso   1.000  C
  C113     1.0000 0.88488  0.69676  0.82344  Biso   1.000  C
  H69      1.0000 0.88680  0.71190  0.82340  Biso   1.000  H
  C114     1.0000 0.86746  0.68752  0.83493  Biso   1.000  C
  H70      1.0000 0.85770  0.69650  0.84250  Biso   1.000  H
  C115     1.0000 0.86460  0.66488  0.83505  Biso   1.000  C
  C116     1.0000 0.87917  0.65148  0.82370  Biso   1.000  C
  H71      1.0000 0.87730  0.63630  0.82380  Biso   1.000  H
  C117     1.0000 0.89659  0.66071  0.81221  Biso   1.000  C
  H72      1.0000 0.90630  0.65170  0.80460  Biso   1.000  H
  O19      1.0000 0.98284  0.24529  0.27839  Biso   1.000  O
  O20      1.0000 0.97515  0.21933  0.24968  Biso   1.000  O
  C118     1.0000 0.97187  0.23010  0.26777  Biso   1.000  C
  C119     1.0000 0.95297  0.21661  0.28065  Biso   1.000  C
  C120     1.0000 0.94457  0.22485  0.30020  Biso   1.000  C
  H73      1.0000 0.95070  0.23740  0.30650  Biso   1.000  H
  C121     1.0000 0.92706  0.21437  0.31042  Biso   1.000  C
  H74      1.0000 0.92140  0.21990  0.32350  Biso   1.000  H
  C122     1.0000 0.91795  0.19564  0.30108  Biso   1.000  C
  C123     1.0000 0.92635  0.18740  0.28153  Biso   1.000  C
  H75      1.0000 0.92030  0.17490  0.27530  Biso   1.000  H
  C124     1.0000 0.94386  0.19788  0.27131  Biso   1.000  C
  H76      1.0000 0.94950  0.19240  0.25820  Biso   1.000  H
  C125     1.0000 0.89945  0.18335  0.31209  Biso   1.000  C
  C126     1.0000 0.88488  0.19676  0.32344  Biso   1.000  C
  H77      1.0000 0.88680  0.21190  0.32340  Biso   1.000  H
  C127     1.0000 0.86746  0.18752  0.33493  Biso   1.000  C
  H78      1.0000 0.85770  0.19650  0.34250  Biso   1.000  H
  C128     1.0000 0.86460  0.16488  0.33505  Biso   1.000  C
  C129     1.0000 0.87917  0.15148  0.32370  Biso   1.000  C
  H79      1.0000 0.87730  0.13630  0.32380  Biso   1.000  H
  C130     1.0000 0.89659  0.16071  0.31221  Biso   1.000  C
  H80      1.0000 0.90630  0.15170  0.30460  Biso   1.000  H
  O21      1.0000 0.48284  0.74529  0.27839  Biso   1.000  O
  O22      1.0000 0.47515  0.71933  0.24968  Biso   1.000  O
  C131     1.0000 0.47187  0.73010  0.26777  Biso   1.000  C
  C132     1.0000 0.45297  0.71661  0.28065  Biso   1.000  C
  C133     1.0000 0.44457  0.72485  0.30020  Biso   1.000  C
  H81      1.0000 0.45070  0.73740  0.30650  Biso   1.000  H
  C134     1.0000 0.42706  0.71437  0.31042  Biso   1.000  C
  H82      1.0000 0.42140  0.71990  0.32350  Biso   1.000  H
  C135     1.0000 0.41795  0.69564  0.30108  Biso   1.000  C
  C136     1.0000 0.42635  0.68740  0.28153  Biso   1.000  C
  H83      1.0000 0.42030  0.67490  0.27530  Biso   1.000  H
  C137     1.0000 0.44386  0.69788  0.27131  Biso   1.000  C
  H84      1.0000 0.44950  0.69240  0.25820  Biso   1.000  H
  C138     1.0000 0.39945  0.68335  0.31209  Biso   1.000  C
  C139     1.0000 0.38488  0.69676  0.32344  Biso   1.000  C
  H85      1.0000 0.38680  0.71190  0.32340  Biso   1.000  H
  C140     1.0000 0.36746  0.68752  0.33493  Biso   1.000  C
  H86      1.0000 0.35770  0.69650  0.34250  Biso   1.000  H
  C141     1.0000 0.36460  0.66488  0.33505  Biso   1.000  C
  C142     1.0000 0.37917  0.65148  0.32370  Biso   1.000  C
  H87      1.0000 0.37730  0.63630  0.32380  Biso   1.000  H
  C143     1.0000 0.39659  0.66071  0.31221  Biso   1.000  C
  H88      1.0000 0.40630  0.65170  0.30460  Biso   1.000  H
  O23      1.0000 0.48284  0.24529  0.77839  Biso   1.000  O
  O24      1.0000 0.47515  0.21933  0.74968  Biso   1.000  O
  C144     1.0000 0.47187  0.23010  0.76777  Biso   1.000  C
  C145     1.0000 0.45297  0.21661  0.78065  Biso   1.000  C
  C146     1.0000 0.44457  0.22485  0.80020  Biso   1.000  C
  H89      1.0000 0.45070  0.23740  0.80650  Biso   1.000  H
  C147     1.0000 0.42706  0.21437  0.81042  Biso   1.000  C
  H90      1.0000 0.42140  0.21990  0.82350  Biso   1.000  H
  C148     1.0000 0.41795  0.19564  0.80108  Biso   1.000  C
  C149     1.0000 0.42635  0.18740  0.78153  Biso   1.000  C
  H91      1.0000 0.42030  0.17490  0.77530  Biso   1.000  H
  C150     1.0000 0.44386  0.19788  0.77131  Biso   1.000  C
  H92      1.0000 0.44950  0.19240  0.75820  Biso   1.000  H
  C151     1.0000 0.39945  0.18335  0.81209  Biso   1.000  C
  C152     1.0000 0.38488  0.19676  0.82344  Biso   1.000  C
  H93      1.0000 0.38680  0.21190  0.82340  Biso   1.000  H
  C153     1.0000 0.36746  0.18752  0.83493  Biso   1.000  C
  H94      1.0000 0.35770  0.19650  0.84250  Biso   1.000  H
  C154     1.0000 0.36460  0.16488  0.83505  Biso   1.000  C
  C155     1.0000 0.37917  0.15148  0.82370  Biso   1.000  C
  H95      1.0000 0.37730  0.13630  0.82380  Biso   1.000  H
  C156     1.0000 0.39659  0.16071  0.81221  Biso   1.000  C
  H96      1.0000 0.40630  0.15170  0.80460  Biso   1.000  H
  O25      1.0000 0.01716  0.25471  0.77839  Biso   1.000  O
  O26      1.0000 0.02485  0.28067  0.74968  Biso   1.000  O
  C157     1.0000 0.02813  0.26990  0.76777  Biso   1.000  C
  C158     1.0000 0.04703  0.28339  0.78065  Biso   1.000  C
  C159     1.0000 0.05543  0.27515  0.80020  Biso   1.000  C
  H97      1.0000 0.04930  0.26260  0.80650  Biso   1.000  H
  C160     1.0000 0.07294  0.28563  0.81042  Biso   1.000  C
  H98      1.0000 0.07860  0.28010  0.82350  Biso   1.000  H
  C161     1.0000 0.08205  0.30436  0.80108  Biso   1.000  C
  C162     1.0000 0.07365  0.31260  0.78153  Biso   1.000  C
  H99      1.0000 0.07970  0.32510  0.77530  Biso   1.000  H
  C163     1.0000 0.05614  0.30212  0.77131  Biso   1.000  C
  H100     1.0000 0.05050  0.30760  0.75820  Biso   1.000  H
  C164     1.0000 0.10055  0.31665  0.81209  Biso   1.000  C
  C165     1.0000 0.11512  0.30324  0.82344  Biso   1.000  C
  H101     1.0000 0.11320  0.28810  0.82340  Biso   1.000  H
  C166     1.0000 0.13254  0.31248  0.83493  Biso   1.000  C
  H102     1.0000 0.14230  0.30350  0.84250  Biso   1.000  H
  C167     1.0000 0.13540  0.33512  0.83505  Biso   1.000  C
  C168     1.0000 0.12083  0.34852  0.82370  Biso   1.000  C
  H103     1.0000 0.12270  0.36370  0.82380  Biso   1.000  H
  C169     1.0000 0.10341  0.33929  0.81221  Biso   1.000  C
  H104     1.0000 0.09370  0.34830  0.80460  Biso   1.000  H
  O27      1.0000 0.01716  0.75471  0.27839  Biso   1.000  O
  O28      1.0000 0.02485  0.78067  0.24968  Biso   1.000  O
  C170     1.0000 0.02813  0.76990  0.26777  Biso   1.000  C
  C171     1.0000 0.04703  0.78339  0.28065  Biso   1.000  C
  C172     1.0000 0.05543  0.77515  0.30020  Biso   1.000  C
  H105     1.0000 0.04930  0.76260  0.30650  Biso   1.000  H
  C173     1.0000 0.07294  0.78563  0.31042  Biso   1.000  C
  H106     1.0000 0.07860  0.78010  0.32350  Biso   1.000  H
  C174     1.0000 0.08205  0.80436  0.30108  Biso   1.000  C
  C175     1.0000 0.07365  0.81260  0.28153  Biso   1.000  C
  H107     1.0000 0.07970  0.82510  0.27530  Biso   1.000  H
  C176     1.0000 0.05614  0.80212  0.27131  Biso   1.000  C
  H108     1.0000 0.05050  0.80760  0.25820  Biso   1.000  H
  C177     1.0000 0.10055  0.81665  0.31209  Biso   1.000  C
  C178     1.0000 0.11512  0.80324  0.32344  Biso   1.000  C
  H109     1.0000 0.11320  0.78810  0.32340  Biso   1.000  H
  C179     1.0000 0.13254  0.81248  0.33493  Biso   1.000  C
  H110     1.0000 0.14230  0.80350  0.34250  Biso   1.000  H
  C180     1.0000 0.13540  0.83512  0.33505  Biso   1.000  C
  C181     1.0000 0.12083  0.84852  0.32370  Biso   1.000  C
  H111     1.0000 0.12270  0.86370  0.32380  Biso   1.000  H
  C182     1.0000 0.10341  0.83929  0.31221  Biso   1.000  C
  H112     1.0000 0.09370  0.84830  0.30460  Biso   1.000  H
  O29      1.0000 0.51716  0.25471  0.27839  Biso   1.000  O
  O30      1.0000 0.52485  0.28067  0.24968  Biso   1.000  O
  C183     1.0000 0.52813  0.26990  0.26777  Biso   1.000  C
  C184     1.0000 0.54703  0.28339  0.28065  Biso   1.000  C
  C185     1.0000 0.55543  0.27515  0.30020  Biso   1.000  C
  H113     1.0000 0.54930  0.26260  0.30650  Biso   1.000  H
  C186     1.0000 0.57294  0.28563  0.31042  Biso   1.000  C
  H114     1.0000 0.57860  0.28010  0.32350  Biso   1.000  H
  C187     1.0000 0.58205  0.30436  0.30108  Biso   1.000  C
  C188     1.0000 0.57365  0.31260  0.28153  Biso   1.000  C
  H115     1.0000 0.57970  0.32510  0.27530  Biso   1.000  H
  C189     1.0000 0.55614  0.30212  0.27131  Biso   1.000  C
  H116     1.0000 0.55050  0.30760  0.25820  Biso   1.000  H
  C190     1.0000 0.60055  0.31665  0.31209  Biso   1.000  C
  C191     1.0000 0.61512  0.30324  0.32344  Biso   1.000  C
  H117     1.0000 0.61320  0.28810  0.32340  Biso   1.000  H
  C192     1.0000 0.63254  0.31248  0.33493  Biso   1.000  C
  H118     1.0000 0.64230  0.30350  0.34250  Biso   1.000  H
  C193     1.0000 0.63540  0.33512  0.33505  Biso   1.000  C
  C194     1.0000 0.62083  0.34852  0.32370  Biso   1.000  C
  H119     1.0000 0.62270  0.36370  0.32380  Biso   1.000  H
  C195     1.0000 0.60341  0.33929  0.31221  Biso   1.000  C
  H120     1.0000 0.59370  0.34830  0.30460  Biso   1.000  H
  O31      1.0000 0.51716  0.75471  0.77839  Biso   1.000  O
  O32      1.0000 0.52485  0.78067  0.74968  Biso   1.000  O
  C196     1.0000 0.52813  0.76990  0.76777  Biso   1.000  C
  C197     1.0000 0.54703  0.78339  0.78065  Biso   1.000  C
  C198     1.0000 0.55543  0.77515  0.80020  Biso   1.000  C
  H121     1.0000 0.54930  0.76260  0.80650  Biso   1.000  H
  C199     1.0000 0.57294  0.78563  0.81042  Biso   1.000  C
  H122     1.0000 0.57860  0.78010  0.82350  Biso   1.000  H
  C200     1.0000 0.58205  0.80436  0.80108  Biso   1.000  C
  C201     1.0000 0.57365  0.81260  0.78153  Biso   1.000  C
  H123     1.0000 0.57970  0.82510  0.77530  Biso   1.000  H
  C202     1.0000 0.55614  0.80212  0.77131  Biso   1.000  C
  H124     1.0000 0.55050  0.80760  0.75820  Biso   1.000  H
  C203     1.0000 0.60055  0.81665  0.81209  Biso   1.000  C
  C204     1.0000 0.61512  0.80324  0.82344  Biso   1.000  C
  H125     1.0000 0.61320  0.78810  0.82340  Biso   1.000  H
  C205     1.0000 0.63254  0.81248  0.83493  Biso   1.000  C
  H126     1.0000 0.64230  0.80350  0.84250  Biso   1.000  H
  C206     1.0000 0.63540  0.83512  0.83505  Biso   1.000  C
  C207     1.0000 0.62083  0.84852  0.82370  Biso   1.000  C
  H127     1.0000 0.62270  0.86370  0.82380  Biso   1.000  H
  C208     1.0000 0.60341  0.83929  0.81221  Biso   1.000  C
  H128     1.0000 0.59370  0.84830  0.80460  Biso   1.000  H
  O33      1.0000 0.22161  0.01716  0.74529  Biso   1.000  O
  O34      1.0000 0.25032  0.02485  0.71933  Biso   1.000  O
  C209     1.0000 0.23223  0.02813  0.73010  Biso   1.000  C
  C210     1.0000 0.21935  0.04703  0.71661  Biso   1.000  C
  C211     1.0000 0.19980  0.05543  0.72485  Biso   1.000  C
  H129     1.0000 0.19350  0.04930  0.73740  Biso   1.000  H
  C212     1.0000 0.18958  0.07294  0.71437  Biso   1.000  C
  H130     1.0000 0.17650  0.07860  0.71990  Biso   1.000  H
  C213     1.0000 0.19892  0.08205  0.69564  Biso   1.000  C
  C214     1.0000 0.21847  0.07365  0.68740  Biso   1.000  C
  H131     1.0000 0.22470  0.07970  0.67490  Biso   1.000  H
  C215     1.0000 0.22869  0.05614  0.69788  Biso   1.000  C
  H132     1.0000 0.24180  0.05050  0.69240  Biso   1.000  H
  C216     1.0000 0.18791  0.10055  0.68335  Biso   1.000  C
  C217     1.0000 0.17656  0.11512  0.69676  Biso   1.000  C
  H133     1.0000 0.17660  0.11320  0.71190  Biso   1.000  H
  C218     1.0000 0.16507  0.13254  0.68752  Biso   1.000  C
  H134     1.0000 0.15750  0.14230  0.69650  Biso   1.000  H
  C219     1.0000 0.16495  0.13540  0.66488  Biso   1.000  C
  C220     1.0000 0.17630  0.12083  0.65148  Biso   1.000  C
  H135     1.0000 0.17620  0.12270  0.63630  Biso   1.000  H
  C221     1.0000 0.18779  0.10341  0.66071  Biso   1.000  C
  H136     1.0000 0.19540  0.09370  0.65170  Biso   1.000  H
  O35      1.0000 0.22161  0.51716  0.24529  Biso   1.000  O
  O36      1.0000 0.25032  0.52485  0.21933  Biso   1.000  O
  C222     1.0000 0.23223  0.52813  0.23010  Biso   1.000  C
  C223     1.0000 0.21935  0.54703  0.21661  Biso   1.000  C
  C224     1.0000 0.19980  0.55543  0.22485  Biso   1.000  C
  H137     1.0000 0.19350  0.54930  0.23740  Biso   1.000  H
  C225     1.0000 0.18958  0.57294  0.21437  Biso   1.000  C
  H138     1.0000 0.17650  0.57860  0.21990  Biso   1.000  H
  C226     1.0000 0.19892  0.58205  0.19564  Biso   1.000  C
  C227     1.0000 0.21847  0.57365  0.18740  Biso   1.000  C
  H139     1.0000 0.22470  0.57970  0.17490  Biso   1.000  H
  C228     1.0000 0.22869  0.55614  0.19788  Biso   1.000  C
  H140     1.0000 0.24180  0.55050  0.19240  Biso   1.000  H
  C229     1.0000 0.18791  0.60055  0.18335  Biso   1.000  C
  C230     1.0000 0.17656  0.61512  0.19676  Biso   1.000  C
  H141     1.0000 0.17660  0.61320  0.21190  Biso   1.000  H
  C231     1.0000 0.16507  0.63254  0.18752  Biso   1.000  C
  H142     1.0000 0.15750  0.64230  0.19650  Biso   1.000  H
  C232     1.0000 0.16495  0.63540  0.16488  Biso   1.000  C
  C233     1.0000 0.17630  0.62083  0.15148  Biso   1.000  C
  H143     1.0000 0.17620  0.62270  0.13630  Biso   1.000  H
  C234     1.0000 0.18779  0.60341  0.16071  Biso   1.000  C
  H144     1.0000 0.19540  0.59370  0.15170  Biso   1.000  H
  O37      1.0000 0.72161  0.01716  0.24529  Biso   1.000  O
  O38      1.0000 0.75032  0.02485  0.21933  Biso   1.000  O
  C235     1.0000 0.73223  0.02813  0.23010  Biso   1.000  C
  C236     1.0000 0.71935  0.04703  0.21661  Biso   1.000  C
  C237     1.0000 0.69980  0.05543  0.22485  Biso   1.000  C
  H145     1.0000 0.69350  0.04930  0.23740  Biso   1.000  H
  C238     1.0000 0.68958  0.07294  0.21437  Biso   1.000  C
  H146     1.0000 0.67650  0.07860  0.21990  Biso   1.000  H
  C239     1.0000 0.69892  0.08205  0.19564  Biso   1.000  C
  C240     1.0000 0.71847  0.07365  0.18740  Biso   1.000  C
  H147     1.0000 0.72470  0.07970  0.17490  Biso   1.000  H
  C241     1.0000 0.72869  0.05614  0.19788  Biso   1.000  C
  H148     1.0000 0.74180  0.05050  0.19240  Biso   1.000  H
  C242     1.0000 0.68791  0.10055  0.18335  Biso   1.000  C
  C243     1.0000 0.67656  0.11512  0.19676  Biso   1.000  C
  H149     1.0000 0.67660  0.11320  0.21190  Biso   1.000  H
  C244     1.0000 0.66507  0.13254  0.18752  Biso   1.000  C
  H150     1.0000 0.65750  0.14230  0.19650  Biso   1.000  H
  C245     1.0000 0.66495  0.13540  0.16488  Biso   1.000  C
  C246     1.0000 0.67630  0.12083  0.15148  Biso   1.000  C
  H151     1.0000 0.67620  0.12270  0.13630  Biso   1.000  H
  C247     1.0000 0.68779  0.10341  0.16071  Biso   1.000  C
  H152     1.0000 0.69540  0.09370  0.15170  Biso   1.000  H
  O39      1.0000 0.72161  0.51716  0.74529  Biso   1.000  O
  O40      1.0000 0.75032  0.52485  0.71933  Biso   1.000  O
  C248     1.0000 0.73223  0.52813  0.73010  Biso   1.000  C
  C249     1.0000 0.71935  0.54703  0.71661  Biso   1.000  C
  C250     1.0000 0.69980  0.55543  0.72485  Biso   1.000  C
  H153     1.0000 0.69350  0.54930  0.73740  Biso   1.000  H
  C251     1.0000 0.68958  0.57294  0.71437  Biso   1.000  C
  H154     1.0000 0.67650  0.57860  0.71990  Biso   1.000  H
  C252     1.0000 0.69892  0.58205  0.69564  Biso   1.000  C
  C253     1.0000 0.71847  0.57365  0.68740  Biso   1.000  C
  H155     1.0000 0.72470  0.57970  0.67490  Biso   1.000  H
  C254     1.0000 0.72869  0.55614  0.69788  Biso   1.000  C
  H156     1.0000 0.74180  0.55050  0.69240  Biso   1.000  H
  C255     1.0000 0.68791  0.60055  0.68335  Biso   1.000  C
  C256     1.0000 0.67656  0.61512  0.69676  Biso   1.000  C
  H157     1.0000 0.67660  0.61320  0.71190  Biso   1.000  H
  C257     1.0000 0.66507  0.63254  0.68752  Biso   1.000  C
  H158     1.0000 0.65750  0.64230  0.69650  Biso   1.000  H
  C258     1.0000 0.66495  0.63540  0.66488  Biso   1.000  C
  C259     1.0000 0.67630  0.62083  0.65148  Biso   1.000  C
  H159     1.0000 0.67620  0.62270  0.63630  Biso   1.000  H
  C260     1.0000 0.68779  0.60341  0.66071  Biso   1.000  C
  H160     1.0000 0.69540  0.59370  0.65170  Biso   1.000  H
  O41      1.0000 0.22161  0.98284  0.25471  Biso   1.000  O
  O42      1.0000 0.25032  0.97515  0.28067  Biso   1.000  O
  C261     1.0000 0.23223  0.97187  0.26990  Biso   1.000  C
  C262     1.0000 0.21935  0.95297  0.28339  Biso   1.000  C
  C263     1.0000 0.19980  0.94457  0.27515  Biso   1.000  C
  H161     1.0000 0.19350  0.95070  0.26260  Biso   1.000  H
  C264     1.0000 0.18958  0.92706  0.28563  Biso   1.000  C
  H162     1.0000 0.17650  0.92140  0.28010  Biso   1.000  H
  C265     1.0000 0.19892  0.91795  0.30436  Biso   1.000  C
  C266     1.0000 0.21847  0.92635  0.31260  Biso   1.000  C
  H163     1.0000 0.22470  0.92030  0.32510  Biso   1.000  H
  C267     1.0000 0.22869  0.94386  0.30212  Biso   1.000  C
  H164     1.0000 0.24180  0.94950  0.30760  Biso   1.000  H
  C268     1.0000 0.18791  0.89945  0.31665  Biso   1.000  C
  C269     1.0000 0.17656  0.88488  0.30324  Biso   1.000  C
  H165     1.0000 0.17660  0.88680  0.28810  Biso   1.000  H
  C270     1.0000 0.16507  0.86746  0.31248  Biso   1.000  C
  H166     1.0000 0.15750  0.85770  0.30350  Biso   1.000  H
  C271     1.0000 0.16495  0.86460  0.33512  Biso   1.000  C
  C272     1.0000 0.17630  0.87917  0.34852  Biso   1.000  C
  H167     1.0000 0.17620  0.87730  0.36370  Biso   1.000  H
  C273     1.0000 0.18779  0.89659  0.33929  Biso   1.000  C
  H168     1.0000 0.19540  0.90630  0.34830  Biso   1.000  H
  O43      1.0000 0.22161  0.48284  0.75471  Biso   1.000  O
  O44      1.0000 0.25032  0.47515  0.78067  Biso   1.000  O
  C274     1.0000 0.23223  0.47187  0.76990  Biso   1.000  C
  C275     1.0000 0.21935  0.45297  0.78339  Biso   1.000  C
  C276     1.0000 0.19980  0.44457  0.77515  Biso   1.000  C
  H169     1.0000 0.19350  0.45070  0.76260  Biso   1.000  H
  C277     1.0000 0.18958  0.42706  0.78563  Biso   1.000  C
  H170     1.0000 0.17650  0.42140  0.78010  Biso   1.000  H
  C278     1.0000 0.19892  0.41795  0.80436  Biso   1.000  C
  C279     1.0000 0.21847  0.42635  0.81260  Biso   1.000  C
  H171     1.0000 0.22470  0.42030  0.82510  Biso   1.000  H
  C280     1.0000 0.22869  0.44386  0.80212  Biso   1.000  C
  H172     1.0000 0.24180  0.44950  0.80760  Biso   1.000  H
  C281     1.0000 0.18791  0.39945  0.81665  Biso   1.000  C
  C282     1.0000 0.17656  0.38488  0.80324  Biso   1.000  C
  H173     1.0000 0.17660  0.38680  0.78810  Biso   1.000  H
  C283     1.0000 0.16507  0.36746  0.81248  Biso   1.000  C
  H174     1.0000 0.15750  0.35770  0.80350  Biso   1.000  H
  C284     1.0000 0.16495  0.36460  0.83512  Biso   1.000  C
  C285     1.0000 0.17630  0.37917  0.84852  Biso   1.000  C
  H175     1.0000 0.17620  0.37730  0.86370  Biso   1.000  H
  C286     1.0000 0.18779  0.39659  0.83929  Biso   1.000  C
  H176     1.0000 0.19540  0.40630  0.84830  Biso   1.000  H
  O45      1.0000 0.72161  0.98284  0.75471  Biso   1.000  O
  O46      1.0000 0.75032  0.97515  0.78067  Biso   1.000  O
  C287     1.0000 0.73223  0.97187  0.76990  Biso   1.000  C
  C288     1.0000 0.71935  0.95297  0.78339  Biso   1.000  C
  C289     1.0000 0.69980  0.94457  0.77515  Biso   1.000  C
  H177     1.0000 0.69350  0.95070  0.76260  Biso   1.000  H
  C290     1.0000 0.68958  0.92706  0.78563  Biso   1.000  C
  H178     1.0000 0.67650  0.92140  0.78010  Biso   1.000  H
  C291     1.0000 0.69892  0.91795  0.80436  Biso   1.000  C
  C292     1.0000 0.71847  0.92635  0.81260  Biso   1.000  C
  H179     1.0000 0.72470  0.92030  0.82510  Biso   1.000  H
  C293     1.0000 0.72869  0.94386  0.80212  Biso   1.000  C
  H180     1.0000 0.74180  0.94950  0.80760  Biso   1.000  H
  C294     1.0000 0.68791  0.89945  0.81665  Biso   1.000  C
  C295     1.0000 0.67656  0.88488  0.80324  Biso   1.000  C
  H181     1.0000 0.67660  0.88680  0.78810  Biso   1.000  H
  C296     1.0000 0.66507  0.86746  0.81248  Biso   1.000  C
  H182     1.0000 0.65750  0.85770  0.80350  Biso   1.000  H
  C297     1.0000 0.66495  0.86460  0.83512  Biso   1.000  C
  C298     1.0000 0.67630  0.87917  0.84852  Biso   1.000  C
  H183     1.0000 0.67620  0.87730  0.86370  Biso   1.000  H
  C299     1.0000 0.68779  0.89659  0.83929  Biso   1.000  C
  H184     1.0000 0.69540  0.90630  0.84830  Biso   1.000  H
  O47      1.0000 0.72161  0.48284  0.25471  Biso   1.000  O
  O48      1.0000 0.75032  0.47515  0.28067  Biso   1.000  O
  C300     1.0000 0.73223  0.47187  0.26990  Biso   1.000  C
  C301     1.0000 0.71935  0.45297  0.28339  Biso   1.000  C
  C302     1.0000 0.69980  0.44457  0.27515  Biso   1.000  C
  H185     1.0000 0.69350  0.45070  0.26260  Biso   1.000  H
  C303     1.0000 0.68958  0.42706  0.28563  Biso   1.000  C
  H186     1.0000 0.67650  0.42140  0.28010  Biso   1.000  H
  C304     1.0000 0.69892  0.41795  0.30436  Biso   1.000  C
  C305     1.0000 0.71847  0.42635  0.31260  Biso   1.000  C
  H187     1.0000 0.72470  0.42030  0.32510  Biso   1.000  H
  C306     1.0000 0.72869  0.44386  0.30212  Biso   1.000  C
  H188     1.0000 0.74180  0.44950  0.30760  Biso   1.000  H
  C307     1.0000 0.68791  0.39945  0.31665  Biso   1.000  C
  C308     1.0000 0.67656  0.38488  0.30324  Biso   1.000  C
  H189     1.0000 0.67660  0.38680  0.28810  Biso   1.000  H
  C309     1.0000 0.66507  0.36746  0.31248  Biso   1.000  C
  H190     1.0000 0.65750  0.35770  0.30350  Biso   1.000  H
  C310     1.0000 0.66495  0.36460  0.33512  Biso   1.000  C
  C311     1.0000 0.67630  0.37917  0.34852  Biso   1.000  C
  H191     1.0000 0.67620  0.37730  0.36370  Biso   1.000  H
  C312     1.0000 0.68779  0.39659  0.33929  Biso   1.000  C
  H192     1.0000 0.69540  0.40630  0.34830  Biso   1.000  H
  O49      1.0000 0.77839  0.98284  0.74529  Biso   1.000  O
  O50      1.0000 0.74968  0.97515  0.71933  Biso   1.000  O
  C313     1.0000 0.76777  0.97187  0.73010  Biso   1.000  C
  C314     1.0000 0.78065  0.95297  0.71661  Biso   1.000  C
  C315     1.0000 0.80020  0.94457  0.72485  Biso   1.000  C
  H193     1.0000 0.80650  0.95070  0.73740  Biso   1.000  H
  C316     1.0000 0.81042  0.92706  0.71437  Biso   1.000  C
  H194     1.0000 0.82350  0.92140  0.71990  Biso   1.000  H
  C317     1.0000 0.80108  0.91795  0.69564  Biso   1.000  C
  C318     1.0000 0.78153  0.92635  0.68740  Biso   1.000  C
  H195     1.0000 0.77530  0.92030  0.67490  Biso   1.000  H
  C319     1.0000 0.77131  0.94386  0.69788  Biso   1.000  C
  H196     1.0000 0.75820  0.94950  0.69240  Biso   1.000  H
  C320     1.0000 0.81209  0.89945  0.68335  Biso   1.000  C
  C321     1.0000 0.82344  0.88488  0.69676  Biso   1.000  C
  H197     1.0000 0.82340  0.88680  0.71190  Biso   1.000  H
  C322     1.0000 0.83493  0.86746  0.68752  Biso   1.000  C
  H198     1.0000 0.84250  0.85770  0.69650  Biso   1.000  H
  C323     1.0000 0.83505  0.86460  0.66488  Biso   1.000  C
  C324     1.0000 0.82370  0.87917  0.65148  Biso   1.000  C
  H199     1.0000 0.82380  0.87730  0.63630  Biso   1.000  H
  C325     1.0000 0.81221  0.89659  0.66071  Biso   1.000  C
  H200     1.0000 0.80460  0.90630  0.65170  Biso   1.000  H
  O51      1.0000 0.77839  0.48284  0.24529  Biso   1.000  O
  O52      1.0000 0.74968  0.47515  0.21933  Biso   1.000  O
  C326     1.0000 0.76777  0.47187  0.23010  Biso   1.000  C
  C327     1.0000 0.78065  0.45297  0.21661  Biso   1.000  C
  C328     1.0000 0.80020  0.44457  0.22485  Biso   1.000  C
  H201     1.0000 0.80650  0.45070  0.23740  Biso   1.000  H
  C329     1.0000 0.81042  0.42706  0.21437  Biso   1.000  C
  H202     1.0000 0.82350  0.42140  0.21990  Biso   1.000  H
  C330     1.0000 0.80108  0.41795  0.19564  Biso   1.000  C
  C331     1.0000 0.78153  0.42635  0.18740  Biso   1.000  C
  H203     1.0000 0.77530  0.42030  0.17490  Biso   1.000  H
  C332     1.0000 0.77131  0.44386  0.19788  Biso   1.000  C
  H204     1.0000 0.75820  0.44950  0.19240  Biso   1.000  H
  C333     1.0000 0.81209  0.39945  0.18335  Biso   1.000  C
  C334     1.0000 0.82344  0.38488  0.19676  Biso   1.000  C
  H205     1.0000 0.82340  0.38680  0.21190  Biso   1.000  H
  C335     1.0000 0.83493  0.36746  0.18752  Biso   1.000  C
  H206     1.0000 0.84250  0.35770  0.19650  Biso   1.000  H
  C336     1.0000 0.83505  0.36460  0.16488  Biso   1.000  C
  C337     1.0000 0.82370  0.37917  0.15148  Biso   1.000  C
  H207     1.0000 0.82380  0.37730  0.13630  Biso   1.000  H
  C338     1.0000 0.81221  0.39659  0.16071  Biso   1.000  C
  H208     1.0000 0.80460  0.40630  0.15170  Biso   1.000  H
  O53      1.0000 0.27839  0.98284  0.24529  Biso   1.000  O
  O54      1.0000 0.24968  0.97515  0.21933  Biso   1.000  O
  C339     1.0000 0.26777  0.97187  0.23010  Biso   1.000  C
  C340     1.0000 0.28065  0.95297  0.21661  Biso   1.000  C
  C341     1.0000 0.30020  0.94457  0.22485  Biso   1.000  C
  H209     1.0000 0.30650  0.95070  0.23740  Biso   1.000  H
  C342     1.0000 0.31042  0.92706  0.21437  Biso   1.000  C
  H210     1.0000 0.32350  0.92140  0.21990  Biso   1.000  H
  C343     1.0000 0.30108  0.91795  0.19564  Biso   1.000  C
  C344     1.0000 0.28153  0.92635  0.18740  Biso   1.000  C
  H211     1.0000 0.27530  0.92030  0.17490  Biso   1.000  H
  C345     1.0000 0.27131  0.94386  0.19788  Biso   1.000  C
  H212     1.0000 0.25820  0.94950  0.19240  Biso   1.000  H
  C346     1.0000 0.31209  0.89945  0.18335  Biso   1.000  C
  C347     1.0000 0.32344  0.88488  0.19676  Biso   1.000  C
  H213     1.0000 0.32340  0.88680  0.21190  Biso   1.000  H
  C348     1.0000 0.33493  0.86746  0.18752  Biso   1.000  C
  H214     1.0000 0.34250  0.85770  0.19650  Biso   1.000  H
  C349     1.0000 0.33505  0.86460  0.16488  Biso   1.000  C
  C350     1.0000 0.32370  0.87917  0.15148  Biso   1.000  C
  H215     1.0000 0.32380  0.87730  0.13630  Biso   1.000  H
  C351     1.0000 0.31221  0.89659  0.16071  Biso   1.000  C
  H216     1.0000 0.30460  0.90630  0.15170  Biso   1.000  H
  O55      1.0000 0.27839  0.48284  0.74529  Biso   1.000  O
  O56      1.0000 0.24968  0.47515  0.71933  Biso   1.000  O
  C352     1.0000 0.26777  0.47187  0.73010  Biso   1.000  C
  C353     1.0000 0.28065  0.45297  0.71661  Biso   1.000  C
  C354     1.0000 0.30020  0.44457  0.72485  Biso   1.000  C
  H217     1.0000 0.30650  0.45070  0.73740  Biso   1.000  H
  C355     1.0000 0.31042  0.42706  0.71437  Biso   1.000  C
  H218     1.0000 0.32350  0.42140  0.71990  Biso   1.000  H
  C356     1.0000 0.30108  0.41795  0.69564  Biso   1.000  C
  C357     1.0000 0.28153  0.42635  0.68740  Biso   1.000  C
  H219     1.0000 0.27530  0.42030  0.67490  Biso   1.000  H
  C358     1.0000 0.27131  0.44386  0.69788  Biso   1.000  C
  H220     1.0000 0.25820  0.44950  0.69240  Biso   1.000  H
  C359     1.0000 0.31209  0.39945  0.68335  Biso   1.000  C
  C360     1.0000 0.32344  0.38488  0.69676  Biso   1.000  C
  H221     1.0000 0.32340  0.38680  0.71190  Biso   1.000  H
  C361     1.0000 0.33493  0.36746  0.68752  Biso   1.000  C
  H222     1.0000 0.34250  0.35770  0.69650  Biso   1.000  H
  C362     1.0000 0.33505  0.36460  0.66488  Biso   1.000  C
  C363     1.0000 0.32370  0.37917  0.65148  Biso   1.000  C
  H223     1.0000 0.32380  0.37730  0.63630  Biso   1.000  H
  C364     1.0000 0.31221  0.39659  0.66071  Biso   1.000  C
  H224     1.0000 0.30460  0.40630  0.65170  Biso   1.000  H
  O57      1.0000 0.77839  0.01716  0.25471  Biso   1.000  O
  O58      1.0000 0.74968  0.02485  0.28067  Biso   1.000  O
  C365     1.0000 0.76777  0.02813  0.26990  Biso   1.000  C
  C366     1.0000 0.78065  0.04703  0.28339  Biso   1.000  C
  C367     1.0000 0.80020  0.05543  0.27515  Biso   1.000  C
  H225     1.0000 0.80650  0.04930  0.26260  Biso   1.000  H
  C368     1.0000 0.81042  0.07294  0.28563  Biso   1.000  C
  H226     1.0000 0.82350  0.07860  0.28010  Biso   1.000  H
  C369     1.0000 0.80108  0.08205  0.30436  Biso   1.000  C
  C370     1.0000 0.78153  0.07365  0.31260  Biso   1.000  C
  H227     1.0000 0.77530  0.07970  0.32510  Biso   1.000  H
  C371     1.0000 0.77131  0.05614  0.30212  Biso   1.000  C
  H228     1.0000 0.75820  0.05050  0.30760  Biso   1.000  H
  C372     1.0000 0.81209  0.10055  0.31665  Biso   1.000  C
  C373     1.0000 0.82344  0.11512  0.30324  Biso   1.000  C
  H229     1.0000 0.82340  0.11320  0.28810  Biso   1.000  H
  C374     1.0000 0.83493  0.13254  0.31248  Biso   1.000  C
  H230     1.0000 0.84250  0.14230  0.30350  Biso   1.000  H
  C375     1.0000 0.83505  0.13540  0.33512  Biso   1.000  C
  C376     1.0000 0.82370  0.12083  0.34852  Biso   1.000  C
  H231     1.0000 0.82380  0.12270  0.36370  Biso   1.000  H
  C377     1.0000 0.81221  0.10341  0.33929  Biso   1.000  C
  H232     1.0000 0.80460  0.09370  0.34830  Biso   1.000  H
  O59      1.0000 0.77839  0.51716  0.75471  Biso   1.000  O
  O60      1.0000 0.74968  0.52485  0.78067  Biso   1.000  O
  C378     1.0000 0.76777  0.52813  0.76990  Biso   1.000  C
  C379     1.0000 0.78065  0.54703  0.78339  Biso   1.000  C
  C380     1.0000 0.80020  0.55543  0.77515  Biso   1.000  C
  H233     1.0000 0.80650  0.54930  0.76260  Biso   1.000  H
  C381     1.0000 0.81042  0.57294  0.78563  Biso   1.000  C
  H234     1.0000 0.82350  0.57860  0.78010  Biso   1.000  H
  C382     1.0000 0.80108  0.58205  0.80436  Biso   1.000  C
  C383     1.0000 0.78153  0.57365  0.81260  Biso   1.000  C
  H235     1.0000 0.77530  0.57970  0.82510  Biso   1.000  H
  C384     1.0000 0.77131  0.55614  0.80212  Biso   1.000  C
  H236     1.0000 0.75820  0.55050  0.80760  Biso   1.000  H
  C385     1.0000 0.81209  0.60055  0.81665  Biso   1.000  C
  C386     1.0000 0.82344  0.61512  0.80324  Biso   1.000  C
  H237     1.0000 0.82340  0.61320  0.78810  Biso   1.000  H
  C387     1.0000 0.83493  0.63254  0.81248  Biso   1.000  C
  H238     1.0000 0.84250  0.64230  0.80350  Biso   1.000  H
  C388     1.0000 0.83505  0.63540  0.83512  Biso   1.000  C
  C389     1.0000 0.82370  0.62083  0.84852  Biso   1.000  C
  H239     1.0000 0.82380  0.62270  0.86370  Biso   1.000  H
  C390     1.0000 0.81221  0.60341  0.83929  Biso   1.000  C
  H240     1.0000 0.80460  0.59370  0.84830  Biso   1.000  H
  O61      1.0000 0.27839  0.01716  0.75471  Biso   1.000  O
  O62      1.0000 0.24968  0.02485  0.78067  Biso   1.000  O
  C391     1.0000 0.26777  0.02813  0.76990  Biso   1.000  C
  C392     1.0000 0.28065  0.04703  0.78339  Biso   1.000  C
  C393     1.0000 0.30020  0.05543  0.77515  Biso   1.000  C
  H241     1.0000 0.30650  0.04930  0.76260  Biso   1.000  H
  C394     1.0000 0.31042  0.07294  0.78563  Biso   1.000  C
  H242     1.0000 0.32350  0.07860  0.78010  Biso   1.000  H
  C395     1.0000 0.30108  0.08205  0.80436  Biso   1.000  C
  C396     1.0000 0.28153  0.07365  0.81260  Biso   1.000  C
  H243     1.0000 0.27530  0.07970  0.82510  Biso   1.000  H
  C397     1.0000 0.27131  0.05614  0.80212  Biso   1.000  C
  H244     1.0000 0.25820  0.05050  0.80760  Biso   1.000  H
  C398     1.0000 0.31209  0.10055  0.81665  Biso   1.000  C
  C399     1.0000 0.32344  0.11512  0.80324  Biso   1.000  C
  H245     1.0000 0.32340  0.11320  0.78810  Biso   1.000  H
  C400     1.0000 0.33493  0.13254  0.81248  Biso   1.000  C
  H246     1.0000 0.34250  0.14230  0.80350  Biso   1.000  H
  C401     1.0000 0.33505  0.13540  0.83512  Biso   1.000  C
  C402     1.0000 0.32370  0.12083  0.84852  Biso   1.000  C
  H247     1.0000 0.32380  0.12270  0.86370  Biso   1.000  H
  C403     1.0000 0.31221  0.10341  0.83929  Biso   1.000  C
  H248     1.0000 0.30460  0.09370  0.84830  Biso   1.000  H
  O63      1.0000 0.27839  0.51716  0.25471  Biso   1.000  O
  O64      1.0000 0.24968  0.52485  0.28067  Biso   1.000  O
  C404     1.0000 0.26777  0.52813  0.26990  Biso   1.000  C
  C405     1.0000 0.28065  0.54703  0.28339  Biso   1.000  C
  C406     1.0000 0.30020  0.55543  0.27515  Biso   1.000  C
  H249     1.0000 0.30650  0.54930  0.26260  Biso   1.000  H
  C407     1.0000 0.31042  0.57294  0.28563  Biso   1.000  C
  H250     1.0000 0.32350  0.57860  0.28010  Biso   1.000  H
  C408     1.0000 0.30108  0.58205  0.30436  Biso   1.000  C
  C409     1.0000 0.28153  0.57365  0.31260  Biso   1.000  C
  H251     1.0000 0.27530  0.57970  0.32510  Biso   1.000  H
  C410     1.0000 0.27131  0.55614  0.30212  Biso   1.000  C
  H252     1.0000 0.25820  0.55050  0.30760  Biso   1.000  H
  C411     1.0000 0.31209  0.60055  0.31665  Biso   1.000  C
  C412     1.0000 0.32344  0.61512  0.30324  Biso   1.000  C
  H253     1.0000 0.32340  0.61320  0.28810  Biso   1.000  H
  C413     1.0000 0.33493  0.63254  0.31248  Biso   1.000  C
  H254     1.0000 0.34250  0.64230  0.30350  Biso   1.000  H
  C414     1.0000 0.33505  0.63540  0.33512  Biso   1.000  C
  C415     1.0000 0.32370  0.62083  0.34852  Biso   1.000  C
  H255     1.0000 0.32380  0.62270  0.36370  Biso   1.000  H
  C416     1.0000 0.31221  0.60341  0.33929  Biso   1.000  C
  H256     1.0000 0.30460  0.59370  0.34830  Biso   1.000  H
  O65      1.0000 0.74529  0.22161  0.01716  Biso   1.000  O
  O66      1.0000 0.71933  0.25032  0.02485  Biso   1.000  O
  C417     1.0000 0.73010  0.23223  0.02813  Biso   1.000  C
  C418     1.0000 0.71661  0.21935  0.04703  Biso   1.000  C
  C419     1.0000 0.72485  0.19980  0.05543  Biso   1.000  C
  H257     1.0000 0.73740  0.19350  0.04930  Biso   1.000  H
  C420     1.0000 0.71437  0.18958  0.07294  Biso   1.000  C
  H258     1.0000 0.71990  0.17650  0.07860  Biso   1.000  H
  C421     1.0000 0.69564  0.19892  0.08205  Biso   1.000  C
  C422     1.0000 0.68740  0.21847  0.07365  Biso   1.000  C
  H259     1.0000 0.67490  0.22470  0.07970  Biso   1.000  H
  C423     1.0000 0.69788  0.22869  0.05614  Biso   1.000  C
  H260     1.0000 0.69240  0.24180  0.05050  Biso   1.000  H
  C424     1.0000 0.68335  0.18791  0.10055  Biso   1.000  C
  C425     1.0000 0.69676  0.17656  0.11512  Biso   1.000  C
  H261     1.0000 0.71190  0.17660  0.11320  Biso   1.000  H
  C426     1.0000 0.68752  0.16507  0.13254  Biso   1.000  C
  H262     1.0000 0.69650  0.15750  0.14230  Biso   1.000  H
  C427     1.0000 0.66488  0.16495  0.13540  Biso   1.000  C
  C428     1.0000 0.65148  0.17630  0.12083  Biso   1.000  C
  H263     1.0000 0.63630  0.17620  0.12270  Biso   1.000  H
  C429     1.0000 0.66071  0.18779  0.10341  Biso   1.000  C
  H264     1.0000 0.65170  0.19540  0.09370  Biso   1.000  H
  O67      1.0000 0.74529  0.72161  0.51716  Biso   1.000  O
  O68      1.0000 0.71933  0.75032  0.52485  Biso   1.000  O
  C430     1.0000 0.73010  0.73223  0.52813  Biso   1.000  C
  C431     1.0000 0.71661  0.71935  0.54703  Biso   1.000  C
  C432     1.0000 0.72485  0.69980  0.55543  Biso   1.000  C
  H265     1.0000 0.73740  0.69350  0.54930  Biso   1.000  H
  C433     1.0000 0.71437  0.68958  0.57294  Biso   1.000  C
  H266     1.0000 0.71990  0.67650  0.57860  Biso   1.000  H
  C434     1.0000 0.69564  0.69892  0.58205  Biso   1.000  C
  C435     1.0000 0.68740  0.71847  0.57365  Biso   1.000  C
  H267     1.0000 0.67490  0.72470  0.57970  Biso   1.000  H
  C436     1.0000 0.69788  0.72869  0.55614  Biso   1.000  C
  H268     1.0000 0.69240  0.74180  0.55050  Biso   1.000  H
  C437     1.0000 0.68335  0.68791  0.60055  Biso   1.000  C
  C438     1.0000 0.69676  0.67656  0.61512  Biso   1.000  C
  H269     1.0000 0.71190  0.67660  0.61320  Biso   1.000  H
  C439     1.0000 0.68752  0.66507  0.63254  Biso   1.000  C
  H270     1.0000 0.69650  0.65750  0.64230  Biso   1.000  H
  C440     1.0000 0.66488  0.66495  0.63540  Biso   1.000  C
  C441     1.0000 0.65148  0.67630  0.62083  Biso   1.000  C
  H271     1.0000 0.63630  0.67620  0.62270  Biso   1.000  H
  C442     1.0000 0.66071  0.68779  0.60341  Biso   1.000  C
  H272     1.0000 0.65170  0.69540  0.59370  Biso   1.000  H
  O69      1.0000 0.24529  0.22161  0.51716  Biso   1.000  O
  O70      1.0000 0.21933  0.25032  0.52485  Biso   1.000  O
  C443     1.0000 0.23010  0.23223  0.52813  Biso   1.000  C
  C444     1.0000 0.21661  0.21935  0.54703  Biso   1.000  C
  C445     1.0000 0.22485  0.19980  0.55543  Biso   1.000  C
  H273     1.0000 0.23740  0.19350  0.54930  Biso   1.000  H
  C446     1.0000 0.21437  0.18958  0.57294  Biso   1.000  C
  H274     1.0000 0.21990  0.17650  0.57860  Biso   1.000  H
  C447     1.0000 0.19564  0.19892  0.58205  Biso   1.000  C
  C448     1.0000 0.18740  0.21847  0.57365  Biso   1.000  C
  H275     1.0000 0.17490  0.22470  0.57970  Biso   1.000  H
  C449     1.0000 0.19788  0.22869  0.55614  Biso   1.000  C
  H276     1.0000 0.19240  0.24180  0.55050  Biso   1.000  H
  C450     1.0000 0.18335  0.18791  0.60055  Biso   1.000  C
  C451     1.0000 0.19676  0.17656  0.61512  Biso   1.000  C
  H277     1.0000 0.21190  0.17660  0.61320  Biso   1.000  H
  C452     1.0000 0.18752  0.16507  0.63254  Biso   1.000  C
  H278     1.0000 0.19650  0.15750  0.64230  Biso   1.000  H
  C453     1.0000 0.16488  0.16495  0.63540  Biso   1.000  C
  C454     1.0000 0.15148  0.17630  0.62083  Biso   1.000  C
  H279     1.0000 0.13630  0.17620  0.62270  Biso   1.000  H
  C455     1.0000 0.16071  0.18779  0.60341  Biso   1.000  C
  H280     1.0000 0.15170  0.19540  0.59370  Biso   1.000  H
  O71      1.0000 0.24529  0.72161  0.01716  Biso   1.000  O
  O72      1.0000 0.21933  0.75032  0.02485  Biso   1.000  O
  C456     1.0000 0.23010  0.73223  0.02813  Biso   1.000  C
  C457     1.0000 0.21661  0.71935  0.04703  Biso   1.000  C
  C458     1.0000 0.22485  0.69980  0.05543  Biso   1.000  C
  H281     1.0000 0.23740  0.69350  0.04930  Biso   1.000  H
  C459     1.0000 0.21437  0.68958  0.07294  Biso   1.000  C
  H282     1.0000 0.21990  0.67650  0.07860  Biso   1.000  H
  C460     1.0000 0.19564  0.69892  0.08205  Biso   1.000  C
  C461     1.0000 0.18740  0.71847  0.07365  Biso   1.000  C
  H283     1.0000 0.17490  0.72470  0.07970  Biso   1.000  H
  C462     1.0000 0.19788  0.72869  0.05614  Biso   1.000  C
  H284     1.0000 0.19240  0.74180  0.05050  Biso   1.000  H
  C463     1.0000 0.18335  0.68791  0.10055  Biso   1.000  C
  C464     1.0000 0.19676  0.67656  0.11512  Biso   1.000  C
  H285     1.0000 0.21190  0.67660  0.11320  Biso   1.000  H
  C465     1.0000 0.18752  0.66507  0.13254  Biso   1.000  C
  H286     1.0000 0.19650  0.65750  0.14230  Biso   1.000  H
  C466     1.0000 0.16488  0.66495  0.13540  Biso   1.000  C
  C467     1.0000 0.15148  0.67630  0.12083  Biso   1.000  C
  H287     1.0000 0.13630  0.67620  0.12270  Biso   1.000  H
  C468     1.0000 0.16071  0.68779  0.10341  Biso   1.000  C
  H288     1.0000 0.15170  0.69540  0.09370  Biso   1.000  H
  O73      1.0000 0.25471  0.22161  0.98284  Biso   1.000  O
  O74      1.0000 0.28067  0.25032  0.97515  Biso   1.000  O
  C469     1.0000 0.26990  0.23223  0.97187  Biso   1.000  C
  C470     1.0000 0.28339  0.21935  0.95297  Biso   1.000  C
  C471     1.0000 0.27515  0.19980  0.94457  Biso   1.000  C
  H289     1.0000 0.26260  0.19350  0.95070  Biso   1.000  H
  C472     1.0000 0.28563  0.18958  0.92706  Biso   1.000  C
  H290     1.0000 0.28010  0.17650  0.92140  Biso   1.000  H
  C473     1.0000 0.30436  0.19892  0.91795  Biso   1.000  C
  C474     1.0000 0.31260  0.21847  0.92635  Biso   1.000  C
  H291     1.0000 0.32510  0.22470  0.92030  Biso   1.000  H
  C475     1.0000 0.30212  0.22869  0.94386  Biso   1.000  C
  H292     1.0000 0.30760  0.24180  0.94950  Biso   1.000  H
  C476     1.0000 0.31665  0.18791  0.89945  Biso   1.000  C
  C477     1.0000 0.30324  0.17656  0.88488  Biso   1.000  C
  H293     1.0000 0.28810  0.17660  0.88680  Biso   1.000  H
  C478     1.0000 0.31248  0.16507  0.86746  Biso   1.000  C
  H294     1.0000 0.30350  0.15750  0.85770  Biso   1.000  H
  C479     1.0000 0.33512  0.16495  0.86460  Biso   1.000  C
  C480     1.0000 0.34852  0.17630  0.87917  Biso   1.000  C
  H295     1.0000 0.36370  0.17620  0.87730  Biso   1.000  H
  C481     1.0000 0.33929  0.18779  0.89659  Biso   1.000  C
  H296     1.0000 0.34830  0.19540  0.90630  Biso   1.000  H
  O75      1.0000 0.25471  0.72161  0.48284  Biso   1.000  O
  O76      1.0000 0.28067  0.75032  0.47515  Biso   1.000  O
  C482     1.0000 0.26990  0.73223  0.47187  Biso   1.000  C
  C483     1.0000 0.28339  0.71935  0.45297  Biso   1.000  C
  C484     1.0000 0.27515  0.69980  0.44457  Biso   1.000  C
  H297     1.0000 0.26260  0.69350  0.45070  Biso   1.000  H
  C485     1.0000 0.28563  0.68958  0.42706  Biso   1.000  C
  H298     1.0000 0.28010  0.67650  0.42140  Biso   1.000  H
  C486     1.0000 0.30436  0.69892  0.41795  Biso   1.000  C
  C487     1.0000 0.31260  0.71847  0.42635  Biso   1.000  C
  H299     1.0000 0.32510  0.72470  0.42030  Biso   1.000  H
  C488     1.0000 0.30212  0.72869  0.44386  Biso   1.000  C
  H300     1.0000 0.30760  0.74180  0.44950  Biso   1.000  H
  C489     1.0000 0.31665  0.68791  0.39945  Biso   1.000  C
  C490     1.0000 0.30324  0.67656  0.38488  Biso   1.000  C
  H301     1.0000 0.28810  0.67660  0.38680  Biso   1.000  H
  C491     1.0000 0.31248  0.66507  0.36746  Biso   1.000  C
  H302     1.0000 0.30350  0.65750  0.35770  Biso   1.000  H
  C492     1.0000 0.33512  0.66495  0.36460  Biso   1.000  C
  C493     1.0000 0.34852  0.67630  0.37917  Biso   1.000  C
  H303     1.0000 0.36370  0.67620  0.37730  Biso   1.000  H
  C494     1.0000 0.33929  0.68779  0.39659  Biso   1.000  C
  H304     1.0000 0.34830  0.69540  0.40630  Biso   1.000  H
  O77      1.0000 0.75471  0.22161  0.48284  Biso   1.000  O
  O78      1.0000 0.78067  0.25032  0.47515  Biso   1.000  O
  C495     1.0000 0.76990  0.23223  0.47187  Biso   1.000  C
  C496     1.0000 0.78339  0.21935  0.45297  Biso   1.000  C
  C497     1.0000 0.77515  0.19980  0.44457  Biso   1.000  C
  H305     1.0000 0.76260  0.19350  0.45070  Biso   1.000  H
  C498     1.0000 0.78563  0.18958  0.42706  Biso   1.000  C
  H306     1.0000 0.78010  0.17650  0.42140  Biso   1.000  H
  C499     1.0000 0.80436  0.19892  0.41795  Biso   1.000  C
  C500     1.0000 0.81260  0.21847  0.42635  Biso   1.000  C
  H307     1.0000 0.82510  0.22470  0.42030  Biso   1.000  H
  C501     1.0000 0.80212  0.22869  0.44386  Biso   1.000  C
  H308     1.0000 0.80760  0.24180  0.44950  Biso   1.000  H
  C502     1.0000 0.81665  0.18791  0.39945  Biso   1.000  C
  C503     1.0000 0.80324  0.17656  0.38488  Biso   1.000  C
  H309     1.0000 0.78810  0.17660  0.38680  Biso   1.000  H
  C504     1.0000 0.81248  0.16507  0.36746  Biso   1.000  C
  H310     1.0000 0.80350  0.15750  0.35770  Biso   1.000  H
  C505     1.0000 0.83512  0.16495  0.36460  Biso   1.000  C
  C506     1.0000 0.84852  0.17630  0.37917  Biso   1.000  C
  H311     1.0000 0.86370  0.17620  0.37730  Biso   1.000  H
  C507     1.0000 0.83929  0.18779  0.39659  Biso   1.000  C
  H312     1.0000 0.84830  0.19540  0.40630  Biso   1.000  H
  O79      1.0000 0.75471  0.72161  0.98284  Biso   1.000  O
  O80      1.0000 0.78067  0.75032  0.97515  Biso   1.000  O
  C508     1.0000 0.76990  0.73223  0.97187  Biso   1.000  C
  C509     1.0000 0.78339  0.71935  0.95297  Biso   1.000  C
  C510     1.0000 0.77515  0.69980  0.94457  Biso   1.000  C
  H313     1.0000 0.76260  0.69350  0.95070  Biso   1.000  H
  C511     1.0000 0.78563  0.68958  0.92706  Biso   1.000  C
  H314     1.0000 0.78010  0.67650  0.92140  Biso   1.000  H
  C512     1.0000 0.80436  0.69892  0.91795  Biso   1.000  C
  C513     1.0000 0.81260  0.71847  0.92635  Biso   1.000  C
  H315     1.0000 0.82510  0.72470  0.92030  Biso   1.000  H
  C514     1.0000 0.80212  0.72869  0.94386  Biso   1.000  C
  H316     1.0000 0.80760  0.74180  0.94950  Biso   1.000  H
  C515     1.0000 0.81665  0.68791  0.89945  Biso   1.000  C
  C516     1.0000 0.80324  0.67656  0.88488  Biso   1.000  C
  H317     1.0000 0.78810  0.67660  0.88680  Biso   1.000  H
  C517     1.0000 0.81248  0.66507  0.86746  Biso   1.000  C
  H318     1.0000 0.80350  0.65750  0.85770  Biso   1.000  H
  C518     1.0000 0.83512  0.66495  0.86460  Biso   1.000  C
  C519     1.0000 0.84852  0.67630  0.87917  Biso   1.000  C
  H319     1.0000 0.86370  0.67620  0.87730  Biso   1.000  H
  C520     1.0000 0.83929  0.68779  0.89659  Biso   1.000  C
  H320     1.0000 0.84830  0.69540  0.90630  Biso   1.000  H
  O81      1.0000 0.74529  0.77839  0.98284  Biso   1.000  O
  O82      1.0000 0.71933  0.74968  0.97515  Biso   1.000  O
  C521     1.0000 0.73010  0.76777  0.97187  Biso   1.000  C
  C522     1.0000 0.71661  0.78065  0.95297  Biso   1.000  C
  C523     1.0000 0.72485  0.80020  0.94457  Biso   1.000  C
  H321     1.0000 0.73740  0.80650  0.95070  Biso   1.000  H
  C524     1.0000 0.71437  0.81042  0.92706  Biso   1.000  C
  H322     1.0000 0.71990  0.82350  0.92140  Biso   1.000  H
  C525     1.0000 0.69564  0.80108  0.91795  Biso   1.000  C
  C526     1.0000 0.68740  0.78153  0.92635  Biso   1.000  C
  H323     1.0000 0.67490  0.77530  0.92030  Biso   1.000  H
  C527     1.0000 0.69788  0.77131  0.94386  Biso   1.000  C
  H324     1.0000 0.69240  0.75820  0.94950  Biso   1.000  H
  C528     1.0000 0.68335  0.81209  0.89945  Biso   1.000  C
  C529     1.0000 0.69676  0.82344  0.88488  Biso   1.000  C
  H325     1.0000 0.71190  0.82340  0.88680  Biso   1.000  H
  C530     1.0000 0.68752  0.83493  0.86746  Biso   1.000  C
  H326     1.0000 0.69650  0.84250  0.85770  Biso   1.000  H
  C531     1.0000 0.66488  0.83505  0.86460  Biso   1.000  C
  C532     1.0000 0.65148  0.82370  0.87917  Biso   1.000  C
  H327     1.0000 0.63630  0.82380  0.87730  Biso   1.000  H
  C533     1.0000 0.66071  0.81221  0.89659  Biso   1.000  C
  H328     1.0000 0.65170  0.80460  0.90630  Biso   1.000  H
  O83      1.0000 0.74529  0.27839  0.48284  Biso   1.000  O
  O84      1.0000 0.71933  0.24968  0.47515  Biso   1.000  O
  C534     1.0000 0.73010  0.26777  0.47187  Biso   1.000  C
  C535     1.0000 0.71661  0.28065  0.45297  Biso   1.000  C
  C536     1.0000 0.72485  0.30020  0.44457  Biso   1.000  C
  H329     1.0000 0.73740  0.30650  0.45070  Biso   1.000  H
  C537     1.0000 0.71437  0.31042  0.42706  Biso   1.000  C
  H330     1.0000 0.71990  0.32350  0.42140  Biso   1.000  H
  C538     1.0000 0.69564  0.30108  0.41795  Biso   1.000  C
  C539     1.0000 0.68740  0.28153  0.42635  Biso   1.000  C
  H331     1.0000 0.67490  0.27530  0.42030  Biso   1.000  H
  C540     1.0000 0.69788  0.27131  0.44386  Biso   1.000  C
  H332     1.0000 0.69240  0.25820  0.44950  Biso   1.000  H
  C541     1.0000 0.68335  0.31209  0.39945  Biso   1.000  C
  C542     1.0000 0.69676  0.32344  0.38488  Biso   1.000  C
  H333     1.0000 0.71190  0.32340  0.38680  Biso   1.000  H
  C543     1.0000 0.68752  0.33493  0.36746  Biso   1.000  C
  H334     1.0000 0.69650  0.34250  0.35770  Biso   1.000  H
  C544     1.0000 0.66488  0.33505  0.36460  Biso   1.000  C
  C545     1.0000 0.65148  0.32370  0.37917  Biso   1.000  C
  H335     1.0000 0.63630  0.32380  0.37730  Biso   1.000  H
  C546     1.0000 0.66071  0.31221  0.39659  Biso   1.000  C
  H336     1.0000 0.65170  0.30460  0.40630  Biso   1.000  H
  O85      1.0000 0.24529  0.77839  0.48284  Biso   1.000  O
  O86      1.0000 0.21933  0.74968  0.47515  Biso   1.000  O
  C547     1.0000 0.23010  0.76777  0.47187  Biso   1.000  C
  C548     1.0000 0.21661  0.78065  0.45297  Biso   1.000  C
  C549     1.0000 0.22485  0.80020  0.44457  Biso   1.000  C
  H337     1.0000 0.23740  0.80650  0.45070  Biso   1.000  H
  C550     1.0000 0.21437  0.81042  0.42706  Biso   1.000  C
  H338     1.0000 0.21990  0.82350  0.42140  Biso   1.000  H
  C551     1.0000 0.19564  0.80108  0.41795  Biso   1.000  C
  C552     1.0000 0.18740  0.78153  0.42635  Biso   1.000  C
  H339     1.0000 0.17490  0.77530  0.42030  Biso   1.000  H
  C553     1.0000 0.19788  0.77131  0.44386  Biso   1.000  C
  H340     1.0000 0.19240  0.75820  0.44950  Biso   1.000  H
  C554     1.0000 0.18335  0.81209  0.39945  Biso   1.000  C
  C555     1.0000 0.19676  0.82344  0.38488  Biso   1.000  C
  H341     1.0000 0.21190  0.82340  0.38680  Biso   1.000  H
  C556     1.0000 0.18752  0.83493  0.36746  Biso   1.000  C
  H342     1.0000 0.19650  0.84250  0.35770  Biso   1.000  H
  C557     1.0000 0.16488  0.83505  0.36460  Biso   1.000  C
  C558     1.0000 0.15148  0.82370  0.37917  Biso   1.000  C
  H343     1.0000 0.13630  0.82380  0.37730  Biso   1.000  H
  C559     1.0000 0.16071  0.81221  0.39659  Biso   1.000  C
  H344     1.0000 0.15170  0.80460  0.40630  Biso   1.000  H
  O87      1.0000 0.24529  0.27839  0.98284  Biso   1.000  O
  O88      1.0000 0.21933  0.24968  0.97515  Biso   1.000  O
  C560     1.0000 0.23010  0.26777  0.97187  Biso   1.000  C
  C561     1.0000 0.21661  0.28065  0.95297  Biso   1.000  C
  C562     1.0000 0.22485  0.30020  0.94457  Biso   1.000  C
  H345     1.0000 0.23740  0.30650  0.95070  Biso   1.000  H
  C563     1.0000 0.21437  0.31042  0.92706  Biso   1.000  C
  H346     1.0000 0.21990  0.32350  0.92140  Biso   1.000  H
  C564     1.0000 0.19564  0.30108  0.91795  Biso   1.000  C
  C565     1.0000 0.18740  0.28153  0.92635  Biso   1.000  C
  H347     1.0000 0.17490  0.27530  0.92030  Biso   1.000  H
  C566     1.0000 0.19788  0.27131  0.94386  Biso   1.000  C
  H348     1.0000 0.19240  0.25820  0.94950  Biso   1.000  H
  C567     1.0000 0.18335  0.31209  0.89945  Biso   1.000  C
  C568     1.0000 0.19676  0.32344  0.88488  Biso   1.000  C
  H349     1.0000 0.21190  0.32340  0.88680  Biso   1.000  H
  C569     1.0000 0.18752  0.33493  0.86746  Biso   1.000  C
  H350     1.0000 0.19650  0.34250  0.85770  Biso   1.000  H
  C570     1.0000 0.16488  0.33505  0.86460  Biso   1.000  C
  C571     1.0000 0.15148  0.32370  0.87917  Biso   1.000  C
  H351     1.0000 0.13630  0.32380  0.87730  Biso   1.000  H
  C572     1.0000 0.16071  0.31221  0.89659  Biso   1.000  C
  H352     1.0000 0.15170  0.30460  0.90630  Biso   1.000  H
  O89      1.0000 0.25471  0.77839  0.01716  Biso   1.000  O
  O90      1.0000 0.28067  0.74968  0.02485  Biso   1.000  O
  C573     1.0000 0.26990  0.76777  0.02813  Biso   1.000  C
  C574     1.0000 0.28339  0.78065  0.04703  Biso   1.000  C
  C575     1.0000 0.27515  0.80020  0.05543  Biso   1.000  C
  H353     1.0000 0.26260  0.80650  0.04930  Biso   1.000  H
  C576     1.0000 0.28563  0.81042  0.07294  Biso   1.000  C
  H354     1.0000 0.28010  0.82350  0.07860  Biso   1.000  H
  C577     1.0000 0.30436  0.80108  0.08205  Biso   1.000  C
  C578     1.0000 0.31260  0.78153  0.07365  Biso   1.000  C
  H355     1.0000 0.32510  0.77530  0.07970  Biso   1.000  H
  C579     1.0000 0.30212  0.77131  0.05614  Biso   1.000  C
  H356     1.0000 0.30760  0.75820  0.05050  Biso   1.000  H
  C580     1.0000 0.31665  0.81209  0.10055  Biso   1.000  C
  C581     1.0000 0.30324  0.82344  0.11512  Biso   1.000  C
  H357     1.0000 0.28810  0.82340  0.11320  Biso   1.000  H
  C582     1.0000 0.31248  0.83493  0.13254  Biso   1.000  C
  H358     1.0000 0.30350  0.84250  0.14230  Biso   1.000  H
  C583     1.0000 0.33512  0.83505  0.13540  Biso   1.000  C
  C584     1.0000 0.34852  0.82370  0.12083  Biso   1.000  C
  H359     1.0000 0.36370  0.82380  0.12270  Biso   1.000  H
  C585     1.0000 0.33929  0.81221  0.10341  Biso   1.000  C
  H360     1.0000 0.34830  0.80460  0.09370  Biso   1.000  H
  O91      1.0000 0.25471  0.27839  0.51716  Biso   1.000  O
  O92      1.0000 0.28067  0.24968  0.52485  Biso   1.000  O
  C586     1.0000 0.26990  0.26777  0.52813  Biso   1.000  C
  C587     1.0000 0.28339  0.28065  0.54703  Biso   1.000  C
  C588     1.0000 0.27515  0.30020  0.55543  Biso   1.000  C
  H361     1.0000 0.26260  0.30650  0.54930  Biso   1.000  H
  C589     1.0000 0.28563  0.31042  0.57294  Biso   1.000  C
  H362     1.0000 0.28010  0.32350  0.57860  Biso   1.000  H
  C590     1.0000 0.30436  0.30108  0.58205  Biso   1.000  C
  C591     1.0000 0.31260  0.28153  0.57365  Biso   1.000  C
  H363     1.0000 0.32510  0.27530  0.57970  Biso   1.000  H
  C592     1.0000 0.30212  0.27131  0.55614  Biso   1.000  C
  H364     1.0000 0.30760  0.25820  0.55050  Biso   1.000  H
  C593     1.0000 0.31665  0.31209  0.60055  Biso   1.000  C
  C594     1.0000 0.30324  0.32344  0.61512  Biso   1.000  C
  H365     1.0000 0.28810  0.32340  0.61320  Biso   1.000  H
  C595     1.0000 0.31248  0.33493  0.63254  Biso   1.000  C
  H366     1.0000 0.30350  0.34250  0.64230  Biso   1.000  H
  C596     1.0000 0.33512  0.33505  0.63540  Biso   1.000  C
  C597     1.0000 0.34852  0.32370  0.62083  Biso   1.000  C
  H367     1.0000 0.36370  0.32380  0.62270  Biso   1.000  H
  C598     1.0000 0.33929  0.31221  0.60341  Biso   1.000  C
  H368     1.0000 0.34830  0.30460  0.59370  Biso   1.000  H
  O93      1.0000 0.75471  0.77839  0.51716  Biso   1.000  O
  O94      1.0000 0.78067  0.74968  0.52485  Biso   1.000  O
  C599     1.0000 0.76990  0.76777  0.52813  Biso   1.000  C
  C600     1.0000 0.78339  0.78065  0.54703  Biso   1.000  C
  C601     1.0000 0.77515  0.80020  0.55543  Biso   1.000  C
  H369     1.0000 0.76260  0.80650  0.54930  Biso   1.000  H
  C602     1.0000 0.78563  0.81042  0.57294  Biso   1.000  C
  H370     1.0000 0.78010  0.82350  0.57860  Biso   1.000  H
  C603     1.0000 0.80436  0.80108  0.58205  Biso   1.000  C
  C604     1.0000 0.81260  0.78153  0.57365  Biso   1.000  C
  H371     1.0000 0.82510  0.77530  0.57970  Biso   1.000  H
  C605     1.0000 0.80212  0.77131  0.55614  Biso   1.000  C
  H372     1.0000 0.80760  0.75820  0.55050  Biso   1.000  H
  C606     1.0000 0.81665  0.81209  0.60055  Biso   1.000  C
  C607     1.0000 0.80324  0.82344  0.61512  Biso   1.000  C
  H373     1.0000 0.78810  0.82340  0.61320  Biso   1.000  H
  C608     1.0000 0.81248  0.83493  0.63254  Biso   1.000  C
  H374     1.0000 0.80350  0.84250  0.64230  Biso   1.000  H
  C609     1.0000 0.83512  0.83505  0.63540  Biso   1.000  C
  C610     1.0000 0.84852  0.82370  0.62083  Biso   1.000  C
  H375     1.0000 0.86370  0.82380  0.62270  Biso   1.000  H
  C611     1.0000 0.83929  0.81221  0.60341  Biso   1.000  C
  H376     1.0000 0.84830  0.80460  0.59370  Biso   1.000  H
  O95      1.0000 0.75471  0.27839  0.01716  Biso   1.000  O
  O96      1.0000 0.78067  0.24968  0.02485  Biso   1.000  O
  C612     1.0000 0.76990  0.26777  0.02813  Biso   1.000  C
  C613     1.0000 0.78339  0.28065  0.04703  Biso   1.000  C
  C614     1.0000 0.77515  0.30020  0.05543  Biso   1.000  C
  H377     1.0000 0.76260  0.30650  0.04930  Biso   1.000  H
  C615     1.0000 0.78563  0.31042  0.07294  Biso   1.000  C
  H378     1.0000 0.78010  0.32350  0.07860  Biso   1.000  H
  C616     1.0000 0.80436  0.30108  0.08205  Biso   1.000  C
  C617     1.0000 0.81260  0.28153  0.07365  Biso   1.000  C
  H379     1.0000 0.82510  0.27530  0.07970  Biso   1.000  H
  C618     1.0000 0.80212  0.27131  0.05614  Biso   1.000  C
  H380     1.0000 0.80760  0.25820  0.05050  Biso   1.000  H
  C619     1.0000 0.81665  0.31209  0.10055  Biso   1.000  C
  C620     1.0000 0.80324  0.32344  0.11512  Biso   1.000  C
  H381     1.0000 0.78810  0.32340  0.11320  Biso   1.000  H
  C621     1.0000 0.81248  0.33493  0.13254  Biso   1.000  C
  H382     1.0000 0.80350  0.34250  0.14230  Biso   1.000  H
  C622     1.0000 0.83512  0.33505  0.13540  Biso   1.000  C
  C623     1.0000 0.84852  0.32370  0.12083  Biso   1.000  C
  H383     1.0000 0.86370  0.32380  0.12270  Biso   1.000  H
  C624     1.0000 0.83929  0.31221  0.10341  Biso   1.000  C
  H384     1.0000 0.84830  0.30460  0.09370  Biso   1.000  H
  O97      1.0000 0.74529  0.01716  0.77839  Biso   1.000  O
  O98      1.0000 0.71933  0.02485  0.74968  Biso   1.000  O
  C625     1.0000 0.73010  0.02813  0.76777  Biso   1.000  C
  C626     1.0000 0.71661  0.04703  0.78065  Biso   1.000  C
  C627     1.0000 0.72485  0.05543  0.80020  Biso   1.000  C
  H385     1.0000 0.73740  0.04930  0.80650  Biso   1.000  H
  C628     1.0000 0.71437  0.07294  0.81042  Biso   1.000  C
  H386     1.0000 0.71990  0.07860  0.82350  Biso   1.000  H
  C629     1.0000 0.69564  0.08205  0.80108  Biso   1.000  C
  C630     1.0000 0.68740  0.07365  0.78153  Biso   1.000  C
  H387     1.0000 0.67490  0.07970  0.77530  Biso   1.000  H
  C631     1.0000 0.69788  0.05614  0.77131  Biso   1.000  C
  H388     1.0000 0.69240  0.05050  0.75820  Biso   1.000  H
  C632     1.0000 0.68335  0.10055  0.81209  Biso   1.000  C
  C633     1.0000 0.69676  0.11512  0.82344  Biso   1.000  C
  H389     1.0000 0.71190  0.11320  0.82340  Biso   1.000  H
  C634     1.0000 0.68752  0.13254  0.83493  Biso   1.000  C
  H390     1.0000 0.69650  0.14230  0.84250  Biso   1.000  H
  C635     1.0000 0.66488  0.13540  0.83505  Biso   1.000  C
  C636     1.0000 0.65148  0.12083  0.82370  Biso   1.000  C
  H391     1.0000 0.63630  0.12270  0.82380  Biso   1.000  H
  C637     1.0000 0.66071  0.10341  0.81221  Biso   1.000  C
  H392     1.0000 0.65170  0.09370  0.80460  Biso   1.000  H
  O99      1.0000 0.74529  0.51716  0.27839  Biso   1.000  O
  O100     1.0000 0.71933  0.52485  0.24968  Biso   1.000  O
  C638     1.0000 0.73010  0.52813  0.26777  Biso   1.000  C
  C639     1.0000 0.71661  0.54703  0.28065  Biso   1.000  C
  C640     1.0000 0.72485  0.55543  0.30020  Biso   1.000  C
  H393     1.0000 0.73740  0.54930  0.30650  Biso   1.000  H
  C641     1.0000 0.71437  0.57294  0.31042  Biso   1.000  C
  H394     1.0000 0.71990  0.57860  0.32350  Biso   1.000  H
  C642     1.0000 0.69564  0.58205  0.30108  Biso   1.000  C
  C643     1.0000 0.68740  0.57365  0.28153  Biso   1.000  C
  H395     1.0000 0.67490  0.57970  0.27530  Biso   1.000  H
  C644     1.0000 0.69788  0.55614  0.27131  Biso   1.000  C
  H396     1.0000 0.69240  0.55050  0.25820  Biso   1.000  H
  C645     1.0000 0.68335  0.60055  0.31209  Biso   1.000  C
  C646     1.0000 0.69676  0.61512  0.32344  Biso   1.000  C
  H397     1.0000 0.71190  0.61320  0.32340  Biso   1.000  H
  C647     1.0000 0.68752  0.63254  0.33493  Biso   1.000  C
  H398     1.0000 0.69650  0.64230  0.34250  Biso   1.000  H
  C648     1.0000 0.66488  0.63540  0.33505  Biso   1.000  C
  C649     1.0000 0.65148  0.62083  0.32370  Biso   1.000  C
  H399     1.0000 0.63630  0.62270  0.32380  Biso   1.000  H
  C650     1.0000 0.66071  0.60341  0.31221  Biso   1.000  C
  H400     1.0000 0.65170  0.59370  0.30460  Biso   1.000  H
  O101     1.0000 0.24529  0.01716  0.27839  Biso   1.000  O
  O102     1.0000 0.21933  0.02485  0.24968  Biso   1.000  O
  C651     1.0000 0.23010  0.02813  0.26777  Biso   1.000  C
  C652     1.0000 0.21661  0.04703  0.28065  Biso   1.000  C
  C653     1.0000 0.22485  0.05543  0.30020  Biso   1.000  C
  H401     1.0000 0.23740  0.04930  0.30650  Biso   1.000  H
  C654     1.0000 0.21437  0.07294  0.31042  Biso   1.000  C
  H402     1.0000 0.21990  0.07860  0.32350  Biso   1.000  H
  C655     1.0000 0.19564  0.08205  0.30108  Biso   1.000  C
  C656     1.0000 0.18740  0.07365  0.28153  Biso   1.000  C
  H403     1.0000 0.17490  0.07970  0.27530  Biso   1.000  H
  C657     1.0000 0.19788  0.05614  0.27131  Biso   1.000  C
  H404     1.0000 0.19240  0.05050  0.25820  Biso   1.000  H
  C658     1.0000 0.18335  0.10055  0.31209  Biso   1.000  C
  C659     1.0000 0.19676  0.11512  0.32344  Biso   1.000  C
  H405     1.0000 0.21190  0.11320  0.32340  Biso   1.000  H
  C660     1.0000 0.18752  0.13254  0.33493  Biso   1.000  C
  H406     1.0000 0.19650  0.14230  0.34250  Biso   1.000  H
  C661     1.0000 0.16488  0.13540  0.33505  Biso   1.000  C
  C662     1.0000 0.15148  0.12083  0.32370  Biso   1.000  C
  H407     1.0000 0.13630  0.12270  0.32380  Biso   1.000  H
  C663     1.0000 0.16071  0.10341  0.31221  Biso   1.000  C
  H408     1.0000 0.15170  0.09370  0.30460  Biso   1.000  H
  O103     1.0000 0.24529  0.51716  0.77839  Biso   1.000  O
  O104     1.0000 0.21933  0.52485  0.74968  Biso   1.000  O
  C664     1.0000 0.23010  0.52813  0.76777  Biso   1.000  C
  C665     1.0000 0.21661  0.54703  0.78065  Biso   1.000  C
  C666     1.0000 0.22485  0.55543  0.80020  Biso   1.000  C
  H409     1.0000 0.23740  0.54930  0.80650  Biso   1.000  H
  C667     1.0000 0.21437  0.57294  0.81042  Biso   1.000  C
  H410     1.0000 0.21990  0.57860  0.82350  Biso   1.000  H
  C668     1.0000 0.19564  0.58205  0.80108  Biso   1.000  C
  C669     1.0000 0.18740  0.57365  0.78153  Biso   1.000  C
  H411     1.0000 0.17490  0.57970  0.77530  Biso   1.000  H
  C670     1.0000 0.19788  0.55614  0.77131  Biso   1.000  C
  H412     1.0000 0.19240  0.55050  0.75820  Biso   1.000  H
  C671     1.0000 0.18335  0.60055  0.81209  Biso   1.000  C
  C672     1.0000 0.19676  0.61512  0.82344  Biso   1.000  C
  H413     1.0000 0.21190  0.61320  0.82340  Biso   1.000  H
  C673     1.0000 0.18752  0.63254  0.83493  Biso   1.000  C
  H414     1.0000 0.19650  0.64230  0.84250  Biso   1.000  H
  C674     1.0000 0.16488  0.63540  0.83505  Biso   1.000  C
  C675     1.0000 0.15148  0.62083  0.82370  Biso   1.000  C
  H415     1.0000 0.13630  0.62270  0.82380  Biso   1.000  H
  C676     1.0000 0.16071  0.60341  0.81221  Biso   1.000  C
  H416     1.0000 0.15170  0.59370  0.80460  Biso   1.000  H
  O105     1.0000 0.25471  0.98284  0.77839  Biso   1.000  O
  O106     1.0000 0.28067  0.97515  0.74968  Biso   1.000  O
  C677     1.0000 0.26990  0.97187  0.76777  Biso   1.000  C
  C678     1.0000 0.28339  0.95297  0.78065  Biso   1.000  C
  C679     1.0000 0.27515  0.94457  0.80020  Biso   1.000  C
  H417     1.0000 0.26260  0.95070  0.80650  Biso   1.000  H
  C680     1.0000 0.28563  0.92706  0.81042  Biso   1.000  C
  H418     1.0000 0.28010  0.92140  0.82350  Biso   1.000  H
  C681     1.0000 0.30436  0.91795  0.80108  Biso   1.000  C
  C682     1.0000 0.31260  0.92635  0.78153  Biso   1.000  C
  H419     1.0000 0.32510  0.92030  0.77530  Biso   1.000  H
  C683     1.0000 0.30212  0.94386  0.77131  Biso   1.000  C
  H420     1.0000 0.30760  0.94950  0.75820  Biso   1.000  H
  C684     1.0000 0.31665  0.89945  0.81209  Biso   1.000  C
  C685     1.0000 0.30324  0.88488  0.82344  Biso   1.000  C
  H421     1.0000 0.28810  0.88680  0.82340  Biso   1.000  H
  C686     1.0000 0.31248  0.86746  0.83493  Biso   1.000  C
  H422     1.0000 0.30350  0.85770  0.84250  Biso   1.000  H
  C687     1.0000 0.33512  0.86460  0.83505  Biso   1.000  C
  C688     1.0000 0.34852  0.87917  0.82370  Biso   1.000  C
  H423     1.0000 0.36370  0.87730  0.82380  Biso   1.000  H
  C689     1.0000 0.33929  0.89659  0.81221  Biso   1.000  C
  H424     1.0000 0.34830  0.90630  0.80460  Biso   1.000  H
  O107     1.0000 0.25471  0.48284  0.27839  Biso   1.000  O
  O108     1.0000 0.28067  0.47515  0.24968  Biso   1.000  O
  C690     1.0000 0.26990  0.47187  0.26777  Biso   1.000  C
  C691     1.0000 0.28339  0.45297  0.28065  Biso   1.000  C
  C692     1.0000 0.27515  0.44457  0.30020  Biso   1.000  C
  H425     1.0000 0.26260  0.45070  0.30650  Biso   1.000  H
  C693     1.0000 0.28563  0.42706  0.31042  Biso   1.000  C
  H426     1.0000 0.28010  0.42140  0.32350  Biso   1.000  H
  C694     1.0000 0.30436  0.41795  0.30108  Biso   1.000  C
  C695     1.0000 0.31260  0.42635  0.28153  Biso   1.000  C
  H427     1.0000 0.32510  0.42030  0.27530  Biso   1.000  H
  C696     1.0000 0.30212  0.44386  0.27131  Biso   1.000  C
  H428     1.0000 0.30760  0.44950  0.25820  Biso   1.000  H
  C697     1.0000 0.31665  0.39945  0.31209  Biso   1.000  C
  C698     1.0000 0.30324  0.38488  0.32344  Biso   1.000  C
  H429     1.0000 0.28810  0.38680  0.32340  Biso   1.000  H
  C699     1.0000 0.31248  0.36746  0.33493  Biso   1.000  C
  H430     1.0000 0.30350  0.35770  0.34250  Biso   1.000  H
  C700     1.0000 0.33512  0.36460  0.33505  Biso   1.000  C
  C701     1.0000 0.34852  0.37917  0.32370  Biso   1.000  C
  H431     1.0000 0.36370  0.37730  0.32380  Biso   1.000  H
  C702     1.0000 0.33929  0.39659  0.31221  Biso   1.000  C
  H432     1.0000 0.34830  0.40630  0.30460  Biso   1.000  H
  O109     1.0000 0.75471  0.98284  0.27839  Biso   1.000  O
  O110     1.0000 0.78067  0.97515  0.24968  Biso   1.000  O
  C703     1.0000 0.76990  0.97187  0.26777  Biso   1.000  C
  C704     1.0000 0.78339  0.95297  0.28065  Biso   1.000  C
  C705     1.0000 0.77515  0.94457  0.30020  Biso   1.000  C
  H433     1.0000 0.76260  0.95070  0.30650  Biso   1.000  H
  C706     1.0000 0.78563  0.92706  0.31042  Biso   1.000  C
  H434     1.0000 0.78010  0.92140  0.32350  Biso   1.000  H
  C707     1.0000 0.80436  0.91795  0.30108  Biso   1.000  C
  C708     1.0000 0.81260  0.92635  0.28153  Biso   1.000  C
  H435     1.0000 0.82510  0.92030  0.27530  Biso   1.000  H
  C709     1.0000 0.80212  0.94386  0.27131  Biso   1.000  C
  H436     1.0000 0.80760  0.94950  0.25820  Biso   1.000  H
  C710     1.0000 0.81665  0.89945  0.31209  Biso   1.000  C
  C711     1.0000 0.80324  0.88488  0.32344  Biso   1.000  C
  H437     1.0000 0.78810  0.88680  0.32340  Biso   1.000  H
  C712     1.0000 0.81248  0.86746  0.33493  Biso   1.000  C
  H438     1.0000 0.80350  0.85770  0.34250  Biso   1.000  H
  C713     1.0000 0.83512  0.86460  0.33505  Biso   1.000  C
  C714     1.0000 0.84852  0.87917  0.32370  Biso   1.000  C
  H439     1.0000 0.86370  0.87730  0.32380  Biso   1.000  H
  C715     1.0000 0.83929  0.89659  0.31221  Biso   1.000  C
  H440     1.0000 0.84830  0.90630  0.30460  Biso   1.000  H
  O111     1.0000 0.75471  0.48284  0.77839  Biso   1.000  O
  O112     1.0000 0.78067  0.47515  0.74968  Biso   1.000  O
  C716     1.0000 0.76990  0.47187  0.76777  Biso   1.000  C
  C717     1.0000 0.78339  0.45297  0.78065  Biso   1.000  C
  C718     1.0000 0.77515  0.44457  0.80020  Biso   1.000  C
  H441     1.0000 0.76260  0.45070  0.80650  Biso   1.000  H
  C719     1.0000 0.78563  0.42706  0.81042  Biso   1.000  C
  H442     1.0000 0.78010  0.42140  0.82350  Biso   1.000  H
  C720     1.0000 0.80436  0.41795  0.80108  Biso   1.000  C
  C721     1.0000 0.81260  0.42635  0.78153  Biso   1.000  C
  H443     1.0000 0.82510  0.42030  0.77530  Biso   1.000  H
  C722     1.0000 0.80212  0.44386  0.77131  Biso   1.000  C
  H444     1.0000 0.80760  0.44950  0.75820  Biso   1.000  H
  C723     1.0000 0.81665  0.39945  0.81209  Biso   1.000  C
  C724     1.0000 0.80324  0.38488  0.82344  Biso   1.000  C
  H445     1.0000 0.78810  0.38680  0.82340  Biso   1.000  H
  C725     1.0000 0.81248  0.36746  0.83493  Biso   1.000  C
  H446     1.0000 0.80350  0.35770  0.84250  Biso   1.000  H
  C726     1.0000 0.83512  0.36460  0.83505  Biso   1.000  C
  C727     1.0000 0.84852  0.37917  0.82370  Biso   1.000  C
  H447     1.0000 0.86370  0.37730  0.82380  Biso   1.000  H
  C728     1.0000 0.83929  0.39659  0.81221  Biso   1.000  C
  H448     1.0000 0.84830  0.40630  0.80460  Biso   1.000  H
  O113     1.0000 0.74529  0.98284  0.22161  Biso   1.000  O
  O114     1.0000 0.71933  0.97515  0.25032  Biso   1.000  O
  C729     1.0000 0.73010  0.97187  0.23223  Biso   1.000  C
  C730     1.0000 0.71661  0.95297  0.21935  Biso   1.000  C
  C731     1.0000 0.72485  0.94457  0.19980  Biso   1.000  C
  H449     1.0000 0.73740  0.95070  0.19350  Biso   1.000  H
  C732     1.0000 0.71437  0.92706  0.18958  Biso   1.000  C
  H450     1.0000 0.71990  0.92140  0.17650  Biso   1.000  H
  C733     1.0000 0.69564  0.91795  0.19892  Biso   1.000  C
  C734     1.0000 0.68740  0.92635  0.21847  Biso   1.000  C
  H451     1.0000 0.67490  0.92030  0.22470  Biso   1.000  H
  C735     1.0000 0.69788  0.94386  0.22869  Biso   1.000  C
  H452     1.0000 0.69240  0.94950  0.24180  Biso   1.000  H
  C736     1.0000 0.68335  0.89945  0.18791  Biso   1.000  C
  C737     1.0000 0.69676  0.88488  0.17656  Biso   1.000  C
  H453     1.0000 0.71190  0.88680  0.17660  Biso   1.000  H
  C738     1.0000 0.68752  0.86746  0.16507  Biso   1.000  C
  H454     1.0000 0.69650  0.85770  0.15750  Biso   1.000  H
  C739     1.0000 0.66488  0.86460  0.16495  Biso   1.000  C
  C740     1.0000 0.65148  0.87917  0.17630  Biso   1.000  C
  H455     1.0000 0.63630  0.87730  0.17620  Biso   1.000  H
  C741     1.0000 0.66071  0.89659  0.18779  Biso   1.000  C
  H456     1.0000 0.65170  0.90630  0.19540  Biso   1.000  H
  O115     1.0000 0.74529  0.48284  0.72161  Biso   1.000  O
  O116     1.0000 0.71933  0.47515  0.75032  Biso   1.000  O
  C742     1.0000 0.73010  0.47187  0.73223  Biso   1.000  C
  C743     1.0000 0.71661  0.45297  0.71935  Biso   1.000  C
  C744     1.0000 0.72485  0.44457  0.69980  Biso   1.000  C
  H457     1.0000 0.73740  0.45070  0.69350  Biso   1.000  H
  C745     1.0000 0.71437  0.42706  0.68958  Biso   1.000  C
  H458     1.0000 0.71990  0.42140  0.67650  Biso   1.000  H
  C746     1.0000 0.69564  0.41795  0.69892  Biso   1.000  C
  C747     1.0000 0.68740  0.42635  0.71847  Biso   1.000  C
  H459     1.0000 0.67490  0.42030  0.72470  Biso   1.000  H
  C748     1.0000 0.69788  0.44386  0.72869  Biso   1.000  C
  H460     1.0000 0.69240  0.44950  0.74180  Biso   1.000  H
  C749     1.0000 0.68335  0.39945  0.68791  Biso   1.000  C
  C750     1.0000 0.69676  0.38488  0.67656  Biso   1.000  C
  H461     1.0000 0.71190  0.38680  0.67660  Biso   1.000  H
  C751     1.0000 0.68752  0.36746  0.66507  Biso   1.000  C
  H462     1.0000 0.69650  0.35770  0.65750  Biso   1.000  H
  C752     1.0000 0.66488  0.36460  0.66495  Biso   1.000  C
  C753     1.0000 0.65148  0.37917  0.67630  Biso   1.000  C
  H463     1.0000 0.63630  0.37730  0.67620  Biso   1.000  H
  C754     1.0000 0.66071  0.39659  0.68779  Biso   1.000  C
  H464     1.0000 0.65170  0.40630  0.69540  Biso   1.000  H
  O117     1.0000 0.24529  0.98284  0.72161  Biso   1.000  O
  O118     1.0000 0.21933  0.97515  0.75032  Biso   1.000  O
  C755     1.0000 0.23010  0.97187  0.73223  Biso   1.000  C
  C756     1.0000 0.21661  0.95297  0.71935  Biso   1.000  C
  C757     1.0000 0.22485  0.94457  0.69980  Biso   1.000  C
  H465     1.0000 0.23740  0.95070  0.69350  Biso   1.000  H
  C758     1.0000 0.21437  0.92706  0.68958  Biso   1.000  C
  H466     1.0000 0.21990  0.92140  0.67650  Biso   1.000  H
  C759     1.0000 0.19564  0.91795  0.69892  Biso   1.000  C
  C760     1.0000 0.18740  0.92635  0.71847  Biso   1.000  C
  H467     1.0000 0.17490  0.92030  0.72470  Biso   1.000  H
  C761     1.0000 0.19788  0.94386  0.72869  Biso   1.000  C
  H468     1.0000 0.19240  0.94950  0.74180  Biso   1.000  H
  C762     1.0000 0.18335  0.89945  0.68791  Biso   1.000  C
  C763     1.0000 0.19676  0.88488  0.67656  Biso   1.000  C
  H469     1.0000 0.21190  0.88680  0.67660  Biso   1.000  H
  C764     1.0000 0.18752  0.86746  0.66507  Biso   1.000  C
  H470     1.0000 0.19650  0.85770  0.65750  Biso   1.000  H
  C765     1.0000 0.16488  0.86460  0.66495  Biso   1.000  C
  C766     1.0000 0.15148  0.87917  0.67630  Biso   1.000  C
  H471     1.0000 0.13630  0.87730  0.67620  Biso   1.000  H
  C767     1.0000 0.16071  0.89659  0.68779  Biso   1.000  C
  H472     1.0000 0.15170  0.90630  0.69540  Biso   1.000  H
  O119     1.0000 0.24529  0.48284  0.22161  Biso   1.000  O
  O120     1.0000 0.21933  0.47515  0.25032  Biso   1.000  O
  C768     1.0000 0.23010  0.47187  0.23223  Biso   1.000  C
  C769     1.0000 0.21661  0.45297  0.21935  Biso   1.000  C
  C770     1.0000 0.22485  0.44457  0.19980  Biso   1.000  C
  H473     1.0000 0.23740  0.45070  0.19350  Biso   1.000  H
  C771     1.0000 0.21437  0.42706  0.18958  Biso   1.000  C
  H474     1.0000 0.21990  0.42140  0.17650  Biso   1.000  H
  C772     1.0000 0.19564  0.41795  0.19892  Biso   1.000  C
  C773     1.0000 0.18740  0.42635  0.21847  Biso   1.000  C
  H475     1.0000 0.17490  0.42030  0.22470  Biso   1.000  H
  C774     1.0000 0.19788  0.44386  0.22869  Biso   1.000  C
  H476     1.0000 0.19240  0.44950  0.24180  Biso   1.000  H
  C775     1.0000 0.18335  0.39945  0.18791  Biso   1.000  C
  C776     1.0000 0.19676  0.38488  0.17656  Biso   1.000  C
  H477     1.0000 0.21190  0.38680  0.17660  Biso   1.000  H
  C777     1.0000 0.18752  0.36746  0.16507  Biso   1.000  C
  H478     1.0000 0.19650  0.35770  0.15750  Biso   1.000  H
  C778     1.0000 0.16488  0.36460  0.16495  Biso   1.000  C
  C779     1.0000 0.15148  0.37917  0.17630  Biso   1.000  C
  H479     1.0000 0.13630  0.37730  0.17620  Biso   1.000  H
  C780     1.0000 0.16071  0.39659  0.18779  Biso   1.000  C
  H480     1.0000 0.15170  0.40630  0.19540  Biso   1.000  H
  O121     1.0000 0.25471  0.01716  0.22161  Biso   1.000  O
  O122     1.0000 0.28067  0.02485  0.25032  Biso   1.000  O
  C781     1.0000 0.26990  0.02813  0.23223  Biso   1.000  C
  C782     1.0000 0.28339  0.04703  0.21935  Biso   1.000  C
  C783     1.0000 0.27515  0.05543  0.19980  Biso   1.000  C
  H481     1.0000 0.26260  0.04930  0.19350  Biso   1.000  H
  C784     1.0000 0.28563  0.07294  0.18958  Biso   1.000  C
  H482     1.0000 0.28010  0.07860  0.17650  Biso   1.000  H
  C785     1.0000 0.30436  0.08205  0.19892  Biso   1.000  C
  C786     1.0000 0.31260  0.07365  0.21847  Biso   1.000  C
  H483     1.0000 0.32510  0.07970  0.22470  Biso   1.000  H
  C787     1.0000 0.30212  0.05614  0.22869  Biso   1.000  C
  H484     1.0000 0.30760  0.05050  0.24180  Biso   1.000  H
  C788     1.0000 0.31665  0.10055  0.18791  Biso   1.000  C
  C789     1.0000 0.30324  0.11512  0.17656  Biso   1.000  C
  H485     1.0000 0.28810  0.11320  0.17660  Biso   1.000  H
  C790     1.0000 0.31248  0.13254  0.16507  Biso   1.000  C
  H486     1.0000 0.30350  0.14230  0.15750  Biso   1.000  H
  C791     1.0000 0.33512  0.13540  0.16495  Biso   1.000  C
  C792     1.0000 0.34852  0.12083  0.17630  Biso   1.000  C
  H487     1.0000 0.36370  0.12270  0.17620  Biso   1.000  H
  C793     1.0000 0.33929  0.10341  0.18779  Biso   1.000  C
  H488     1.0000 0.34830  0.09370  0.19540  Biso   1.000  H
  O123     1.0000 0.25471  0.51716  0.72161  Biso   1.000  O
  O124     1.0000 0.28067  0.52485  0.75032  Biso   1.000  O
  C794     1.0000 0.26990  0.52813  0.73223  Biso   1.000  C
  C795     1.0000 0.28339  0.54703  0.71935  Biso   1.000  C
  C796     1.0000 0.27515  0.55543  0.69980  Biso   1.000  C
  H489     1.0000 0.26260  0.54930  0.69350  Biso   1.000  H
  C797     1.0000 0.28563  0.57294  0.68958  Biso   1.000  C
  H490     1.0000 0.28010  0.57860  0.67650  Biso   1.000  H
  C798     1.0000 0.30436  0.58205  0.69892  Biso   1.000  C
  C799     1.0000 0.31260  0.57365  0.71847  Biso   1.000  C
  H491     1.0000 0.32510  0.57970  0.72470  Biso   1.000  H
  C800     1.0000 0.30212  0.55614  0.72869  Biso   1.000  C
  H492     1.0000 0.30760  0.55050  0.74180  Biso   1.000  H
  C801     1.0000 0.31665  0.60055  0.68791  Biso   1.000  C
  C802     1.0000 0.30324  0.61512  0.67656  Biso   1.000  C
  H493     1.0000 0.28810  0.61320  0.67660  Biso   1.000  H
  C803     1.0000 0.31248  0.63254  0.66507  Biso   1.000  C
  H494     1.0000 0.30350  0.64230  0.65750  Biso   1.000  H
  C804     1.0000 0.33512  0.63540  0.66495  Biso   1.000  C
  C805     1.0000 0.34852  0.62083  0.67630  Biso   1.000  C
  H495     1.0000 0.36370  0.62270  0.67620  Biso   1.000  H
  C806     1.0000 0.33929  0.60341  0.68779  Biso   1.000  C
  H496     1.0000 0.34830  0.59370  0.69540  Biso   1.000  H
  O125     1.0000 0.75471  0.01716  0.72161  Biso   1.000  O
  O126     1.0000 0.78067  0.02485  0.75032  Biso   1.000  O
  C807     1.0000 0.76990  0.02813  0.73223  Biso   1.000  C
  C808     1.0000 0.78339  0.04703  0.71935  Biso   1.000  C
  C809     1.0000 0.77515  0.05543  0.69980  Biso   1.000  C
  H497     1.0000 0.76260  0.04930  0.69350  Biso   1.000  H
  C810     1.0000 0.78563  0.07294  0.68958  Biso   1.000  C
  H498     1.0000 0.78010  0.07860  0.67650  Biso   1.000  H
  C811     1.0000 0.80436  0.08205  0.69892  Biso   1.000  C
  C812     1.0000 0.81260  0.07365  0.71847  Biso   1.000  C
  H499     1.0000 0.82510  0.07970  0.72470  Biso   1.000  H
  C813     1.0000 0.80212  0.05614  0.72869  Biso   1.000  C
  H500     1.0000 0.80760  0.05050  0.74180  Biso   1.000  H
  C814     1.0000 0.81665  0.10055  0.68791  Biso   1.000  C
  C815     1.0000 0.80324  0.11512  0.67656  Biso   1.000  C
  H501     1.0000 0.78810  0.11320  0.67660  Biso   1.000  H
  C816     1.0000 0.81248  0.13254  0.66507  Biso   1.000  C
  H502     1.0000 0.80350  0.14230  0.65750  Biso   1.000  H
  C817     1.0000 0.83512  0.13540  0.66495  Biso   1.000  C
  C818     1.0000 0.84852  0.12083  0.67630  Biso   1.000  C
  H503     1.0000 0.86370  0.12270  0.67620  Biso   1.000  H
  C819     1.0000 0.83929  0.10341  0.68779  Biso   1.000  C
  H504     1.0000 0.84830  0.09370  0.69540  Biso   1.000  H
  O127     1.0000 0.75471  0.51716  0.22161  Biso   1.000  O
  O128     1.0000 0.78067  0.52485  0.25032  Biso   1.000  O
  C820     1.0000 0.76990  0.52813  0.23223  Biso   1.000  C
  C821     1.0000 0.78339  0.54703  0.21935  Biso   1.000  C
  C822     1.0000 0.77515  0.55543  0.19980  Biso   1.000  C
  H505     1.0000 0.76260  0.54930  0.19350  Biso   1.000  H
  C823     1.0000 0.78563  0.57294  0.18958  Biso   1.000  C
  H506     1.0000 0.78010  0.57860  0.17650  Biso   1.000  H
  C824     1.0000 0.80436  0.58205  0.19892  Biso   1.000  C
  C825     1.0000 0.81260  0.57365  0.21847  Biso   1.000  C
  H507     1.0000 0.82510  0.57970  0.22470  Biso   1.000  H
  C826     1.0000 0.80212  0.55614  0.22869  Biso   1.000  C
  H508     1.0000 0.80760  0.55050  0.24180  Biso   1.000  H
  C827     1.0000 0.81665  0.60055  0.18791  Biso   1.000  C
  C828     1.0000 0.80324  0.61512  0.17656  Biso   1.000  C
  H509     1.0000 0.78810  0.61320  0.17660  Biso   1.000  H
  C829     1.0000 0.81248  0.63254  0.16507  Biso   1.000  C
  H510     1.0000 0.80350  0.64230  0.15750  Biso   1.000  H
  C830     1.0000 0.83512  0.63540  0.16495  Biso   1.000  C
  C831     1.0000 0.84852  0.62083  0.17630  Biso   1.000  C
  H511     1.0000 0.86370  0.62270  0.17620  Biso   1.000  H
  C832     1.0000 0.83929  0.60341  0.18779  Biso   1.000  C
  H512     1.0000 0.84830  0.59370  0.19540  Biso   1.000  H
  O129     1.0000 0.01716  0.22161  0.25471  Biso   1.000  O
  O130     1.0000 0.02485  0.25032  0.28067  Biso   1.000  O
  C833     1.0000 0.02813  0.23223  0.26990  Biso   1.000  C
  C834     1.0000 0.04703  0.21935  0.28339  Biso   1.000  C
  C835     1.0000 0.05543  0.19980  0.27515  Biso   1.000  C
  H513     1.0000 0.04930  0.19350  0.26260  Biso   1.000  H
  C836     1.0000 0.07294  0.18958  0.28563  Biso   1.000  C
  H514     1.0000 0.07860  0.17650  0.28010  Biso   1.000  H
  C837     1.0000 0.08205  0.19892  0.30436  Biso   1.000  C
  C838     1.0000 0.07365  0.21847  0.31260  Biso   1.000  C
  H515     1.0000 0.07970  0.22470  0.32510  Biso   1.000  H
  C839     1.0000 0.05614  0.22869  0.30212  Biso   1.000  C
  H516     1.0000 0.05050  0.24180  0.30760  Biso   1.000  H
  C840     1.0000 0.10055  0.18791  0.31665  Biso   1.000  C
  C841     1.0000 0.11512  0.17656  0.30324  Biso   1.000  C
  H517     1.0000 0.11320  0.17660  0.28810  Biso   1.000  H
  C842     1.0000 0.13254  0.16507  0.31248  Biso   1.000  C
  H518     1.0000 0.14230  0.15750  0.30350  Biso   1.000  H
  C843     1.0000 0.13540  0.16495  0.33512  Biso   1.000  C
  C844     1.0000 0.12083  0.17630  0.34852  Biso   1.000  C
  H519     1.0000 0.12270  0.17620  0.36370  Biso   1.000  H
  C845     1.0000 0.10341  0.18779  0.33929  Biso   1.000  C
  H520     1.0000 0.09370  0.19540  0.34830  Biso   1.000  H
  O131     1.0000 0.01716  0.72161  0.75471  Biso   1.000  O
  O132     1.0000 0.02485  0.75032  0.78067  Biso   1.000  O
  C846     1.0000 0.02813  0.73223  0.76990  Biso   1.000  C
  C847     1.0000 0.04703  0.71935  0.78339  Biso   1.000  C
  C848     1.0000 0.05543  0.69980  0.77515  Biso   1.000  C
  H521     1.0000 0.04930  0.69350  0.76260  Biso   1.000  H
  C849     1.0000 0.07294  0.68958  0.78563  Biso   1.000  C
  H522     1.0000 0.07860  0.67650  0.78010  Biso   1.000  H
  C850     1.0000 0.08205  0.69892  0.80436  Biso   1.000  C
  C851     1.0000 0.07365  0.71847  0.81260  Biso   1.000  C
  H523     1.0000 0.07970  0.72470  0.82510  Biso   1.000  H
  C852     1.0000 0.05614  0.72869  0.80212  Biso   1.000  C
  H524     1.0000 0.05050  0.74180  0.80760  Biso   1.000  H
  C853     1.0000 0.10055  0.68791  0.81665  Biso   1.000  C
  C854     1.0000 0.11512  0.67656  0.80324  Biso   1.000  C
  H525     1.0000 0.11320  0.67660  0.78810  Biso   1.000  H
  C855     1.0000 0.13254  0.66507  0.81248  Biso   1.000  C
  H526     1.0000 0.14230  0.65750  0.80350  Biso   1.000  H
  C856     1.0000 0.13540  0.66495  0.83512  Biso   1.000  C
  C857     1.0000 0.12083  0.67630  0.84852  Biso   1.000  C
  H527     1.0000 0.12270  0.67620  0.86370  Biso   1.000  H
  C858     1.0000 0.10341  0.68779  0.83929  Biso   1.000  C
  H528     1.0000 0.09370  0.69540  0.84830  Biso   1.000  H
  O133     1.0000 0.51716  0.22161  0.75471  Biso   1.000  O
  O134     1.0000 0.52485  0.25032  0.78067  Biso   1.000  O
  C859     1.0000 0.52813  0.23223  0.76990  Biso   1.000  C
  C860     1.0000 0.54703  0.21935  0.78339  Biso   1.000  C
  C861     1.0000 0.55543  0.19980  0.77515  Biso   1.000  C
  H529     1.0000 0.54930  0.19350  0.76260  Biso   1.000  H
  C862     1.0000 0.57294  0.18958  0.78563  Biso   1.000  C
  H530     1.0000 0.57860  0.17650  0.78010  Biso   1.000  H
  C863     1.0000 0.58205  0.19892  0.80436  Biso   1.000  C
  C864     1.0000 0.57365  0.21847  0.81260  Biso   1.000  C
  H531     1.0000 0.57970  0.22470  0.82510  Biso   1.000  H
  C865     1.0000 0.55614  0.22869  0.80212  Biso   1.000  C
  H532     1.0000 0.55050  0.24180  0.80760  Biso   1.000  H
  C866     1.0000 0.60055  0.18791  0.81665  Biso   1.000  C
  C867     1.0000 0.61512  0.17656  0.80324  Biso   1.000  C
  H533     1.0000 0.61320  0.17660  0.78810  Biso   1.000  H
  C868     1.0000 0.63254  0.16507  0.81248  Biso   1.000  C
  H534     1.0000 0.64230  0.15750  0.80350  Biso   1.000  H
  C869     1.0000 0.63540  0.16495  0.83512  Biso   1.000  C
  C870     1.0000 0.62083  0.17630  0.84852  Biso   1.000  C
  H535     1.0000 0.62270  0.17620  0.86370  Biso   1.000  H
  C871     1.0000 0.60341  0.18779  0.83929  Biso   1.000  C
  H536     1.0000 0.59370  0.19540  0.84830  Biso   1.000  H
  O135     1.0000 0.51716  0.72161  0.25471  Biso   1.000  O
  O136     1.0000 0.52485  0.75032  0.28067  Biso   1.000  O
  C872     1.0000 0.52813  0.73223  0.26990  Biso   1.000  C
  C873     1.0000 0.54703  0.71935  0.28339  Biso   1.000  C
  C874     1.0000 0.55543  0.69980  0.27515  Biso   1.000  C
  H537     1.0000 0.54930  0.69350  0.26260  Biso   1.000  H
  C875     1.0000 0.57294  0.68958  0.28563  Biso   1.000  C
  H538     1.0000 0.57860  0.67650  0.28010  Biso   1.000  H
  C876     1.0000 0.58205  0.69892  0.30436  Biso   1.000  C
  C877     1.0000 0.57365  0.71847  0.31260  Biso   1.000  C
  H539     1.0000 0.57970  0.72470  0.32510  Biso   1.000  H
  C878     1.0000 0.55614  0.72869  0.30212  Biso   1.000  C
  H540     1.0000 0.55050  0.74180  0.30760  Biso   1.000  H
  C879     1.0000 0.60055  0.68791  0.31665  Biso   1.000  C
  C880     1.0000 0.61512  0.67656  0.30324  Biso   1.000  C
  H541     1.0000 0.61320  0.67660  0.28810  Biso   1.000  H
  C881     1.0000 0.63254  0.66507  0.31248  Biso   1.000  C
  H542     1.0000 0.64230  0.65750  0.30350  Biso   1.000  H
  C882     1.0000 0.63540  0.66495  0.33512  Biso   1.000  C
  C883     1.0000 0.62083  0.67630  0.34852  Biso   1.000  C
  H543     1.0000 0.62270  0.67620  0.36370  Biso   1.000  H
  C884     1.0000 0.60341  0.68779  0.33929  Biso   1.000  C
  H544     1.0000 0.59370  0.69540  0.34830  Biso   1.000  H
  O137     1.0000 0.98284  0.22161  0.74529  Biso   1.000  O
  O138     1.0000 0.97515  0.25032  0.71933  Biso   1.000  O
  C885     1.0000 0.97187  0.23223  0.73010  Biso   1.000  C
  C886     1.0000 0.95297  0.21935  0.71661  Biso   1.000  C
  C887     1.0000 0.94457  0.19980  0.72485  Biso   1.000  C
  H545     1.0000 0.95070  0.19350  0.73740  Biso   1.000  H
  C888     1.0000 0.92706  0.18958  0.71437  Biso   1.000  C
  H546     1.0000 0.92140  0.17650  0.71990  Biso   1.000  H
  C889     1.0000 0.91795  0.19892  0.69564  Biso   1.000  C
  C890     1.0000 0.92635  0.21847  0.68740  Biso   1.000  C
  H547     1.0000 0.92030  0.22470  0.67490  Biso   1.000  H
  C891     1.0000 0.94386  0.22869  0.69788  Biso   1.000  C
  H548     1.0000 0.94950  0.24180  0.69240  Biso   1.000  H
  C892     1.0000 0.89945  0.18791  0.68335  Biso   1.000  C
  C893     1.0000 0.88488  0.17656  0.69676  Biso   1.000  C
  H549     1.0000 0.88680  0.17660  0.71190  Biso   1.000  H
  C894     1.0000 0.86746  0.16507  0.68752  Biso   1.000  C
  H550     1.0000 0.85770  0.15750  0.69650  Biso   1.000  H
  C895     1.0000 0.86460  0.16495  0.66488  Biso   1.000  C
  C896     1.0000 0.87917  0.17630  0.65148  Biso   1.000  C
  H551     1.0000 0.87730  0.17620  0.63630  Biso   1.000  H
  C897     1.0000 0.89659  0.18779  0.66071  Biso   1.000  C
  H552     1.0000 0.90630  0.19540  0.65170  Biso   1.000  H
  O139     1.0000 0.98284  0.72161  0.24529  Biso   1.000  O
  O140     1.0000 0.97515  0.75032  0.21933  Biso   1.000  O
  C898     1.0000 0.97187  0.73223  0.23010  Biso   1.000  C
  C899     1.0000 0.95297  0.71935  0.21661  Biso   1.000  C
  C900     1.0000 0.94457  0.69980  0.22485  Biso   1.000  C
  H553     1.0000 0.95070  0.69350  0.23740  Biso   1.000  H
  C901     1.0000 0.92706  0.68958  0.21437  Biso   1.000  C
  H554     1.0000 0.92140  0.67650  0.21990  Biso   1.000  H
  C902     1.0000 0.91795  0.69892  0.19564  Biso   1.000  C
  C903     1.0000 0.92635  0.71847  0.18740  Biso   1.000  C
  H555     1.0000 0.92030  0.72470  0.17490  Biso   1.000  H
  C904     1.0000 0.94386  0.72869  0.19788  Biso   1.000  C
  H556     1.0000 0.94950  0.74180  0.19240  Biso   1.000  H
  C905     1.0000 0.89945  0.68791  0.18335  Biso   1.000  C
  C906     1.0000 0.88488  0.67656  0.19676  Biso   1.000  C
  H557     1.0000 0.88680  0.67660  0.21190  Biso   1.000  H
  C907     1.0000 0.86746  0.66507  0.18752  Biso   1.000  C
  H558     1.0000 0.85770  0.65750  0.19650  Biso   1.000  H
  C908     1.0000 0.86460  0.66495  0.16488  Biso   1.000  C
  C909     1.0000 0.87917  0.67630  0.15148  Biso   1.000  C
  H559     1.0000 0.87730  0.67620  0.13630  Biso   1.000  H
  C910     1.0000 0.89659  0.68779  0.16071  Biso   1.000  C
  H560     1.0000 0.90630  0.69540  0.15170  Biso   1.000  H
  O141     1.0000 0.48284  0.22161  0.24529  Biso   1.000  O
  O142     1.0000 0.47515  0.25032  0.21933  Biso   1.000  O
  C911     1.0000 0.47187  0.23223  0.23010  Biso   1.000  C
  C912     1.0000 0.45297  0.21935  0.21661  Biso   1.000  C
  C913     1.0000 0.44457  0.19980  0.22485  Biso   1.000  C
  H561     1.0000 0.45070  0.19350  0.23740  Biso   1.000  H
  C914     1.0000 0.42706  0.18958  0.21437  Biso   1.000  C
  H562     1.0000 0.42140  0.17650  0.21990  Biso   1.000  H
  C915     1.0000 0.41795  0.19892  0.19564  Biso   1.000  C
  C916     1.0000 0.42635  0.21847  0.18740  Biso   1.000  C
  H563     1.0000 0.42030  0.22470  0.17490  Biso   1.000  H
  C917     1.0000 0.44386  0.22869  0.19788  Biso   1.000  C
  H564     1.0000 0.44950  0.24180  0.19240  Biso   1.000  H
  C918     1.0000 0.39945  0.18791  0.18335  Biso   1.000  C
  C919     1.0000 0.38488  0.17656  0.19676  Biso   1.000  C
  H565     1.0000 0.38680  0.17660  0.21190  Biso   1.000  H
  C920     1.0000 0.36746  0.16507  0.18752  Biso   1.000  C
  H566     1.0000 0.35770  0.15750  0.19650  Biso   1.000  H
  C921     1.0000 0.36460  0.16495  0.16488  Biso   1.000  C
  C922     1.0000 0.37917  0.17630  0.15148  Biso   1.000  C
  H567     1.0000 0.37730  0.17620  0.13630  Biso   1.000  H
  C923     1.0000 0.39659  0.18779  0.16071  Biso   1.000  C
  H568     1.0000 0.40630  0.19540  0.15170  Biso   1.000  H
  O143     1.0000 0.48284  0.72161  0.74529  Biso   1.000  O
  O144     1.0000 0.47515  0.75032  0.71933  Biso   1.000  O
  C924     1.0000 0.47187  0.73223  0.73010  Biso   1.000  C
  C925     1.0000 0.45297  0.71935  0.71661  Biso   1.000  C
  C926     1.0000 0.44457  0.69980  0.72485  Biso   1.000  C
  H569     1.0000 0.45070  0.69350  0.73740  Biso   1.000  H
  C927     1.0000 0.42706  0.68958  0.71437  Biso   1.000  C
  H570     1.0000 0.42140  0.67650  0.71990  Biso   1.000  H
  C928     1.0000 0.41795  0.69892  0.69564  Biso   1.000  C
  C929     1.0000 0.42635  0.71847  0.68740  Biso   1.000  C
  H571     1.0000 0.42030  0.72470  0.67490  Biso   1.000  H
  C930     1.0000 0.44386  0.72869  0.69788  Biso   1.000  C
  H572     1.0000 0.44950  0.74180  0.69240  Biso   1.000  H
  C931     1.0000 0.39945  0.68791  0.68335  Biso   1.000  C
  C932     1.0000 0.38488  0.67656  0.69676  Biso   1.000  C
  H573     1.0000 0.38680  0.67660  0.71190  Biso   1.000  H
  C933     1.0000 0.36746  0.66507  0.68752  Biso   1.000  C
  H574     1.0000 0.35770  0.65750  0.69650  Biso   1.000  H
  C934     1.0000 0.36460  0.66495  0.66488  Biso   1.000  C
  C935     1.0000 0.37917  0.67630  0.65148  Biso   1.000  C
  H575     1.0000 0.37730  0.67620  0.63630  Biso   1.000  H
  C936     1.0000 0.39659  0.68779  0.66071  Biso   1.000  C
  H576     1.0000 0.40630  0.69540  0.65170  Biso   1.000  H
  O145     1.0000 0.98284  0.77839  0.25471  Biso   1.000  O
  O146     1.0000 0.97515  0.74968  0.28067  Biso   1.000  O
  C937     1.0000 0.97187  0.76777  0.26990  Biso   1.000  C
  C938     1.0000 0.95297  0.78065  0.28339  Biso   1.000  C
  C939     1.0000 0.94457  0.80020  0.27515  Biso   1.000  C
  H577     1.0000 0.95070  0.80650  0.26260  Biso   1.000  H
  C940     1.0000 0.92706  0.81042  0.28563  Biso   1.000  C
  H578     1.0000 0.92140  0.82350  0.28010  Biso   1.000  H
  C941     1.0000 0.91795  0.80108  0.30436  Biso   1.000  C
  C942     1.0000 0.92635  0.78153  0.31260  Biso   1.000  C
  H579     1.0000 0.92030  0.77530  0.32510  Biso   1.000  H
  C943     1.0000 0.94386  0.77131  0.30212  Biso   1.000  C
  H580     1.0000 0.94950  0.75820  0.30760  Biso   1.000  H
  C944     1.0000 0.89945  0.81209  0.31665  Biso   1.000  C
  C945     1.0000 0.88488  0.82344  0.30324  Biso   1.000  C
  H581     1.0000 0.88680  0.82340  0.28810  Biso   1.000  H
  C946     1.0000 0.86746  0.83493  0.31248  Biso   1.000  C
  H582     1.0000 0.85770  0.84250  0.30350  Biso   1.000  H
  C947     1.0000 0.86460  0.83505  0.33512  Biso   1.000  C
  C948     1.0000 0.87917  0.82370  0.34852  Biso   1.000  C
  H583     1.0000 0.87730  0.82380  0.36370  Biso   1.000  H
  C949     1.0000 0.89659  0.81221  0.33929  Biso   1.000  C
  H584     1.0000 0.90630  0.80460  0.34830  Biso   1.000  H
  O147     1.0000 0.98284  0.27839  0.75471  Biso   1.000  O
  O148     1.0000 0.97515  0.24968  0.78067  Biso   1.000  O
  C950     1.0000 0.97187  0.26777  0.76990  Biso   1.000  C
  C951     1.0000 0.95297  0.28065  0.78339  Biso   1.000  C
  C952     1.0000 0.94457  0.30020  0.77515  Biso   1.000  C
  H585     1.0000 0.95070  0.30650  0.76260  Biso   1.000  H
  C953     1.0000 0.92706  0.31042  0.78563  Biso   1.000  C
  H586     1.0000 0.92140  0.32350  0.78010  Biso   1.000  H
  C954     1.0000 0.91795  0.30108  0.80436  Biso   1.000  C
  C955     1.0000 0.92635  0.28153  0.81260  Biso   1.000  C
  H587     1.0000 0.92030  0.27530  0.82510  Biso   1.000  H
  C956     1.0000 0.94386  0.27131  0.80212  Biso   1.000  C
  H588     1.0000 0.94950  0.25820  0.80760  Biso   1.000  H
  C957     1.0000 0.89945  0.31209  0.81665  Biso   1.000  C
  C958     1.0000 0.88488  0.32344  0.80324  Biso   1.000  C
  H589     1.0000 0.88680  0.32340  0.78810  Biso   1.000  H
  C959     1.0000 0.86746  0.33493  0.81248  Biso   1.000  C
  H590     1.0000 0.85770  0.34250  0.80350  Biso   1.000  H
  C960     1.0000 0.86460  0.33505  0.83512  Biso   1.000  C
  C961     1.0000 0.87917  0.32370  0.84852  Biso   1.000  C
  H591     1.0000 0.87730  0.32380  0.86370  Biso   1.000  H
  C962     1.0000 0.89659  0.31221  0.83929  Biso   1.000  C
  H592     1.0000 0.90630  0.30460  0.84830  Biso   1.000  H
  O149     1.0000 0.48284  0.77839  0.75471  Biso   1.000  O
  O150     1.0000 0.47515  0.74968  0.78067  Biso   1.000  O
  C963     1.0000 0.47187  0.76777  0.76990  Biso   1.000  C
  C964     1.0000 0.45297  0.78065  0.78339  Biso   1.000  C
  C965     1.0000 0.44457  0.80020  0.77515  Biso   1.000  C
  H593     1.0000 0.45070  0.80650  0.76260  Biso   1.000  H
  C966     1.0000 0.42706  0.81042  0.78563  Biso   1.000  C
  H594     1.0000 0.42140  0.82350  0.78010  Biso   1.000  H
  C967     1.0000 0.41795  0.80108  0.80436  Biso   1.000  C
  C968     1.0000 0.42635  0.78153  0.81260  Biso   1.000  C
  H595     1.0000 0.42030  0.77530  0.82510  Biso   1.000  H
  C969     1.0000 0.44386  0.77131  0.80212  Biso   1.000  C
  H596     1.0000 0.44950  0.75820  0.80760  Biso   1.000  H
  C970     1.0000 0.39945  0.81209  0.81665  Biso   1.000  C
  C971     1.0000 0.38488  0.82344  0.80324  Biso   1.000  C
  H597     1.0000 0.38680  0.82340  0.78810  Biso   1.000  H
  C972     1.0000 0.36746  0.83493  0.81248  Biso   1.000  C
  H598     1.0000 0.35770  0.84250  0.80350  Biso   1.000  H
  C973     1.0000 0.36460  0.83505  0.83512  Biso   1.000  C
  C974     1.0000 0.37917  0.82370  0.84852  Biso   1.000  C
  H599     1.0000 0.37730  0.82380  0.86370  Biso   1.000  H
  C975     1.0000 0.39659  0.81221  0.83929  Biso   1.000  C
  H600     1.0000 0.40630  0.80460  0.84830  Biso   1.000  H
  O151     1.0000 0.48284  0.27839  0.25471  Biso   1.000  O
  O152     1.0000 0.47515  0.24968  0.28067  Biso   1.000  O
  C976     1.0000 0.47187  0.26777  0.26990  Biso   1.000  C
  C977     1.0000 0.45297  0.28065  0.28339  Biso   1.000  C
  C978     1.0000 0.44457  0.30020  0.27515  Biso   1.000  C
  H601     1.0000 0.45070  0.30650  0.26260  Biso   1.000  H
  C979     1.0000 0.42706  0.31042  0.28563  Biso   1.000  C
  H602     1.0000 0.42140  0.32350  0.28010  Biso   1.000  H
  C980     1.0000 0.41795  0.30108  0.30436  Biso   1.000  C
  C981     1.0000 0.42635  0.28153  0.31260  Biso   1.000  C
  H603     1.0000 0.42030  0.27530  0.32510  Biso   1.000  H
  C982     1.0000 0.44386  0.27131  0.30212  Biso   1.000  C
  H604     1.0000 0.44950  0.25820  0.30760  Biso   1.000  H
  C983     1.0000 0.39945  0.31209  0.31665  Biso   1.000  C
  C984     1.0000 0.38488  0.32344  0.30324  Biso   1.000  C
  H605     1.0000 0.38680  0.32340  0.28810  Biso   1.000  H
  C985     1.0000 0.36746  0.33493  0.31248  Biso   1.000  C
  H606     1.0000 0.35770  0.34250  0.30350  Biso   1.000  H
  C986     1.0000 0.36460  0.33505  0.33512  Biso   1.000  C
  C987     1.0000 0.37917  0.32370  0.34852  Biso   1.000  C
  H607     1.0000 0.37730  0.32380  0.36370  Biso   1.000  H
  C988     1.0000 0.39659  0.31221  0.33929  Biso   1.000  C
  H608     1.0000 0.40630  0.30460  0.34830  Biso   1.000  H
  O153     1.0000 0.01716  0.77839  0.74529  Biso   1.000  O
  O154     1.0000 0.02485  0.74968  0.71933  Biso   1.000  O
  C989     1.0000 0.02813  0.76777  0.73010  Biso   1.000  C
  C990     1.0000 0.04703  0.78065  0.71661  Biso   1.000  C
  C991     1.0000 0.05543  0.80020  0.72485  Biso   1.000  C
  H609     1.0000 0.04930  0.80650  0.73740  Biso   1.000  H
  C992     1.0000 0.07294  0.81042  0.71437  Biso   1.000  C
  H610     1.0000 0.07860  0.82350  0.71990  Biso   1.000  H
  C993     1.0000 0.08205  0.80108  0.69564  Biso   1.000  C
  C994     1.0000 0.07365  0.78153  0.68740  Biso   1.000  C
  H611     1.0000 0.07970  0.77530  0.67490  Biso   1.000  H
  C995     1.0000 0.05614  0.77131  0.69788  Biso   1.000  C
  H612     1.0000 0.05050  0.75820  0.69240  Biso   1.000  H
  C996     1.0000 0.10055  0.81209  0.68335  Biso   1.000  C
  C997     1.0000 0.11512  0.82344  0.69676  Biso   1.000  C
  H613     1.0000 0.11320  0.82340  0.71190  Biso   1.000  H
  C998     1.0000 0.13254  0.83493  0.68752  Biso   1.000  C
  H614     1.0000 0.14230  0.84250  0.69650  Biso   1.000  H
  C999     1.0000 0.13540  0.83505  0.66488  Biso   1.000  C
  C1000    1.0000 0.12083  0.82370  0.65148  Biso   1.000  C
  H615     1.0000 0.12270  0.82380  0.63630  Biso   1.000  H
  C1001    1.0000 0.10341  0.81221  0.66071  Biso   1.000  C
  H616     1.0000 0.09370  0.80460  0.65170  Biso   1.000  H
  O155     1.0000 0.01716  0.27839  0.24529  Biso   1.000  O
  O156     1.0000 0.02485  0.24968  0.21933  Biso   1.000  O
  C1002    1.0000 0.02813  0.26777  0.23010  Biso   1.000  C
  C1003    1.0000 0.04703  0.28065  0.21661  Biso   1.000  C
  C1004    1.0000 0.05543  0.30020  0.22485  Biso   1.000  C
  H617     1.0000 0.04930  0.30650  0.23740  Biso   1.000  H
  C1005    1.0000 0.07294  0.31042  0.21437  Biso   1.000  C
  H618     1.0000 0.07860  0.32350  0.21990  Biso   1.000  H
  C1006    1.0000 0.08205  0.30108  0.19564  Biso   1.000  C
  C1007    1.0000 0.07365  0.28153  0.18740  Biso   1.000  C
  H619     1.0000 0.07970  0.27530  0.17490  Biso   1.000  H
  C1008    1.0000 0.05614  0.27131  0.19788  Biso   1.000  C
  H620     1.0000 0.05050  0.25820  0.19240  Biso   1.000  H
  C1009    1.0000 0.10055  0.31209  0.18335  Biso   1.000  C
  C1010    1.0000 0.11512  0.32344  0.19676  Biso   1.000  C
  H621     1.0000 0.11320  0.32340  0.21190  Biso   1.000  H
  C1011    1.0000 0.13254  0.33493  0.18752  Biso   1.000  C
  H622     1.0000 0.14230  0.34250  0.19650  Biso   1.000  H
  C1012    1.0000 0.13540  0.33505  0.16488  Biso   1.000  C
  C1013    1.0000 0.12083  0.32370  0.15148  Biso   1.000  C
  H623     1.0000 0.12270  0.32380  0.13630  Biso   1.000  H
  C1014    1.0000 0.10341  0.31221  0.16071  Biso   1.000  C
  H624     1.0000 0.09370  0.30460  0.15170  Biso   1.000  H
  O157     1.0000 0.51716  0.77839  0.24529  Biso   1.000  O
  O158     1.0000 0.52485  0.74968  0.21933  Biso   1.000  O
  C1015    1.0000 0.52813  0.76777  0.23010  Biso   1.000  C
  C1016    1.0000 0.54703  0.78065  0.21661  Biso   1.000  C
  C1017    1.0000 0.55543  0.80020  0.22485  Biso   1.000  C
  H625     1.0000 0.54930  0.80650  0.23740  Biso   1.000  H
  C1018    1.0000 0.57294  0.81042  0.21437  Biso   1.000  C
  H626     1.0000 0.57860  0.82350  0.21990  Biso   1.000  H
  C1019    1.0000 0.58205  0.80108  0.19564  Biso   1.000  C
  C1020    1.0000 0.57365  0.78153  0.18740  Biso   1.000  C
  H627     1.0000 0.57970  0.77530  0.17490  Biso   1.000  H
  C1021    1.0000 0.55614  0.77131  0.19788  Biso   1.000  C
  H628     1.0000 0.55050  0.75820  0.19240  Biso   1.000  H
  C1022    1.0000 0.60055  0.81209  0.18335  Biso   1.000  C
  C1023    1.0000 0.61512  0.82344  0.19676  Biso   1.000  C
  H629     1.0000 0.61320  0.82340  0.21190  Biso   1.000  H
  C1024    1.0000 0.63254  0.83493  0.18752  Biso   1.000  C
  H630     1.0000 0.64230  0.84250  0.19650  Biso   1.000  H
  C1025    1.0000 0.63540  0.83505  0.16488  Biso   1.000  C
  C1026    1.0000 0.62083  0.82370  0.15148  Biso   1.000  C
  H631     1.0000 0.62270  0.82380  0.13630  Biso   1.000  H
  C1027    1.0000 0.60341  0.81221  0.16071  Biso   1.000  C
  H632     1.0000 0.59370  0.80460  0.15170  Biso   1.000  H
  O159     1.0000 0.51716  0.27839  0.74529  Biso   1.000  O
  O160     1.0000 0.52485  0.24968  0.71933  Biso   1.000  O
  C1028    1.0000 0.52813  0.26777  0.73010  Biso   1.000  C
  C1029    1.0000 0.54703  0.28065  0.71661  Biso   1.000  C
  C1030    1.0000 0.55543  0.30020  0.72485  Biso   1.000  C
  H633     1.0000 0.54930  0.30650  0.73740  Biso   1.000  H
  C1031    1.0000 0.57294  0.31042  0.71437  Biso   1.000  C
  H634     1.0000 0.57860  0.32350  0.71990  Biso   1.000  H
  C1032    1.0000 0.58205  0.30108  0.69564  Biso   1.000  C
  C1033    1.0000 0.57365  0.28153  0.68740  Biso   1.000  C
  H635     1.0000 0.57970  0.27530  0.67490  Biso   1.000  H
  C1034    1.0000 0.55614  0.27131  0.69788  Biso   1.000  C
  H636     1.0000 0.55050  0.25820  0.69240  Biso   1.000  H
  C1035    1.0000 0.60055  0.31209  0.68335  Biso   1.000  C
  C1036    1.0000 0.61512  0.32344  0.69676  Biso   1.000  C
  H637     1.0000 0.61320  0.32340  0.71190  Biso   1.000  H
  C1037    1.0000 0.63254  0.33493  0.68752  Biso   1.000  C
  H638     1.0000 0.64230  0.34250  0.69650  Biso   1.000  H
  C1038    1.0000 0.63540  0.33505  0.66488  Biso   1.000  C
  C1039    1.0000 0.62083  0.32370  0.65148  Biso   1.000  C
  H639     1.0000 0.62270  0.32380  0.63630  Biso   1.000  H
  C1040    1.0000 0.60341  0.31221  0.66071  Biso   1.000  C
  H640     1.0000 0.59370  0.30460  0.65170  Biso   1.000  H
  O161     1.0000 0.22161  0.74529  0.98284  Biso   1.000  O
  O162     1.0000 0.25032  0.71933  0.97515  Biso   1.000  O
  C1041    1.0000 0.23223  0.73010  0.97187  Biso   1.000  C
  C1042    1.0000 0.21935  0.71661  0.95297  Biso   1.000  C
  C1043    1.0000 0.19980  0.72485  0.94457  Biso   1.000  C
  H641     1.0000 0.19350  0.73740  0.95070  Biso   1.000  H
  C1044    1.0000 0.18958  0.71437  0.92706  Biso   1.000  C
  H642     1.0000 0.17650  0.71990  0.92140  Biso   1.000  H
  C1045    1.0000 0.19892  0.69564  0.91795  Biso   1.000  C
  C1046    1.0000 0.21847  0.68740  0.92635  Biso   1.000  C
  H643     1.0000 0.22470  0.67490  0.92030  Biso   1.000  H
  C1047    1.0000 0.22869  0.69788  0.94386  Biso   1.000  C
  H644     1.0000 0.24180  0.69240  0.94950  Biso   1.000  H
  C1048    1.0000 0.18791  0.68335  0.89945  Biso   1.000  C
  C1049    1.0000 0.17656  0.69676  0.88488  Biso   1.000  C
  H645     1.0000 0.17660  0.71190  0.88680  Biso   1.000  H
  C1050    1.0000 0.16507  0.68752  0.86746  Biso   1.000  C
  H646     1.0000 0.15750  0.69650  0.85770  Biso   1.000  H
  C1051    1.0000 0.16495  0.66488  0.86460  Biso   1.000  C
  C1052    1.0000 0.17630  0.65148  0.87917  Biso   1.000  C
  H647     1.0000 0.17620  0.63630  0.87730  Biso   1.000  H
  C1053    1.0000 0.18779  0.66071  0.89659  Biso   1.000  C
  H648     1.0000 0.19540  0.65170  0.90630  Biso   1.000  H
  O163     1.0000 0.22161  0.24529  0.48284  Biso   1.000  O
  O164     1.0000 0.25032  0.21933  0.47515  Biso   1.000  O
  C1054    1.0000 0.23223  0.23010  0.47187  Biso   1.000  C
  C1055    1.0000 0.21935  0.21661  0.45297  Biso   1.000  C
  C1056    1.0000 0.19980  0.22485  0.44457  Biso   1.000  C
  H649     1.0000 0.19350  0.23740  0.45070  Biso   1.000  H
  C1057    1.0000 0.18958  0.21437  0.42706  Biso   1.000  C
  H650     1.0000 0.17650  0.21990  0.42140  Biso   1.000  H
  C1058    1.0000 0.19892  0.19564  0.41795  Biso   1.000  C
  C1059    1.0000 0.21847  0.18740  0.42635  Biso   1.000  C
  H651     1.0000 0.22470  0.17490  0.42030  Biso   1.000  H
  C1060    1.0000 0.22869  0.19788  0.44386  Biso   1.000  C
  H652     1.0000 0.24180  0.19240  0.44950  Biso   1.000  H
  C1061    1.0000 0.18791  0.18335  0.39945  Biso   1.000  C
  C1062    1.0000 0.17656  0.19676  0.38488  Biso   1.000  C
  H653     1.0000 0.17660  0.21190  0.38680  Biso   1.000  H
  C1063    1.0000 0.16507  0.18752  0.36746  Biso   1.000  C
  H654     1.0000 0.15750  0.19650  0.35770  Biso   1.000  H
  C1064    1.0000 0.16495  0.16488  0.36460  Biso   1.000  C
  C1065    1.0000 0.17630  0.15148  0.37917  Biso   1.000  C
  H655     1.0000 0.17620  0.13630  0.37730  Biso   1.000  H
  C1066    1.0000 0.18779  0.16071  0.39659  Biso   1.000  C
  H656     1.0000 0.19540  0.15170  0.40630  Biso   1.000  H
  O165     1.0000 0.72161  0.74529  0.48284  Biso   1.000  O
  O166     1.0000 0.75032  0.71933  0.47515  Biso   1.000  O
  C1067    1.0000 0.73223  0.73010  0.47187  Biso   1.000  C
  C1068    1.0000 0.71935  0.71661  0.45297  Biso   1.000  C
  C1069    1.0000 0.69980  0.72485  0.44457  Biso   1.000  C
  H657     1.0000 0.69350  0.73740  0.45070  Biso   1.000  H
  C1070    1.0000 0.68958  0.71437  0.42706  Biso   1.000  C
  H658     1.0000 0.67650  0.71990  0.42140  Biso   1.000  H
  C1071    1.0000 0.69892  0.69564  0.41795  Biso   1.000  C
  C1072    1.0000 0.71847  0.68740  0.42635  Biso   1.000  C
  H659     1.0000 0.72470  0.67490  0.42030  Biso   1.000  H
  C1073    1.0000 0.72869  0.69788  0.44386  Biso   1.000  C
  H660     1.0000 0.74180  0.69240  0.44950  Biso   1.000  H
  C1074    1.0000 0.68791  0.68335  0.39945  Biso   1.000  C
  C1075    1.0000 0.67656  0.69676  0.38488  Biso   1.000  C
  H661     1.0000 0.67660  0.71190  0.38680  Biso   1.000  H
  C1076    1.0000 0.66507  0.68752  0.36746  Biso   1.000  C
  H662     1.0000 0.65750  0.69650  0.35770  Biso   1.000  H
  C1077    1.0000 0.66495  0.66488  0.36460  Biso   1.000  C
  C1078    1.0000 0.67630  0.65148  0.37917  Biso   1.000  C
  H663     1.0000 0.67620  0.63630  0.37730  Biso   1.000  H
  C1079    1.0000 0.68779  0.66071  0.39659  Biso   1.000  C
  H664     1.0000 0.69540  0.65170  0.40630  Biso   1.000  H
  O167     1.0000 0.72161  0.24529  0.98284  Biso   1.000  O
  O168     1.0000 0.75032  0.21933  0.97515  Biso   1.000  O
  C1080    1.0000 0.73223  0.23010  0.97187  Biso   1.000  C
  C1081    1.0000 0.71935  0.21661  0.95297  Biso   1.000  C
  C1082    1.0000 0.69980  0.22485  0.94457  Biso   1.000  C
  H665     1.0000 0.69350  0.23740  0.95070  Biso   1.000  H
  C1083    1.0000 0.68958  0.21437  0.92706  Biso   1.000  C
  H666     1.0000 0.67650  0.21990  0.92140  Biso   1.000  H
  C1084    1.0000 0.69892  0.19564  0.91795  Biso   1.000  C
  C1085    1.0000 0.71847  0.18740  0.92635  Biso   1.000  C
  H667     1.0000 0.72470  0.17490  0.92030  Biso   1.000  H
  C1086    1.0000 0.72869  0.19788  0.94386  Biso   1.000  C
  H668     1.0000 0.74180  0.19240  0.94950  Biso   1.000  H
  C1087    1.0000 0.68791  0.18335  0.89945  Biso   1.000  C
  C1088    1.0000 0.67656  0.19676  0.88488  Biso   1.000  C
  H669     1.0000 0.67660  0.21190  0.88680  Biso   1.000  H
  C1089    1.0000 0.66507  0.18752  0.86746  Biso   1.000  C
  H670     1.0000 0.65750  0.19650  0.85770  Biso   1.000  H
  C1090    1.0000 0.66495  0.16488  0.86460  Biso   1.000  C
  C1091    1.0000 0.67630  0.15148  0.87917  Biso   1.000  C
  H671     1.0000 0.67620  0.13630  0.87730  Biso   1.000  H
  C1092    1.0000 0.68779  0.16071  0.89659  Biso   1.000  C
  H672     1.0000 0.69540  0.15170  0.90630  Biso   1.000  H
  O169     1.0000 0.22161  0.25471  0.01716  Biso   1.000  O
  O170     1.0000 0.25032  0.28067  0.02485  Biso   1.000  O
  C1093    1.0000 0.23223  0.26990  0.02813  Biso   1.000  C
  C1094    1.0000 0.21935  0.28339  0.04703  Biso   1.000  C
  C1095    1.0000 0.19980  0.27515  0.05543  Biso   1.000  C
  H673     1.0000 0.19350  0.26260  0.04930  Biso   1.000  H
  C1096    1.0000 0.18958  0.28563  0.07294  Biso   1.000  C
  H674     1.0000 0.17650  0.28010  0.07860  Biso   1.000  H
  C1097    1.0000 0.19892  0.30436  0.08205  Biso   1.000  C
  C1098    1.0000 0.21847  0.31260  0.07365  Biso   1.000  C
  H675     1.0000 0.22470  0.32510  0.07970  Biso   1.000  H
  C1099    1.0000 0.22869  0.30212  0.05614  Biso   1.000  C
  H676     1.0000 0.24180  0.30760  0.05050  Biso   1.000  H
  C1100    1.0000 0.18791  0.31665  0.10055  Biso   1.000  C
  C1101    1.0000 0.17656  0.30324  0.11512  Biso   1.000  C
  H677     1.0000 0.17660  0.28810  0.11320  Biso   1.000  H
  C1102    1.0000 0.16507  0.31248  0.13254  Biso   1.000  C
  H678     1.0000 0.15750  0.30350  0.14230  Biso   1.000  H
  C1103    1.0000 0.16495  0.33512  0.13540  Biso   1.000  C
  C1104    1.0000 0.17630  0.34852  0.12083  Biso   1.000  C
  H679     1.0000 0.17620  0.36370  0.12270  Biso   1.000  H
  C1105    1.0000 0.18779  0.33929  0.10341  Biso   1.000  C
  H680     1.0000 0.19540  0.34830  0.09370  Biso   1.000  H
  O171     1.0000 0.22161  0.75471  0.51716  Biso   1.000  O
  O172     1.0000 0.25032  0.78067  0.52485  Biso   1.000  O
  C1106    1.0000 0.23223  0.76990  0.52813  Biso   1.000  C
  C1107    1.0000 0.21935  0.78339  0.54703  Biso   1.000  C
  C1108    1.0000 0.19980  0.77515  0.55543  Biso   1.000  C
  H681     1.0000 0.19350  0.76260  0.54930  Biso   1.000  H
  C1109    1.0000 0.18958  0.78563  0.57294  Biso   1.000  C
  H682     1.0000 0.17650  0.78010  0.57860  Biso   1.000  H
  C1110    1.0000 0.19892  0.80436  0.58205  Biso   1.000  C
  C1111    1.0000 0.21847  0.81260  0.57365  Biso   1.000  C
  H683     1.0000 0.22470  0.82510  0.57970  Biso   1.000  H
  C1112    1.0000 0.22869  0.80212  0.55614  Biso   1.000  C
  H684     1.0000 0.24180  0.80760  0.55050  Biso   1.000  H
  C1113    1.0000 0.18791  0.81665  0.60055  Biso   1.000  C
  C1114    1.0000 0.17656  0.80324  0.61512  Biso   1.000  C
  H685     1.0000 0.17660  0.78810  0.61320  Biso   1.000  H
  C1115    1.0000 0.16507  0.81248  0.63254  Biso   1.000  C
  H686     1.0000 0.15750  0.80350  0.64230  Biso   1.000  H
  C1116    1.0000 0.16495  0.83512  0.63540  Biso   1.000  C
  C1117    1.0000 0.17630  0.84852  0.62083  Biso   1.000  C
  H687     1.0000 0.17620  0.86370  0.62270  Biso   1.000  H
  C1118    1.0000 0.18779  0.83929  0.60341  Biso   1.000  C
  H688     1.0000 0.19540  0.84830  0.59370  Biso   1.000  H
  O173     1.0000 0.72161  0.25471  0.51716  Biso   1.000  O
  O174     1.0000 0.75032  0.28067  0.52485  Biso   1.000  O
  C1119    1.0000 0.73223  0.26990  0.52813  Biso   1.000  C
  C1120    1.0000 0.71935  0.28339  0.54703  Biso   1.000  C
  C1121    1.0000 0.69980  0.27515  0.55543  Biso   1.000  C
  H689     1.0000 0.69350  0.26260  0.54930  Biso   1.000  H
  C1122    1.0000 0.68958  0.28563  0.57294  Biso   1.000  C
  H690     1.0000 0.67650  0.28010  0.57860  Biso   1.000  H
  C1123    1.0000 0.69892  0.30436  0.58205  Biso   1.000  C
  C1124    1.0000 0.71847  0.31260  0.57365  Biso   1.000  C
  H691     1.0000 0.72470  0.32510  0.57970  Biso   1.000  H
  C1125    1.0000 0.72869  0.30212  0.55614  Biso   1.000  C
  H692     1.0000 0.74180  0.30760  0.55050  Biso   1.000  H
  C1126    1.0000 0.68791  0.31665  0.60055  Biso   1.000  C
  C1127    1.0000 0.67656  0.30324  0.61512  Biso   1.000  C
  H693     1.0000 0.67660  0.28810  0.61320  Biso   1.000  H
  C1128    1.0000 0.66507  0.31248  0.63254  Biso   1.000  C
  H694     1.0000 0.65750  0.30350  0.64230  Biso   1.000  H
  C1129    1.0000 0.66495  0.33512  0.63540  Biso   1.000  C
  C1130    1.0000 0.67630  0.34852  0.62083  Biso   1.000  C
  H695     1.0000 0.67620  0.36370  0.62270  Biso   1.000  H
  C1131    1.0000 0.68779  0.33929  0.60341  Biso   1.000  C
  H696     1.0000 0.69540  0.34830  0.59370  Biso   1.000  H
  O175     1.0000 0.72161  0.75471  0.01716  Biso   1.000  O
  O176     1.0000 0.75032  0.78067  0.02485  Biso   1.000  O
  C1132    1.0000 0.73223  0.76990  0.02813  Biso   1.000  C
  C1133    1.0000 0.71935  0.78339  0.04703  Biso   1.000  C
  C1134    1.0000 0.69980  0.77515  0.05543  Biso   1.000  C
  H697     1.0000 0.69350  0.76260  0.04930  Biso   1.000  H
  C1135    1.0000 0.68958  0.78563  0.07294  Biso   1.000  C
  H698     1.0000 0.67650  0.78010  0.07860  Biso   1.000  H
  C1136    1.0000 0.69892  0.80436  0.08205  Biso   1.000  C
  C1137    1.0000 0.71847  0.81260  0.07365  Biso   1.000  C
  H699     1.0000 0.72470  0.82510  0.07970  Biso   1.000  H
  C1138    1.0000 0.72869  0.80212  0.05614  Biso   1.000  C
  H700     1.0000 0.74180  0.80760  0.05050  Biso   1.000  H
  C1139    1.0000 0.68791  0.81665  0.10055  Biso   1.000  C
  C1140    1.0000 0.67656  0.80324  0.11512  Biso   1.000  C
  H701     1.0000 0.67660  0.78810  0.11320  Biso   1.000  H
  C1141    1.0000 0.66507  0.81248  0.13254  Biso   1.000  C
  H702     1.0000 0.65750  0.80350  0.14230  Biso   1.000  H
  C1142    1.0000 0.66495  0.83512  0.13540  Biso   1.000  C
  C1143    1.0000 0.67630  0.84852  0.12083  Biso   1.000  C
  H703     1.0000 0.67620  0.86370  0.12270  Biso   1.000  H
  C1144    1.0000 0.68779  0.83929  0.10341  Biso   1.000  C
  H704     1.0000 0.69540  0.84830  0.09370  Biso   1.000  H
  O177     1.0000 0.77839  0.74529  0.01716  Biso   1.000  O
  O178     1.0000 0.74968  0.71933  0.02485  Biso   1.000  O
  C1145    1.0000 0.76777  0.73010  0.02813  Biso   1.000  C
  C1146    1.0000 0.78065  0.71661  0.04703  Biso   1.000  C
  C1147    1.0000 0.80020  0.72485  0.05543  Biso   1.000  C
  H705     1.0000 0.80650  0.73740  0.04930  Biso   1.000  H
  C1148    1.0000 0.81042  0.71437  0.07294  Biso   1.000  C
  H706     1.0000 0.82350  0.71990  0.07860  Biso   1.000  H
  C1149    1.0000 0.80108  0.69564  0.08205  Biso   1.000  C
  C1150    1.0000 0.78153  0.68740  0.07365  Biso   1.000  C
  H707     1.0000 0.77530  0.67490  0.07970  Biso   1.000  H
  C1151    1.0000 0.77131  0.69788  0.05614  Biso   1.000  C
  H708     1.0000 0.75820  0.69240  0.05050  Biso   1.000  H
  C1152    1.0000 0.81209  0.68335  0.10055  Biso   1.000  C
  C1153    1.0000 0.82344  0.69676  0.11512  Biso   1.000  C
  H709     1.0000 0.82340  0.71190  0.11320  Biso   1.000  H
  C1154    1.0000 0.83493  0.68752  0.13254  Biso   1.000  C
  H710     1.0000 0.84250  0.69650  0.14230  Biso   1.000  H
  C1155    1.0000 0.83505  0.66488  0.13540  Biso   1.000  C
  C1156    1.0000 0.82370  0.65148  0.12083  Biso   1.000  C
  H711     1.0000 0.82380  0.63630  0.12270  Biso   1.000  H
  C1157    1.0000 0.81221  0.66071  0.10341  Biso   1.000  C
  H712     1.0000 0.80460  0.65170  0.09370  Biso   1.000  H
  O179     1.0000 0.77839  0.24529  0.51716  Biso   1.000  O
  O180     1.0000 0.74968  0.21933  0.52485  Biso   1.000  O
  C1158    1.0000 0.76777  0.23010  0.52813  Biso   1.000  C
  C1159    1.0000 0.78065  0.21661  0.54703  Biso   1.000  C
  C1160    1.0000 0.80020  0.22485  0.55543  Biso   1.000  C
  H713     1.0000 0.80650  0.23740  0.54930  Biso   1.000  H
  C1161    1.0000 0.81042  0.21437  0.57294  Biso   1.000  C
  H714     1.0000 0.82350  0.21990  0.57860  Biso   1.000  H
  C1162    1.0000 0.80108  0.19564  0.58205  Biso   1.000  C
  C1163    1.0000 0.78153  0.18740  0.57365  Biso   1.000  C
  H715     1.0000 0.77530  0.17490  0.57970  Biso   1.000  H
  C1164    1.0000 0.77131  0.19788  0.55614  Biso   1.000  C
  H716     1.0000 0.75820  0.19240  0.55050  Biso   1.000  H
  C1165    1.0000 0.81209  0.18335  0.60055  Biso   1.000  C
  C1166    1.0000 0.82344  0.19676  0.61512  Biso   1.000  C
  H717     1.0000 0.82340  0.21190  0.61320  Biso   1.000  H
  C1167    1.0000 0.83493  0.18752  0.63254  Biso   1.000  C
  H718     1.0000 0.84250  0.19650  0.64230  Biso   1.000  H
  C1168    1.0000 0.83505  0.16488  0.63540  Biso   1.000  C
  C1169    1.0000 0.82370  0.15148  0.62083  Biso   1.000  C
  H719     1.0000 0.82380  0.13630  0.62270  Biso   1.000  H
  C1170    1.0000 0.81221  0.16071  0.60341  Biso   1.000  C
  H720     1.0000 0.80460  0.15170  0.59370  Biso   1.000  H
  O181     1.0000 0.27839  0.74529  0.51716  Biso   1.000  O
  O182     1.0000 0.24968  0.71933  0.52485  Biso   1.000  O
  C1171    1.0000 0.26777  0.73010  0.52813  Biso   1.000  C
  C1172    1.0000 0.28065  0.71661  0.54703  Biso   1.000  C
  C1173    1.0000 0.30020  0.72485  0.55543  Biso   1.000  C
  H721     1.0000 0.30650  0.73740  0.54930  Biso   1.000  H
  C1174    1.0000 0.31042  0.71437  0.57294  Biso   1.000  C
  H722     1.0000 0.32350  0.71990  0.57860  Biso   1.000  H
  C1175    1.0000 0.30108  0.69564  0.58205  Biso   1.000  C
  C1176    1.0000 0.28153  0.68740  0.57365  Biso   1.000  C
  H723     1.0000 0.27530  0.67490  0.57970  Biso   1.000  H
  C1177    1.0000 0.27131  0.69788  0.55614  Biso   1.000  C
  H724     1.0000 0.25820  0.69240  0.55050  Biso   1.000  H
  C1178    1.0000 0.31209  0.68335  0.60055  Biso   1.000  C
  C1179    1.0000 0.32344  0.69676  0.61512  Biso   1.000  C
  H725     1.0000 0.32340  0.71190  0.61320  Biso   1.000  H
  C1180    1.0000 0.33493  0.68752  0.63254  Biso   1.000  C
  H726     1.0000 0.34250  0.69650  0.64230  Biso   1.000  H
  C1181    1.0000 0.33505  0.66488  0.63540  Biso   1.000  C
  C1182    1.0000 0.32370  0.65148  0.62083  Biso   1.000  C
  H727     1.0000 0.32380  0.63630  0.62270  Biso   1.000  H
  C1183    1.0000 0.31221  0.66071  0.60341  Biso   1.000  C
  H728     1.0000 0.30460  0.65170  0.59370  Biso   1.000  H
  O183     1.0000 0.27839  0.24529  0.01716  Biso   1.000  O
  O184     1.0000 0.24968  0.21933  0.02485  Biso   1.000  O
  C1184    1.0000 0.26777  0.23010  0.02813  Biso   1.000  C
  C1185    1.0000 0.28065  0.21661  0.04703  Biso   1.000  C
  C1186    1.0000 0.30020  0.22485  0.05543  Biso   1.000  C
  H729     1.0000 0.30650  0.23740  0.04930  Biso   1.000  H
  C1187    1.0000 0.31042  0.21437  0.07294  Biso   1.000  C
  H730     1.0000 0.32350  0.21990  0.07860  Biso   1.000  H
  C1188    1.0000 0.30108  0.19564  0.08205  Biso   1.000  C
  C1189    1.0000 0.28153  0.18740  0.07365  Biso   1.000  C
  H731     1.0000 0.27530  0.17490  0.07970  Biso   1.000  H
  C1190    1.0000 0.27131  0.19788  0.05614  Biso   1.000  C
  H732     1.0000 0.25820  0.19240  0.05050  Biso   1.000  H
  C1191    1.0000 0.31209  0.18335  0.10055  Biso   1.000  C
  C1192    1.0000 0.32344  0.19676  0.11512  Biso   1.000  C
  H733     1.0000 0.32340  0.21190  0.11320  Biso   1.000  H
  C1193    1.0000 0.33493  0.18752  0.13254  Biso   1.000  C
  H734     1.0000 0.34250  0.19650  0.14230  Biso   1.000  H
  C1194    1.0000 0.33505  0.16488  0.13540  Biso   1.000  C
  C1195    1.0000 0.32370  0.15148  0.12083  Biso   1.000  C
  H735     1.0000 0.32380  0.13630  0.12270  Biso   1.000  H
  C1196    1.0000 0.31221  0.16071  0.10341  Biso   1.000  C
  H736     1.0000 0.30460  0.15170  0.09370  Biso   1.000  H
  O185     1.0000 0.77839  0.25471  0.98284  Biso   1.000  O
  O186     1.0000 0.74968  0.28067  0.97515  Biso   1.000  O
  C1197    1.0000 0.76777  0.26990  0.97187  Biso   1.000  C
  C1198    1.0000 0.78065  0.28339  0.95297  Biso   1.000  C
  C1199    1.0000 0.80020  0.27515  0.94457  Biso   1.000  C
  H737     1.0000 0.80650  0.26260  0.95070  Biso   1.000  H
  C1200    1.0000 0.81042  0.28563  0.92706  Biso   1.000  C
  H738     1.0000 0.82350  0.28010  0.92140  Biso   1.000  H
  C1201    1.0000 0.80108  0.30436  0.91795  Biso   1.000  C
  C1202    1.0000 0.78153  0.31260  0.92635  Biso   1.000  C
  H739     1.0000 0.77530  0.32510  0.92030  Biso   1.000  H
  C1203    1.0000 0.77131  0.30212  0.94386  Biso   1.000  C
  H740     1.0000 0.75820  0.30760  0.94950  Biso   1.000  H
  C1204    1.0000 0.81209  0.31665  0.89945  Biso   1.000  C
  C1205    1.0000 0.82344  0.30324  0.88488  Biso   1.000  C
  H741     1.0000 0.82340  0.28810  0.88680  Biso   1.000  H
  C1206    1.0000 0.83493  0.31248  0.86746  Biso   1.000  C
  H742     1.0000 0.84250  0.30350  0.85770  Biso   1.000  H
  C1207    1.0000 0.83505  0.33512  0.86460  Biso   1.000  C
  C1208    1.0000 0.82370  0.34852  0.87917  Biso   1.000  C
  H743     1.0000 0.82380  0.36370  0.87730  Biso   1.000  H
  C1209    1.0000 0.81221  0.33929  0.89659  Biso   1.000  C
  H744     1.0000 0.80460  0.34830  0.90630  Biso   1.000  H
  O187     1.0000 0.77839  0.75471  0.48284  Biso   1.000  O
  O188     1.0000 0.74968  0.78067  0.47515  Biso   1.000  O
  C1210    1.0000 0.76777  0.76990  0.47187  Biso   1.000  C
  C1211    1.0000 0.78065  0.78339  0.45297  Biso   1.000  C
  C1212    1.0000 0.80020  0.77515  0.44457  Biso   1.000  C
  H745     1.0000 0.80650  0.76260  0.45070  Biso   1.000  H
  C1213    1.0000 0.81042  0.78563  0.42706  Biso   1.000  C
  H746     1.0000 0.82350  0.78010  0.42140  Biso   1.000  H
  C1214    1.0000 0.80108  0.80436  0.41795  Biso   1.000  C
  C1215    1.0000 0.78153  0.81260  0.42635  Biso   1.000  C
  H747     1.0000 0.77530  0.82510  0.42030  Biso   1.000  H
  C1216    1.0000 0.77131  0.80212  0.44386  Biso   1.000  C
  H748     1.0000 0.75820  0.80760  0.44950  Biso   1.000  H
  C1217    1.0000 0.81209  0.81665  0.39945  Biso   1.000  C
  C1218    1.0000 0.82344  0.80324  0.38488  Biso   1.000  C
  H749     1.0000 0.82340  0.78810  0.38680  Biso   1.000  H
  C1219    1.0000 0.83493  0.81248  0.36746  Biso   1.000  C
  H750     1.0000 0.84250  0.80350  0.35770  Biso   1.000  H
  C1220    1.0000 0.83505  0.83512  0.36460  Biso   1.000  C
  C1221    1.0000 0.82370  0.84852  0.37917  Biso   1.000  C
  H751     1.0000 0.82380  0.86370  0.37730  Biso   1.000  H
  C1222    1.0000 0.81221  0.83929  0.39659  Biso   1.000  C
  H752     1.0000 0.80460  0.84830  0.40630  Biso   1.000  H
  O189     1.0000 0.27839  0.25471  0.48284  Biso   1.000  O
  O190     1.0000 0.24968  0.28067  0.47515  Biso   1.000  O
  C1223    1.0000 0.26777  0.26990  0.47187  Biso   1.000  C
  C1224    1.0000 0.28065  0.28339  0.45297  Biso   1.000  C
  C1225    1.0000 0.30020  0.27515  0.44457  Biso   1.000  C
  H753     1.0000 0.30650  0.26260  0.45070  Biso   1.000  H
  C1226    1.0000 0.31042  0.28563  0.42706  Biso   1.000  C
  H754     1.0000 0.32350  0.28010  0.42140  Biso   1.000  H
  C1227    1.0000 0.30108  0.30436  0.41795  Biso   1.000  C
  C1228    1.0000 0.28153  0.31260  0.42635  Biso   1.000  C
  H755     1.0000 0.27530  0.32510  0.42030  Biso   1.000  H
  C1229    1.0000 0.27131  0.30212  0.44386  Biso   1.000  C
  H756     1.0000 0.25820  0.30760  0.44950  Biso   1.000  H
  C1230    1.0000 0.31209  0.31665  0.39945  Biso   1.000  C
  C1231    1.0000 0.32344  0.30324  0.38488  Biso   1.000  C
  H757     1.0000 0.32340  0.28810  0.38680  Biso   1.000  H
  C1232    1.0000 0.33493  0.31248  0.36746  Biso   1.000  C
  H758     1.0000 0.34250  0.30350  0.35770  Biso   1.000  H
  C1233    1.0000 0.33505  0.33512  0.36460  Biso   1.000  C
  C1234    1.0000 0.32370  0.34852  0.37917  Biso   1.000  C
  H759     1.0000 0.32380  0.36370  0.37730  Biso   1.000  H
  C1235    1.0000 0.31221  0.33929  0.39659  Biso   1.000  C
  H760     1.0000 0.30460  0.34830  0.40630  Biso   1.000  H
  O191     1.0000 0.27839  0.75471  0.98284  Biso   1.000  O
  O192     1.0000 0.24968  0.78067  0.97515  Biso   1.000  O
  C1236    1.0000 0.26777  0.76990  0.97187  Biso   1.000  C
  C1237    1.0000 0.28065  0.78339  0.95297  Biso   1.000  C
  C1238    1.0000 0.30020  0.77515  0.94457  Biso   1.000  C
  H761     1.0000 0.30650  0.76260  0.95070  Biso   1.000  H
  C1239    1.0000 0.31042  0.78563  0.92706  Biso   1.000  C
  H762     1.0000 0.32350  0.78010  0.92140  Biso   1.000  H
  C1240    1.0000 0.30108  0.80436  0.91795  Biso   1.000  C
  C1241    1.0000 0.28153  0.81260  0.92635  Biso   1.000  C
  H763     1.0000 0.27530  0.82510  0.92030  Biso   1.000  H
  C1242    1.0000 0.27131  0.80212  0.94386  Biso   1.000  C
  H764     1.0000 0.25820  0.80760  0.94950  Biso   1.000  H
  C1243    1.0000 0.31209  0.81665  0.89945  Biso   1.000  C
  C1244    1.0000 0.32344  0.80324  0.88488  Biso   1.000  C
  H765     1.0000 0.32340  0.78810  0.88680  Biso   1.000  H
  C1245    1.0000 0.33493  0.81248  0.86746  Biso   1.000  C
  H766     1.0000 0.34250  0.80350  0.85770  Biso   1.000  H
  C1246    1.0000 0.33505  0.83512  0.86460  Biso   1.000  C
  C1247    1.0000 0.32370  0.84852  0.87917  Biso   1.000  C
  H767     1.0000 0.32380  0.86370  0.87730  Biso   1.000  H
  C1248    1.0000 0.31221  0.83929  0.89659  Biso   1.000  C
  H768     1.0000 0.30460  0.84830  0.90630  Biso   1.000  H
  Cu1      1.0000 0.00000  0.76524  0.23476  Biso   1.000  Cu
  Cu2      1.0000 0.00000  0.26524  0.73476  Biso   1.000  Cu
  Cu3      1.0000 0.50000  0.76524  0.73476  Biso   1.000  Cu
  Cu4      1.0000 0.50000  0.26524  0.23476  Biso   1.000  Cu
  Cu5      1.0000 0.00000  0.23476  0.23476  Biso   1.000  Cu
  Cu6      1.0000 0.00000  0.73476  0.73476  Biso   1.000  Cu
  Cu7      1.0000 0.50000  0.23476  0.73476  Biso   1.000  Cu
  Cu8      1.0000 0.50000  0.73476  0.23476  Biso   1.000  Cu
  Cu9      1.0000 0.00000  0.76524  0.76524  Biso   1.000  Cu
  Cu10     1.0000 0.00000  0.26524  0.26524  Biso   1.000  Cu
  Cu11     1.0000 0.50000  0.76524  0.26524  Biso   1.000  Cu
  Cu12     1.0000 0.50000  0.26524  0.76524  Biso   1.000  Cu
  Cu13     1.0000 0.00000  0.23476  0.76524  Biso   1.000  Cu
  Cu14     1.0000 0.00000  0.73476  0.26524  Biso   1.000  Cu
  Cu15     1.0000 0.50000  0.23476  0.26524  Biso   1.000  Cu
  Cu16     1.0000 0.50000  0.73476  0.76524  Biso   1.000  Cu
  Cu17     1.0000 0.23476  0.00000  0.76524  Biso   1.000  Cu
  Cu18     1.0000 0.23476  0.50000  0.26524  Biso   1.000  Cu
  Cu19     1.0000 0.73476  0.00000  0.26524  Biso   1.000  Cu
  Cu20     1.0000 0.73476  0.50000  0.76524  Biso   1.000  Cu
  Cu21     1.0000 0.23476  0.00000  0.23476  Biso   1.000  Cu
  Cu22     1.0000 0.23476  0.50000  0.73476  Biso   1.000  Cu
  Cu23     1.0000 0.73476  0.00000  0.73476  Biso   1.000  Cu
  Cu24     1.0000 0.73476  0.50000  0.23476  Biso   1.000  Cu
  Cu25     1.0000 0.76524  0.00000  0.76524  Biso   1.000  Cu
  Cu26     1.0000 0.76524  0.50000  0.26524  Biso   1.000  Cu
  Cu27     1.0000 0.26524  0.00000  0.26524  Biso   1.000  Cu
  Cu28     1.0000 0.26524  0.50000  0.76524  Biso   1.000  Cu
  Cu29     1.0000 0.76524  0.00000  0.23476  Biso   1.000  Cu
  Cu30     1.0000 0.76524  0.50000  0.73476  Biso   1.000  Cu
  Cu31     1.0000 0.26524  0.00000  0.73476  Biso   1.000  Cu
  Cu32     1.0000 0.26524  0.50000  0.23476  Biso   1.000  Cu
  Cu33     1.0000 0.76524  0.23476  0.00000  Biso   1.000  Cu
  Cu34     1.0000 0.76524  0.73476  0.50000  Biso   1.000  Cu
  Cu35     1.0000 0.26524  0.23476  0.50000  Biso   1.000  Cu
  Cu36     1.0000 0.26524  0.73476  0.00000  Biso   1.000  Cu
  Cu37     1.0000 0.23476  0.23476  0.00000  Biso   1.000  Cu
  Cu38     1.0000 0.23476  0.73476  0.50000  Biso   1.000  Cu
  Cu39     1.0000 0.73476  0.23476  0.50000  Biso   1.000  Cu
  Cu40     1.0000 0.73476  0.73476  0.00000  Biso   1.000  Cu
  Cu41     1.0000 0.76524  0.76524  0.00000  Biso   1.000  Cu
  Cu42     1.0000 0.76524  0.26524  0.50000  Biso   1.000  Cu
  Cu43     1.0000 0.26524  0.76524  0.50000  Biso   1.000  Cu
  Cu44     1.0000 0.26524  0.26524  0.00000  Biso   1.000  Cu
  Cu45     1.0000 0.23476  0.76524  0.00000  Biso   1.000  Cu
  Cu46     1.0000 0.23476  0.26524  0.50000  Biso   1.000  Cu
  Cu47     1.0000 0.73476  0.76524  0.50000  Biso   1.000  Cu
  Cu48     1.0000 0.73476  0.26524  0.00000  Biso   1.000  Cu
  N1       1.0000 0.15502  0.65502  0.15502  Biso   1.000  N
  N2       1.0000 0.65502  0.65502  0.65502  Biso   1.000  N
  N3       1.0000 0.84498  0.34498  0.15502  Biso   1.000  N
  N4       1.0000 0.84498  0.84498  0.65502  Biso   1.000  N
  N5       1.0000 0.84498  0.65502  0.84498  Biso   1.000  N
  N6       1.0000 0.15502  0.34498  0.84498  Biso   1.000  N
  N7       1.0000 0.65502  0.84498  0.84498  Biso   1.000  N
  N8       1.0000 0.15502  0.15502  0.65502  Biso   1.000  N
  N9       1.0000 0.15502  0.84498  0.34498  Biso   1.000  N
  N10      1.0000 0.84498  0.15502  0.34498  Biso   1.000  N
  N11      1.0000 0.65502  0.15502  0.15502  Biso   1.000  N
  N12      1.0000 0.34498  0.15502  0.84498  Biso   1.000  N
  N13      1.0000 0.34498  0.65502  0.34498  Biso   1.000  N
  N14      1.0000 0.65502  0.34498  0.34498  Biso   1.000  N
  N15      1.0000 0.34498  0.84498  0.15502  Biso   1.000  N
  N16      1.0000 0.34498  0.34498  0.65502  Biso   1.000  N
  N17      1.0000 0.65502  0.15502  0.84498  Biso   1.000  N
  N18      1.0000 0.65502  0.65502  0.34498  Biso   1.000  N
  N19      1.0000 0.34498  0.84498  0.84498  Biso   1.000  N
  N20      1.0000 0.34498  0.34498  0.34498  Biso   1.000  N
  N21      1.0000 0.65502  0.84498  0.15502  Biso   1.000  N
  N22      1.0000 0.65502  0.34498  0.65502  Biso   1.000  N
  N23      1.0000 0.34498  0.15502  0.15502  Biso   1.000  N
  N24      1.0000 0.34498  0.65502  0.65502  Biso   1.000  N
  N25      1.0000 0.84498  0.15502  0.65502  Biso   1.000  N
  N26      1.0000 0.84498  0.65502  0.15502  Biso   1.000  N
  N27      1.0000 0.15502  0.15502  0.34498  Biso   1.000  N
  N28      1.0000 0.15502  0.65502  0.84498  Biso   1.000  N
  N29      1.0000 0.84498  0.84498  0.34498  Biso   1.000  N
  N30      1.0000 0.15502  0.84498  0.65502  Biso   1.000  N
  N31      1.0000 0.15502  0.34498  0.15502  Biso   1.000  N
  N32      1.0000 0.84498  0.34498  0.84498  Biso   1.000  N
