data_image0
_cell_length_a       35.4
_cell_length_b       35.4
_cell_length_c       35.4
_cell_angle_alpha    90
_cell_angle_beta     90
_cell_angle_gamma    90

_symmetry_space_group_name_H-M    "P 1"
_symmetry_int_tables_number       1

loop_
  _symmetry_equiv_pos_as_xyz
  'x, y, z'

loop_
  _atom_site_label
  _atom_site_occupancy
  _atom_site_fract_x
  _atom_site_fract_y
  _atom_site_fract_z
  _atom_site_thermal_displace_type
  _atom_site_B_iso_or_equiv
  _atom_site_type_symbol
  O1       1.0000 0.03940  0.53921  0.78158  Biso   1.000  O
  C1       1.0000 0.09580  0.59220  0.78380  Biso   1.000  C
  H1       1.0000 0.08760  0.58210  0.80660  Biso   1.000  H
  C2       1.0000 0.12400  0.61930  0.78310  Biso   1.000  C
  H2       1.0000 0.13510  0.62660  0.80580  Biso   1.000  H
  C3       1.0000 0.19260  0.66710  0.77790  Biso   1.000  C
  H3       1.0000 0.19290  0.64930  0.79720  Biso   1.000  H
  C4       1.0000 0.21980  0.69600  0.77680  Biso   1.000  C
  C5       1.0000 0.26950  0.65220  0.80620  Biso   1.000  C
  H4       1.0000 0.25030  0.63320  0.80770  Biso   1.000  H
  H5       1.0000 0.28360  0.64900  0.78330  Biso   1.000  H
  H6       1.0000 0.28620  0.65000  0.82750  Biso   1.000  H
  O2       1.0000 0.96060  0.46079  0.78158  Biso   1.000  O
  C6       1.0000 0.90420  0.40780  0.78380  Biso   1.000  C
  H7       1.0000 0.91240  0.41790  0.80660  Biso   1.000  H
  C7       1.0000 0.87600  0.38070  0.78310  Biso   1.000  C
  H8       1.0000 0.86490  0.37340  0.80580  Biso   1.000  H
  C8       1.0000 0.80740  0.33290  0.77790  Biso   1.000  C
  H9       1.0000 0.80710  0.35070  0.79720  Biso   1.000  H
  C9       1.0000 0.78020  0.30400  0.77680  Biso   1.000  C
  C10      1.0000 0.73050  0.34780  0.80620  Biso   1.000  C
  H10      1.0000 0.74970  0.36680  0.80770  Biso   1.000  H
  H11      1.0000 0.71640  0.35100  0.78330  Biso   1.000  H
  H12      1.0000 0.71380  0.35000  0.82750  Biso   1.000  H
  O3       1.0000 0.96060  0.53921  0.21842  Biso   1.000  O
  C11      1.0000 0.90420  0.59220  0.21620  Biso   1.000  C
  H13      1.0000 0.91240  0.58210  0.19340  Biso   1.000  H
  C12      1.0000 0.87600  0.61930  0.21690  Biso   1.000  C
  H14      1.0000 0.86490  0.62660  0.19420  Biso   1.000  H
  C13      1.0000 0.80740  0.66710  0.22210  Biso   1.000  C
  H15      1.0000 0.80710  0.64930  0.20280  Biso   1.000  H
  C14      1.0000 0.78020  0.69600  0.22320  Biso   1.000  C
  C15      1.0000 0.73050  0.65220  0.19380  Biso   1.000  C
  H16      1.0000 0.74970  0.63320  0.19230  Biso   1.000  H
  H17      1.0000 0.71640  0.64900  0.21670  Biso   1.000  H
  H18      1.0000 0.71380  0.65000  0.17250  Biso   1.000  H
  O4       1.0000 0.03940  0.46079  0.21842  Biso   1.000  O
  C16      1.0000 0.09580  0.40780  0.21620  Biso   1.000  C
  H19      1.0000 0.08760  0.41790  0.19340  Biso   1.000  H
  C17      1.0000 0.12400  0.38070  0.21690  Biso   1.000  C
  H20      1.0000 0.13510  0.37340  0.19420  Biso   1.000  H
  C18      1.0000 0.19260  0.33290  0.22210  Biso   1.000  C
  H21      1.0000 0.19290  0.35070  0.20280  Biso   1.000  H
  C19      1.0000 0.21980  0.30400  0.22320  Biso   1.000  C
  C20      1.0000 0.26950  0.34780  0.19380  Biso   1.000  C
  H22      1.0000 0.25030  0.36680  0.19230  Biso   1.000  H
  H23      1.0000 0.28360  0.35100  0.21670  Biso   1.000  H
  H24      1.0000 0.28620  0.35000  0.17250  Biso   1.000  H
  O5       1.0000 0.78158  0.03940  0.53921  Biso   1.000  O
  C21      1.0000 0.78380  0.09580  0.59220  Biso   1.000  C
  H25      1.0000 0.80660  0.08760  0.58210  Biso   1.000  H
  C22      1.0000 0.78310  0.12400  0.61930  Biso   1.000  C
  H26      1.0000 0.80580  0.13510  0.62660  Biso   1.000  H
  C23      1.0000 0.77790  0.19260  0.66710  Biso   1.000  C
  H27      1.0000 0.79720  0.19290  0.64930  Biso   1.000  H
  C24      1.0000 0.77680  0.21980  0.69600  Biso   1.000  C
  C25      1.0000 0.80620  0.26950  0.65220  Biso   1.000  C
  H28      1.0000 0.80770  0.25030  0.63320  Biso   1.000  H
  H29      1.0000 0.78330  0.28360  0.64900  Biso   1.000  H
  H30      1.0000 0.82750  0.28620  0.65000  Biso   1.000  H
  O6       1.0000 0.78158  0.96060  0.46079  Biso   1.000  O
  C26      1.0000 0.78380  0.90420  0.40780  Biso   1.000  C
  H31      1.0000 0.80660  0.91240  0.41790  Biso   1.000  H
  C27      1.0000 0.78310  0.87600  0.38070  Biso   1.000  C
  H32      1.0000 0.80580  0.86490  0.37340  Biso   1.000  H
  C28      1.0000 0.77790  0.80740  0.33290  Biso   1.000  C
  H33      1.0000 0.79720  0.80710  0.35070  Biso   1.000  H
  C29      1.0000 0.77680  0.78020  0.30400  Biso   1.000  C
  C30      1.0000 0.80620  0.73050  0.34780  Biso   1.000  C
  H34      1.0000 0.80770  0.74970  0.36680  Biso   1.000  H
  H35      1.0000 0.78330  0.71640  0.35100  Biso   1.000  H
  H36      1.0000 0.82750  0.71380  0.35000  Biso   1.000  H
  O7       1.0000 0.21842  0.96060  0.53921  Biso   1.000  O
  C31      1.0000 0.21620  0.90420  0.59220  Biso   1.000  C
  H37      1.0000 0.19340  0.91240  0.58210  Biso   1.000  H
  C32      1.0000 0.21690  0.87600  0.61930  Biso   1.000  C
  H38      1.0000 0.19420  0.86490  0.62660  Biso   1.000  H
  C33      1.0000 0.22210  0.80740  0.66710  Biso   1.000  C
  H39      1.0000 0.20280  0.80710  0.64930  Biso   1.000  H
  C34      1.0000 0.22320  0.78020  0.69600  Biso   1.000  C
  C35      1.0000 0.19380  0.73050  0.65220  Biso   1.000  C
  H40      1.0000 0.19230  0.74970  0.63320  Biso   1.000  H
  H41      1.0000 0.21670  0.71640  0.64900  Biso   1.000  H
  H42      1.0000 0.17250  0.71380  0.65000  Biso   1.000  H
  O8       1.0000 0.21842  0.03940  0.46079  Biso   1.000  O
  C36      1.0000 0.21620  0.09580  0.40780  Biso   1.000  C
  H43      1.0000 0.19340  0.08760  0.41790  Biso   1.000  H
  C37      1.0000 0.21690  0.12400  0.38070  Biso   1.000  C
  H44      1.0000 0.19420  0.13510  0.37340  Biso   1.000  H
  C38      1.0000 0.22210  0.19260  0.33290  Biso   1.000  C
  H45      1.0000 0.20280  0.19290  0.35070  Biso   1.000  H
  C39      1.0000 0.22320  0.21980  0.30400  Biso   1.000  C
  C40      1.0000 0.19380  0.26950  0.34780  Biso   1.000  C
  H46      1.0000 0.19230  0.25030  0.36680  Biso   1.000  H
  H47      1.0000 0.21670  0.28360  0.35100  Biso   1.000  H
  H48      1.0000 0.17250  0.28620  0.35000  Biso   1.000  H
  O9       1.0000 0.53921  0.78158  0.03940  Biso   1.000  O
  C41      1.0000 0.59220  0.78380  0.09580  Biso   1.000  C
  H49      1.0000 0.58210  0.80660  0.08760  Biso   1.000  H
  C42      1.0000 0.61930  0.78310  0.12400  Biso   1.000  C
  H50      1.0000 0.62660  0.80580  0.13510  Biso   1.000  H
  C43      1.0000 0.66710  0.77790  0.19260  Biso   1.000  C
  H51      1.0000 0.64930  0.79720  0.19290  Biso   1.000  H
  C44      1.0000 0.69600  0.77680  0.21980  Biso   1.000  C
  C45      1.0000 0.65220  0.80620  0.26950  Biso   1.000  C
  H52      1.0000 0.63320  0.80770  0.25030  Biso   1.000  H
  H53      1.0000 0.64900  0.78330  0.28360  Biso   1.000  H
  H54      1.0000 0.65000  0.82750  0.28620  Biso   1.000  H
  O10      1.0000 0.46079  0.78158  0.96060  Biso   1.000  O
  C46      1.0000 0.40780  0.78380  0.90420  Biso   1.000  C
  H55      1.0000 0.41790  0.80660  0.91240  Biso   1.000  H
  C47      1.0000 0.38070  0.78310  0.87600  Biso   1.000  C
  H56      1.0000 0.37340  0.80580  0.86490  Biso   1.000  H
  C48      1.0000 0.33290  0.77790  0.80740  Biso   1.000  C
  H57      1.0000 0.35070  0.79720  0.80710  Biso   1.000  H
  C49      1.0000 0.30400  0.77680  0.78020  Biso   1.000  C
  C50      1.0000 0.34780  0.80620  0.73050  Biso   1.000  C
  H58      1.0000 0.36680  0.80770  0.74970  Biso   1.000  H
  H59      1.0000 0.35100  0.78330  0.71640  Biso   1.000  H
  H60      1.0000 0.35000  0.82750  0.71380  Biso   1.000  H
  O11      1.0000 0.53921  0.21842  0.96060  Biso   1.000  O
  C51      1.0000 0.59220  0.21620  0.90420  Biso   1.000  C
  H61      1.0000 0.58210  0.19340  0.91240  Biso   1.000  H
  C52      1.0000 0.61930  0.21690  0.87600  Biso   1.000  C
  H62      1.0000 0.62660  0.19420  0.86490  Biso   1.000  H
  C53      1.0000 0.66710  0.22210  0.80740  Biso   1.000  C
  H63      1.0000 0.64930  0.20280  0.80710  Biso   1.000  H
  C54      1.0000 0.69600  0.22320  0.78020  Biso   1.000  C
  C55      1.0000 0.65220  0.19380  0.73050  Biso   1.000  C
  H64      1.0000 0.63320  0.19230  0.74970  Biso   1.000  H
  H65      1.0000 0.64900  0.21670  0.71640  Biso   1.000  H
  H66      1.0000 0.65000  0.17250  0.71380  Biso   1.000  H
  O12      1.0000 0.46079  0.21842  0.03940  Biso   1.000  O
  C56      1.0000 0.40780  0.21620  0.09580  Biso   1.000  C
  H67      1.0000 0.41790  0.19340  0.08760  Biso   1.000  H
  C57      1.0000 0.38070  0.21690  0.12400  Biso   1.000  C
  H68      1.0000 0.37340  0.19420  0.13510  Biso   1.000  H
  C58      1.0000 0.33290  0.22210  0.19260  Biso   1.000  C
  H69      1.0000 0.35070  0.20280  0.19290  Biso   1.000  H
  C59      1.0000 0.30400  0.22320  0.21980  Biso   1.000  C
  C60      1.0000 0.34780  0.19380  0.26950  Biso   1.000  C
  H70      1.0000 0.36680  0.19230  0.25030  Biso   1.000  H
  H71      1.0000 0.35100  0.21670  0.28360  Biso   1.000  H
  H72      1.0000 0.35000  0.17250  0.28620  Biso   1.000  H
  O13      1.0000 0.03921  0.53940  0.71842  Biso   1.000  O
  C61      1.0000 0.09220  0.59580  0.71620  Biso   1.000  C
  H73      1.0000 0.08210  0.58760  0.69340  Biso   1.000  H
  C62      1.0000 0.11930  0.62400  0.71690  Biso   1.000  C
  H74      1.0000 0.12660  0.63510  0.69420  Biso   1.000  H
  C63      1.0000 0.16710  0.69260  0.72210  Biso   1.000  C
  H75      1.0000 0.14930  0.69290  0.70280  Biso   1.000  H
  C64      1.0000 0.19600  0.71980  0.72320  Biso   1.000  C
  C65      1.0000 0.15220  0.76950  0.69380  Biso   1.000  C
  H76      1.0000 0.13320  0.75030  0.69230  Biso   1.000  H
  H77      1.0000 0.14900  0.78360  0.71670  Biso   1.000  H
  H78      1.0000 0.15000  0.78620  0.67250  Biso   1.000  H
  O14      1.0000 0.96079  0.46060  0.71842  Biso   1.000  O
  C66      1.0000 0.90780  0.40420  0.71620  Biso   1.000  C
  H79      1.0000 0.91790  0.41240  0.69340  Biso   1.000  H
  C67      1.0000 0.88070  0.37600  0.71690  Biso   1.000  C
  H80      1.0000 0.87340  0.36490  0.69420  Biso   1.000  H
  C68      1.0000 0.83290  0.30740  0.72210  Biso   1.000  C
  H81      1.0000 0.85070  0.30710  0.70280  Biso   1.000  H
  C69      1.0000 0.80400  0.28020  0.72320  Biso   1.000  C
  C70      1.0000 0.84780  0.23050  0.69380  Biso   1.000  C
  H82      1.0000 0.86680  0.24970  0.69230  Biso   1.000  H
  H83      1.0000 0.85100  0.21640  0.71670  Biso   1.000  H
  H84      1.0000 0.85000  0.21380  0.67250  Biso   1.000  H
  O15      1.0000 0.03921  0.46060  0.28158  Biso   1.000  O
  C71      1.0000 0.09220  0.40420  0.28380  Biso   1.000  C
  H85      1.0000 0.08210  0.41240  0.30660  Biso   1.000  H
  C72      1.0000 0.11930  0.37600  0.28310  Biso   1.000  C
  H86      1.0000 0.12660  0.36490  0.30580  Biso   1.000  H
  C73      1.0000 0.16710  0.30740  0.27790  Biso   1.000  C
  H87      1.0000 0.14930  0.30710  0.29720  Biso   1.000  H
  C74      1.0000 0.19600  0.28020  0.27680  Biso   1.000  C
  C75      1.0000 0.15220  0.23050  0.30620  Biso   1.000  C
  H88      1.0000 0.13320  0.24970  0.30770  Biso   1.000  H
  H89      1.0000 0.14900  0.21640  0.28330  Biso   1.000  H
  H90      1.0000 0.15000  0.21380  0.32750  Biso   1.000  H
  O16      1.0000 0.96079  0.53940  0.28158  Biso   1.000  O
  C76      1.0000 0.90780  0.59580  0.28380  Biso   1.000  C
  H91      1.0000 0.91790  0.58760  0.30660  Biso   1.000  H
  C77      1.0000 0.88070  0.62400  0.28310  Biso   1.000  C
  H92      1.0000 0.87340  0.63510  0.30580  Biso   1.000  H
  C78      1.0000 0.83290  0.69260  0.27790  Biso   1.000  C
  H93      1.0000 0.85070  0.69290  0.29720  Biso   1.000  H
  C79      1.0000 0.80400  0.71980  0.27680  Biso   1.000  C
  C80      1.0000 0.84780  0.76950  0.30620  Biso   1.000  C
  H94      1.0000 0.86680  0.75030  0.30770  Biso   1.000  H
  H95      1.0000 0.85100  0.78360  0.28330  Biso   1.000  H
  H96      1.0000 0.85000  0.78620  0.32750  Biso   1.000  H
  O17      1.0000 0.53940  0.28158  0.96079  Biso   1.000  O
  C81      1.0000 0.59580  0.28380  0.90780  Biso   1.000  C
  H97      1.0000 0.58760  0.30660  0.91790  Biso   1.000  H
  C82      1.0000 0.62400  0.28310  0.88070  Biso   1.000  C
  H98      1.0000 0.63510  0.30580  0.87340  Biso   1.000  H
  C83      1.0000 0.69260  0.27790  0.83290  Biso   1.000  C
  H99      1.0000 0.69290  0.29720  0.85070  Biso   1.000  H
  C84      1.0000 0.71980  0.27680  0.80400  Biso   1.000  C
  C85      1.0000 0.76950  0.30620  0.84780  Biso   1.000  C
  H100     1.0000 0.75030  0.30770  0.86680  Biso   1.000  H
  H101     1.0000 0.78360  0.28330  0.85100  Biso   1.000  H
  H102     1.0000 0.78620  0.32750  0.85000  Biso   1.000  H
  O18      1.0000 0.46060  0.28158  0.03921  Biso   1.000  O
  C86      1.0000 0.40420  0.28380  0.09220  Biso   1.000  C
  H103     1.0000 0.41240  0.30660  0.08210  Biso   1.000  H
  C87      1.0000 0.37600  0.28310  0.11930  Biso   1.000  C
  H104     1.0000 0.36490  0.30580  0.12660  Biso   1.000  H
  C88      1.0000 0.30740  0.27790  0.16710  Biso   1.000  C
  H105     1.0000 0.30710  0.29720  0.14930  Biso   1.000  H
  C89      1.0000 0.28020  0.27680  0.19600  Biso   1.000  C
  C90      1.0000 0.23050  0.30620  0.15220  Biso   1.000  C
  H106     1.0000 0.24970  0.30770  0.13320  Biso   1.000  H
  H107     1.0000 0.21640  0.28330  0.14900  Biso   1.000  H
  H108     1.0000 0.21380  0.32750  0.15000  Biso   1.000  H
  O19      1.0000 0.46060  0.71842  0.96079  Biso   1.000  O
  C91      1.0000 0.40420  0.71620  0.90780  Biso   1.000  C
  H109     1.0000 0.41240  0.69340  0.91790  Biso   1.000  H
  C92      1.0000 0.37600  0.71690  0.88070  Biso   1.000  C
  H110     1.0000 0.36490  0.69420  0.87340  Biso   1.000  H
  C93      1.0000 0.30740  0.72210  0.83290  Biso   1.000  C
  H111     1.0000 0.30710  0.70280  0.85070  Biso   1.000  H
  C94      1.0000 0.28020  0.72320  0.80400  Biso   1.000  C
  C95      1.0000 0.23050  0.69380  0.84780  Biso   1.000  C
  H112     1.0000 0.24970  0.69230  0.86680  Biso   1.000  H
  H113     1.0000 0.21640  0.71670  0.85100  Biso   1.000  H
  H114     1.0000 0.21380  0.67250  0.85000  Biso   1.000  H
  O20      1.0000 0.53940  0.71842  0.03921  Biso   1.000  O
  C96      1.0000 0.59580  0.71620  0.09220  Biso   1.000  C
  H115     1.0000 0.58760  0.69340  0.08210  Biso   1.000  H
  C97      1.0000 0.62400  0.71690  0.11930  Biso   1.000  C
  H116     1.0000 0.63510  0.69420  0.12660  Biso   1.000  H
  C98      1.0000 0.69260  0.72210  0.16710  Biso   1.000  C
  H117     1.0000 0.69290  0.70280  0.14930  Biso   1.000  H
  C99      1.0000 0.71980  0.72320  0.19600  Biso   1.000  C
  C100     1.0000 0.76950  0.69380  0.15220  Biso   1.000  C
  H118     1.0000 0.75030  0.69230  0.13320  Biso   1.000  H
  H119     1.0000 0.78360  0.71670  0.14900  Biso   1.000  H
  H120     1.0000 0.78620  0.67250  0.15000  Biso   1.000  H
  O21      1.0000 0.28158  0.03921  0.46060  Biso   1.000  O
  C101     1.0000 0.28380  0.09220  0.40420  Biso   1.000  C
  H121     1.0000 0.30660  0.08210  0.41240  Biso   1.000  H
  C102     1.0000 0.28310  0.11930  0.37600  Biso   1.000  C
  H122     1.0000 0.30580  0.12660  0.36490  Biso   1.000  H
  C103     1.0000 0.27790  0.16710  0.30740  Biso   1.000  C
  H123     1.0000 0.29720  0.14930  0.30710  Biso   1.000  H
  C104     1.0000 0.27680  0.19600  0.28020  Biso   1.000  C
  C105     1.0000 0.30620  0.15220  0.23050  Biso   1.000  C
  H124     1.0000 0.30770  0.13320  0.24970  Biso   1.000  H
  H125     1.0000 0.28330  0.14900  0.21640  Biso   1.000  H
  H126     1.0000 0.32750  0.15000  0.21380  Biso   1.000  H
  O22      1.0000 0.28158  0.96079  0.53940  Biso   1.000  O
  C106     1.0000 0.28380  0.90780  0.59580  Biso   1.000  C
  H127     1.0000 0.30660  0.91790  0.58760  Biso   1.000  H
  C107     1.0000 0.28310  0.88070  0.62400  Biso   1.000  C
  H128     1.0000 0.30580  0.87340  0.63510  Biso   1.000  H
  C108     1.0000 0.27790  0.83290  0.69260  Biso   1.000  C
  H129     1.0000 0.29720  0.85070  0.69290  Biso   1.000  H
  C109     1.0000 0.27680  0.80400  0.71980  Biso   1.000  C
  C110     1.0000 0.30620  0.84780  0.76950  Biso   1.000  C
  H130     1.0000 0.30770  0.86680  0.75030  Biso   1.000  H
  H131     1.0000 0.28330  0.85100  0.78360  Biso   1.000  H
  H132     1.0000 0.32750  0.85000  0.78620  Biso   1.000  H
  O23      1.0000 0.71842  0.03921  0.53940  Biso   1.000  O
  C111     1.0000 0.71620  0.09220  0.59580  Biso   1.000  C
  H133     1.0000 0.69340  0.08210  0.58760  Biso   1.000  H
  C112     1.0000 0.71690  0.11930  0.62400  Biso   1.000  C
  H134     1.0000 0.69420  0.12660  0.63510  Biso   1.000  H
  C113     1.0000 0.72210  0.16710  0.69260  Biso   1.000  C
  H135     1.0000 0.70280  0.14930  0.69290  Biso   1.000  H
  C114     1.0000 0.72320  0.19600  0.71980  Biso   1.000  C
  C115     1.0000 0.69380  0.15220  0.76950  Biso   1.000  C
  H136     1.0000 0.69230  0.13320  0.75030  Biso   1.000  H
  H137     1.0000 0.71670  0.14900  0.78360  Biso   1.000  H
  H138     1.0000 0.67250  0.15000  0.78620  Biso   1.000  H
  O24      1.0000 0.71842  0.96079  0.46060  Biso   1.000  O
  C116     1.0000 0.71620  0.90780  0.40420  Biso   1.000  C
  H139     1.0000 0.69340  0.91790  0.41240  Biso   1.000  H
  C117     1.0000 0.71690  0.88070  0.37600  Biso   1.000  C
  H140     1.0000 0.69420  0.87340  0.36490  Biso   1.000  H
  C118     1.0000 0.72210  0.83290  0.30740  Biso   1.000  C
  H141     1.0000 0.70280  0.85070  0.30710  Biso   1.000  H
  C119     1.0000 0.72320  0.80400  0.28020  Biso   1.000  C
  C120     1.0000 0.69380  0.84780  0.23050  Biso   1.000  C
  H142     1.0000 0.69230  0.86680  0.24970  Biso   1.000  H
  H143     1.0000 0.71670  0.85100  0.21640  Biso   1.000  H
  H144     1.0000 0.67250  0.85000  0.21380  Biso   1.000  H
  O25      1.0000 0.96060  0.46079  0.21842  Biso   1.000  O
  C121     1.0000 0.90420  0.40780  0.21620  Biso   1.000  C
  H145     1.0000 0.91240  0.41790  0.19340  Biso   1.000  H
  C122     1.0000 0.87600  0.38070  0.21690  Biso   1.000  C
  H146     1.0000 0.86490  0.37340  0.19420  Biso   1.000  H
  C123     1.0000 0.80740  0.33290  0.22210  Biso   1.000  C
  H147     1.0000 0.80710  0.35070  0.20280  Biso   1.000  H
  C124     1.0000 0.78020  0.30400  0.22320  Biso   1.000  C
  C125     1.0000 0.73050  0.34780  0.19380  Biso   1.000  C
  H148     1.0000 0.74970  0.36680  0.19230  Biso   1.000  H
  H149     1.0000 0.71640  0.35100  0.21670  Biso   1.000  H
  H150     1.0000 0.71380  0.35000  0.17250  Biso   1.000  H
  O26      1.0000 0.03940  0.53921  0.21842  Biso   1.000  O
  C126     1.0000 0.09580  0.59220  0.21620  Biso   1.000  C
  H151     1.0000 0.08760  0.58210  0.19340  Biso   1.000  H
  C127     1.0000 0.12400  0.61930  0.21690  Biso   1.000  C
  H152     1.0000 0.13510  0.62660  0.19420  Biso   1.000  H
  C128     1.0000 0.19260  0.66710  0.22210  Biso   1.000  C
  H153     1.0000 0.19290  0.64930  0.20280  Biso   1.000  H
  C129     1.0000 0.21980  0.69600  0.22320  Biso   1.000  C
  C130     1.0000 0.26950  0.65220  0.19380  Biso   1.000  C
  H154     1.0000 0.25030  0.63320  0.19230  Biso   1.000  H
  H155     1.0000 0.28360  0.64900  0.21670  Biso   1.000  H
  H156     1.0000 0.28620  0.65000  0.17250  Biso   1.000  H
  O27      1.0000 0.03940  0.46079  0.78158  Biso   1.000  O
  C131     1.0000 0.09580  0.40780  0.78380  Biso   1.000  C
  H157     1.0000 0.08760  0.41790  0.80660  Biso   1.000  H
  C132     1.0000 0.12400  0.38070  0.78310  Biso   1.000  C
  H158     1.0000 0.13510  0.37340  0.80580  Biso   1.000  H
  C133     1.0000 0.19260  0.33290  0.77790  Biso   1.000  C
  H159     1.0000 0.19290  0.35070  0.79720  Biso   1.000  H
  C134     1.0000 0.21980  0.30400  0.77680  Biso   1.000  C
  C135     1.0000 0.26950  0.34780  0.80620  Biso   1.000  C
  H160     1.0000 0.25030  0.36680  0.80770  Biso   1.000  H
  H161     1.0000 0.28360  0.35100  0.78330  Biso   1.000  H
  H162     1.0000 0.28620  0.35000  0.82750  Biso   1.000  H
  O28      1.0000 0.96060  0.53921  0.78158  Biso   1.000  O
  C136     1.0000 0.90420  0.59220  0.78380  Biso   1.000  C
  H163     1.0000 0.91240  0.58210  0.80660  Biso   1.000  H
  C137     1.0000 0.87600  0.61930  0.78310  Biso   1.000  C
  H164     1.0000 0.86490  0.62660  0.80580  Biso   1.000  H
  C138     1.0000 0.80740  0.66710  0.77790  Biso   1.000  C
  H165     1.0000 0.80710  0.64930  0.79720  Biso   1.000  H
  C139     1.0000 0.78020  0.69600  0.77680  Biso   1.000  C
  C140     1.0000 0.73050  0.65220  0.80620  Biso   1.000  C
  H166     1.0000 0.74970  0.63320  0.80770  Biso   1.000  H
  H167     1.0000 0.71640  0.64900  0.78330  Biso   1.000  H
  H168     1.0000 0.71380  0.65000  0.82750  Biso   1.000  H
  O29      1.0000 0.21842  0.96060  0.46079  Biso   1.000  O
  C141     1.0000 0.21620  0.90420  0.40780  Biso   1.000  C
  H169     1.0000 0.19340  0.91240  0.41790  Biso   1.000  H
  C142     1.0000 0.21690  0.87600  0.38070  Biso   1.000  C
  H170     1.0000 0.19420  0.86490  0.37340  Biso   1.000  H
  C143     1.0000 0.22210  0.80740  0.33290  Biso   1.000  C
  H171     1.0000 0.20280  0.80710  0.35070  Biso   1.000  H
  C144     1.0000 0.22320  0.78020  0.30400  Biso   1.000  C
  C145     1.0000 0.19380  0.73050  0.34780  Biso   1.000  C
  H172     1.0000 0.19230  0.74970  0.36680  Biso   1.000  H
  H173     1.0000 0.21670  0.71640  0.35100  Biso   1.000  H
  H174     1.0000 0.17250  0.71380  0.35000  Biso   1.000  H
  O30      1.0000 0.21842  0.03940  0.53921  Biso   1.000  O
  C146     1.0000 0.21620  0.09580  0.59220  Biso   1.000  C
  H175     1.0000 0.19340  0.08760  0.58210  Biso   1.000  H
  C147     1.0000 0.21690  0.12400  0.61930  Biso   1.000  C
  H176     1.0000 0.19420  0.13510  0.62660  Biso   1.000  H
  C148     1.0000 0.22210  0.19260  0.66710  Biso   1.000  C
  H177     1.0000 0.20280  0.19290  0.64930  Biso   1.000  H
  C149     1.0000 0.22320  0.21980  0.69600  Biso   1.000  C
  C150     1.0000 0.19380  0.26950  0.65220  Biso   1.000  C
  H178     1.0000 0.19230  0.25030  0.63320  Biso   1.000  H
  H179     1.0000 0.21670  0.28360  0.64900  Biso   1.000  H
  H180     1.0000 0.17250  0.28620  0.65000  Biso   1.000  H
  O31      1.0000 0.78158  0.03940  0.46079  Biso   1.000  O
  C151     1.0000 0.78380  0.09580  0.40780  Biso   1.000  C
  H181     1.0000 0.80660  0.08760  0.41790  Biso   1.000  H
  C152     1.0000 0.78310  0.12400  0.38070  Biso   1.000  C
  H182     1.0000 0.80580  0.13510  0.37340  Biso   1.000  H
  C153     1.0000 0.77790  0.19260  0.33290  Biso   1.000  C
  H183     1.0000 0.79720  0.19290  0.35070  Biso   1.000  H
  C154     1.0000 0.77680  0.21980  0.30400  Biso   1.000  C
  C155     1.0000 0.80620  0.26950  0.34780  Biso   1.000  C
  H184     1.0000 0.80770  0.25030  0.36680  Biso   1.000  H
  H185     1.0000 0.78330  0.28360  0.35100  Biso   1.000  H
  H186     1.0000 0.82750  0.28620  0.35000  Biso   1.000  H
  O32      1.0000 0.78158  0.96060  0.53921  Biso   1.000  O
  C156     1.0000 0.78380  0.90420  0.59220  Biso   1.000  C
  H187     1.0000 0.80660  0.91240  0.58210  Biso   1.000  H
  C157     1.0000 0.78310  0.87600  0.61930  Biso   1.000  C
  H188     1.0000 0.80580  0.86490  0.62660  Biso   1.000  H
  C158     1.0000 0.77790  0.80740  0.66710  Biso   1.000  C
  H189     1.0000 0.79720  0.80710  0.64930  Biso   1.000  H
  C159     1.0000 0.77680  0.78020  0.69600  Biso   1.000  C
  C160     1.0000 0.80620  0.73050  0.65220  Biso   1.000  C
  H190     1.0000 0.80770  0.74970  0.63320  Biso   1.000  H
  H191     1.0000 0.78330  0.71640  0.64900  Biso   1.000  H
  H192     1.0000 0.82750  0.71380  0.65000  Biso   1.000  H
  O33      1.0000 0.46079  0.21842  0.96060  Biso   1.000  O
  C161     1.0000 0.40780  0.21620  0.90420  Biso   1.000  C
  H193     1.0000 0.41790  0.19340  0.91240  Biso   1.000  H
  C162     1.0000 0.38070  0.21690  0.87600  Biso   1.000  C
  H194     1.0000 0.37340  0.19420  0.86490  Biso   1.000  H
  C163     1.0000 0.33290  0.22210  0.80740  Biso   1.000  C
  H195     1.0000 0.35070  0.20280  0.80710  Biso   1.000  H
  C164     1.0000 0.30400  0.22320  0.78020  Biso   1.000  C
  C165     1.0000 0.34780  0.19380  0.73050  Biso   1.000  C
  H196     1.0000 0.36680  0.19230  0.74970  Biso   1.000  H
  H197     1.0000 0.35100  0.21670  0.71640  Biso   1.000  H
  H198     1.0000 0.35000  0.17250  0.71380  Biso   1.000  H
  O34      1.0000 0.53921  0.21842  0.03940  Biso   1.000  O
  C166     1.0000 0.59220  0.21620  0.09580  Biso   1.000  C
  H199     1.0000 0.58210  0.19340  0.08760  Biso   1.000  H
  C167     1.0000 0.61930  0.21690  0.12400  Biso   1.000  C
  H200     1.0000 0.62660  0.19420  0.13510  Biso   1.000  H
  C168     1.0000 0.66710  0.22210  0.19260  Biso   1.000  C
  H201     1.0000 0.64930  0.20280  0.19290  Biso   1.000  H
  C169     1.0000 0.69600  0.22320  0.21980  Biso   1.000  C
  C170     1.0000 0.65220  0.19380  0.26950  Biso   1.000  C
  H202     1.0000 0.63320  0.19230  0.25030  Biso   1.000  H
  H203     1.0000 0.64900  0.21670  0.28360  Biso   1.000  H
  H204     1.0000 0.65000  0.17250  0.28620  Biso   1.000  H
  O35      1.0000 0.46079  0.78158  0.03940  Biso   1.000  O
  C171     1.0000 0.40780  0.78380  0.09580  Biso   1.000  C
  H205     1.0000 0.41790  0.80660  0.08760  Biso   1.000  H
  C172     1.0000 0.38070  0.78310  0.12400  Biso   1.000  C
  H206     1.0000 0.37340  0.80580  0.13510  Biso   1.000  H
  C173     1.0000 0.33290  0.77790  0.19260  Biso   1.000  C
  H207     1.0000 0.35070  0.79720  0.19290  Biso   1.000  H
  C174     1.0000 0.30400  0.77680  0.21980  Biso   1.000  C
  C175     1.0000 0.34780  0.80620  0.26950  Biso   1.000  C
  H208     1.0000 0.36680  0.80770  0.25030  Biso   1.000  H
  H209     1.0000 0.35100  0.78330  0.28360  Biso   1.000  H
  H210     1.0000 0.35000  0.82750  0.28620  Biso   1.000  H
  O36      1.0000 0.53921  0.78158  0.96060  Biso   1.000  O
  C176     1.0000 0.59220  0.78380  0.90420  Biso   1.000  C
  H211     1.0000 0.58210  0.80660  0.91240  Biso   1.000  H
  C177     1.0000 0.61930  0.78310  0.87600  Biso   1.000  C
  H212     1.0000 0.62660  0.80580  0.86490  Biso   1.000  H
  C178     1.0000 0.66710  0.77790  0.80740  Biso   1.000  C
  H213     1.0000 0.64930  0.79720  0.80710  Biso   1.000  H
  C179     1.0000 0.69600  0.77680  0.78020  Biso   1.000  C
  C180     1.0000 0.65220  0.80620  0.73050  Biso   1.000  C
  H214     1.0000 0.63320  0.80770  0.74970  Biso   1.000  H
  H215     1.0000 0.64900  0.78330  0.71640  Biso   1.000  H
  H216     1.0000 0.65000  0.82750  0.71380  Biso   1.000  H
  O37      1.0000 0.96079  0.46060  0.28158  Biso   1.000  O
  C181     1.0000 0.90780  0.40420  0.28380  Biso   1.000  C
  H217     1.0000 0.91790  0.41240  0.30660  Biso   1.000  H
  C182     1.0000 0.88070  0.37600  0.28310  Biso   1.000  C
  H218     1.0000 0.87340  0.36490  0.30580  Biso   1.000  H
  C183     1.0000 0.83290  0.30740  0.27790  Biso   1.000  C
  H219     1.0000 0.85070  0.30710  0.29720  Biso   1.000  H
  C184     1.0000 0.80400  0.28020  0.27680  Biso   1.000  C
  C185     1.0000 0.84780  0.23050  0.30620  Biso   1.000  C
  H220     1.0000 0.86680  0.24970  0.30770  Biso   1.000  H
  H221     1.0000 0.85100  0.21640  0.28330  Biso   1.000  H
  H222     1.0000 0.85000  0.21380  0.32750  Biso   1.000  H
  O38      1.0000 0.03921  0.53940  0.28158  Biso   1.000  O
  C186     1.0000 0.09220  0.59580  0.28380  Biso   1.000  C
  H223     1.0000 0.08210  0.58760  0.30660  Biso   1.000  H
  C187     1.0000 0.11930  0.62400  0.28310  Biso   1.000  C
  H224     1.0000 0.12660  0.63510  0.30580  Biso   1.000  H
  C188     1.0000 0.16710  0.69260  0.27790  Biso   1.000  C
  H225     1.0000 0.14930  0.69290  0.29720  Biso   1.000  H
  C189     1.0000 0.19600  0.71980  0.27680  Biso   1.000  C
  C190     1.0000 0.15220  0.76950  0.30620  Biso   1.000  C
  H226     1.0000 0.13320  0.75030  0.30770  Biso   1.000  H
  H227     1.0000 0.14900  0.78360  0.28330  Biso   1.000  H
  H228     1.0000 0.15000  0.78620  0.32750  Biso   1.000  H
  O39      1.0000 0.96079  0.53940  0.71842  Biso   1.000  O
  C191     1.0000 0.90780  0.59580  0.71620  Biso   1.000  C
  H229     1.0000 0.91790  0.58760  0.69340  Biso   1.000  H
  C192     1.0000 0.88070  0.62400  0.71690  Biso   1.000  C
  H230     1.0000 0.87340  0.63510  0.69420  Biso   1.000  H
  C193     1.0000 0.83290  0.69260  0.72210  Biso   1.000  C
  H231     1.0000 0.85070  0.69290  0.70280  Biso   1.000  H
  C194     1.0000 0.80400  0.71980  0.72320  Biso   1.000  C
  C195     1.0000 0.84780  0.76950  0.69380  Biso   1.000  C
  H232     1.0000 0.86680  0.75030  0.69230  Biso   1.000  H
  H233     1.0000 0.85100  0.78360  0.71670  Biso   1.000  H
  H234     1.0000 0.85000  0.78620  0.67250  Biso   1.000  H
  O40      1.0000 0.03921  0.46060  0.71842  Biso   1.000  O
  C196     1.0000 0.09220  0.40420  0.71620  Biso   1.000  C
  H235     1.0000 0.08210  0.41240  0.69340  Biso   1.000  H
  C197     1.0000 0.11930  0.37600  0.71690  Biso   1.000  C
  H236     1.0000 0.12660  0.36490  0.69420  Biso   1.000  H
  C198     1.0000 0.16710  0.30740  0.72210  Biso   1.000  C
  H237     1.0000 0.14930  0.30710  0.70280  Biso   1.000  H
  C199     1.0000 0.19600  0.28020  0.72320  Biso   1.000  C
  C200     1.0000 0.15220  0.23050  0.69380  Biso   1.000  C
  H238     1.0000 0.13320  0.24970  0.69230  Biso   1.000  H
  H239     1.0000 0.14900  0.21640  0.71670  Biso   1.000  H
  H240     1.0000 0.15000  0.21380  0.67250  Biso   1.000  H
  O41      1.0000 0.46060  0.71842  0.03921  Biso   1.000  O
  C201     1.0000 0.40420  0.71620  0.09220  Biso   1.000  C
  H241     1.0000 0.41240  0.69340  0.08210  Biso   1.000  H
  C202     1.0000 0.37600  0.71690  0.11930  Biso   1.000  C
  H242     1.0000 0.36490  0.69420  0.12660  Biso   1.000  H
  C203     1.0000 0.30740  0.72210  0.16710  Biso   1.000  C
  H243     1.0000 0.30710  0.70280  0.14930  Biso   1.000  H
  C204     1.0000 0.28020  0.72320  0.19600  Biso   1.000  C
  C205     1.0000 0.23050  0.69380  0.15220  Biso   1.000  C
  H244     1.0000 0.24970  0.69230  0.13320  Biso   1.000  H
  H245     1.0000 0.21640  0.71670  0.14900  Biso   1.000  H
  H246     1.0000 0.21380  0.67250  0.15000  Biso   1.000  H
  O42      1.0000 0.53940  0.71842  0.96079  Biso   1.000  O
  C206     1.0000 0.59580  0.71620  0.90780  Biso   1.000  C
  H247     1.0000 0.58760  0.69340  0.91790  Biso   1.000  H
  C207     1.0000 0.62400  0.71690  0.88070  Biso   1.000  C
  H248     1.0000 0.63510  0.69420  0.87340  Biso   1.000  H
  C208     1.0000 0.69260  0.72210  0.83290  Biso   1.000  C
  H249     1.0000 0.69290  0.70280  0.85070  Biso   1.000  H
  C209     1.0000 0.71980  0.72320  0.80400  Biso   1.000  C
  C210     1.0000 0.76950  0.69380  0.84780  Biso   1.000  C
  H250     1.0000 0.75030  0.69230  0.86680  Biso   1.000  H
  H251     1.0000 0.78360  0.71670  0.85100  Biso   1.000  H
  H252     1.0000 0.78620  0.67250  0.85000  Biso   1.000  H
  O43      1.0000 0.53940  0.28158  0.03921  Biso   1.000  O
  C211     1.0000 0.59580  0.28380  0.09220  Biso   1.000  C
  H253     1.0000 0.58760  0.30660  0.08210  Biso   1.000  H
  C212     1.0000 0.62400  0.28310  0.11930  Biso   1.000  C
  H254     1.0000 0.63510  0.30580  0.12660  Biso   1.000  H
  C213     1.0000 0.69260  0.27790  0.16710  Biso   1.000  C
  H255     1.0000 0.69290  0.29720  0.14930  Biso   1.000  H
  C214     1.0000 0.71980  0.27680  0.19600  Biso   1.000  C
  C215     1.0000 0.76950  0.30620  0.15220  Biso   1.000  C
  H256     1.0000 0.75030  0.30770  0.13320  Biso   1.000  H
  H257     1.0000 0.78360  0.28330  0.14900  Biso   1.000  H
  H258     1.0000 0.78620  0.32750  0.15000  Biso   1.000  H
  O44      1.0000 0.46060  0.28158  0.96079  Biso   1.000  O
  C216     1.0000 0.40420  0.28380  0.90780  Biso   1.000  C
  H259     1.0000 0.41240  0.30660  0.91790  Biso   1.000  H
  C217     1.0000 0.37600  0.28310  0.88070  Biso   1.000  C
  H260     1.0000 0.36490  0.30580  0.87340  Biso   1.000  H
  C218     1.0000 0.30740  0.27790  0.83290  Biso   1.000  C
  H261     1.0000 0.30710  0.29720  0.85070  Biso   1.000  H
  C219     1.0000 0.28020  0.27680  0.80400  Biso   1.000  C
  C220     1.0000 0.23050  0.30620  0.84780  Biso   1.000  C
  H262     1.0000 0.24970  0.30770  0.86680  Biso   1.000  H
  H263     1.0000 0.21640  0.28330  0.85100  Biso   1.000  H
  H264     1.0000 0.21380  0.32750  0.85000  Biso   1.000  H
  O45      1.0000 0.71842  0.96079  0.53940  Biso   1.000  O
  C221     1.0000 0.71620  0.90780  0.59580  Biso   1.000  C
  H265     1.0000 0.69340  0.91790  0.58760  Biso   1.000  H
  C222     1.0000 0.71690  0.88070  0.62400  Biso   1.000  C
  H266     1.0000 0.69420  0.87340  0.63510  Biso   1.000  H
  C223     1.0000 0.72210  0.83290  0.69260  Biso   1.000  C
  H267     1.0000 0.70280  0.85070  0.69290  Biso   1.000  H
  C224     1.0000 0.72320  0.80400  0.71980  Biso   1.000  C
  C225     1.0000 0.69380  0.84780  0.76950  Biso   1.000  C
  H268     1.0000 0.69230  0.86680  0.75030  Biso   1.000  H
  H269     1.0000 0.71670  0.85100  0.78360  Biso   1.000  H
  H270     1.0000 0.67250  0.85000  0.78620  Biso   1.000  H
  O46      1.0000 0.71842  0.03921  0.46060  Biso   1.000  O
  C226     1.0000 0.71620  0.09220  0.40420  Biso   1.000  C
  H271     1.0000 0.69340  0.08210  0.41240  Biso   1.000  H
  C227     1.0000 0.71690  0.11930  0.37600  Biso   1.000  C
  H272     1.0000 0.69420  0.12660  0.36490  Biso   1.000  H
  C228     1.0000 0.72210  0.16710  0.30740  Biso   1.000  C
  H273     1.0000 0.70280  0.14930  0.30710  Biso   1.000  H
  C229     1.0000 0.72320  0.19600  0.28020  Biso   1.000  C
  C230     1.0000 0.69380  0.15220  0.23050  Biso   1.000  C
  H274     1.0000 0.69230  0.13320  0.24970  Biso   1.000  H
  H275     1.0000 0.71670  0.14900  0.21640  Biso   1.000  H
  H276     1.0000 0.67250  0.15000  0.21380  Biso   1.000  H
  O47      1.0000 0.28158  0.96079  0.46060  Biso   1.000  O
  C231     1.0000 0.28380  0.90780  0.40420  Biso   1.000  C
  H277     1.0000 0.30660  0.91790  0.41240  Biso   1.000  H
  C232     1.0000 0.28310  0.88070  0.37600  Biso   1.000  C
  H278     1.0000 0.30580  0.87340  0.36490  Biso   1.000  H
  C233     1.0000 0.27790  0.83290  0.30740  Biso   1.000  C
  H279     1.0000 0.29720  0.85070  0.30710  Biso   1.000  H
  C234     1.0000 0.27680  0.80400  0.28020  Biso   1.000  C
  C235     1.0000 0.30620  0.84780  0.23050  Biso   1.000  C
  H280     1.0000 0.30770  0.86680  0.24970  Biso   1.000  H
  H281     1.0000 0.28330  0.85100  0.21640  Biso   1.000  H
  H282     1.0000 0.32750  0.85000  0.21380  Biso   1.000  H
  O48      1.0000 0.28158  0.03921  0.53940  Biso   1.000  O
  C236     1.0000 0.28380  0.09220  0.59580  Biso   1.000  C
  H283     1.0000 0.30660  0.08210  0.58760  Biso   1.000  H
  C237     1.0000 0.28310  0.11930  0.62400  Biso   1.000  C
  H284     1.0000 0.30580  0.12660  0.63510  Biso   1.000  H
  C238     1.0000 0.27790  0.16710  0.69260  Biso   1.000  C
  H285     1.0000 0.29720  0.14930  0.69290  Biso   1.000  H
  C239     1.0000 0.27680  0.19600  0.71980  Biso   1.000  C
  C240     1.0000 0.30620  0.15220  0.76950  Biso   1.000  C
  H286     1.0000 0.30770  0.13320  0.75030  Biso   1.000  H
  H287     1.0000 0.28330  0.14900  0.78360  Biso   1.000  H
  H288     1.0000 0.32750  0.15000  0.78620  Biso   1.000  H
  Cu1      1.0000 0.00000  0.50000  0.78772  Biso   1.000  Cu
  Cu2      1.0000 0.00000  0.50000  0.21228  Biso   1.000  Cu
  Cu3      1.0000 0.78772  0.00000  0.50000  Biso   1.000  Cu
  Cu4      1.0000 0.21228  0.00000  0.50000  Biso   1.000  Cu
  Cu5      1.0000 0.50000  0.78772  0.00000  Biso   1.000  Cu
  Cu6      1.0000 0.50000  0.21228  0.00000  Biso   1.000  Cu
  Cu7      1.0000 0.00000  0.50000  0.71228  Biso   1.000  Cu
  Cu8      1.0000 0.00000  0.50000  0.28772  Biso   1.000  Cu
  Cu9      1.0000 0.50000  0.28772  0.00000  Biso   1.000  Cu
  Cu10     1.0000 0.50000  0.71228  0.00000  Biso   1.000  Cu
  Cu11     1.0000 0.28772  0.00000  0.50000  Biso   1.000  Cu
  Cu12     1.0000 0.71228  0.00000  0.50000  Biso   1.000  Cu
  N1       1.0000 0.25000  0.75000  0.75000  Biso   1.000  N
  N2       1.0000 0.75000  0.25000  0.75000  Biso   1.000  N
  N3       1.0000 0.75000  0.75000  0.25000  Biso   1.000  N
  N4       1.0000 0.25000  0.25000  0.25000  Biso   1.000  N
  N5       1.0000 0.75000  0.25000  0.25000  Biso   1.000  N
  N6       1.0000 0.25000  0.75000  0.25000  Biso   1.000  N
  N7       1.0000 0.25000  0.25000  0.75000  Biso   1.000  N
  N8       1.0000 0.75000  0.75000  0.75000  Biso   1.000  N
  C241     1.0000 0.05050  0.55050  0.75000  Biso   1.000  C
  C242     1.0000 0.08020  0.58020  0.75000  Biso   1.000  C
  C243     1.0000 0.13600  0.63600  0.75000  Biso   1.000  C
  C244     1.0000 0.16550  0.66550  0.75000  Biso   1.000  C
  C245     1.0000 0.22350  0.72350  0.75000  Biso   1.000  C
  C246     1.0000 0.94950  0.44950  0.75000  Biso   1.000  C
  C247     1.0000 0.91980  0.41980  0.75000  Biso   1.000  C
  C248     1.0000 0.86400  0.36400  0.75000  Biso   1.000  C
  C249     1.0000 0.83450  0.33450  0.75000  Biso   1.000  C
  C250     1.0000 0.77650  0.27650  0.75000  Biso   1.000  C
  C251     1.0000 0.94950  0.55050  0.25000  Biso   1.000  C
  C252     1.0000 0.91980  0.58020  0.25000  Biso   1.000  C
  C253     1.0000 0.86400  0.63600  0.25000  Biso   1.000  C
  C254     1.0000 0.83450  0.66550  0.25000  Biso   1.000  C
  C255     1.0000 0.77650  0.72350  0.25000  Biso   1.000  C
  C256     1.0000 0.05050  0.44950  0.25000  Biso   1.000  C
  C257     1.0000 0.08020  0.41980  0.25000  Biso   1.000  C
  C258     1.0000 0.13600  0.36400  0.25000  Biso   1.000  C
  C259     1.0000 0.16550  0.33450  0.25000  Biso   1.000  C
  C260     1.0000 0.22350  0.27650  0.25000  Biso   1.000  C
  C261     1.0000 0.75000  0.05050  0.55050  Biso   1.000  C
  C262     1.0000 0.75000  0.08020  0.58020  Biso   1.000  C
  C263     1.0000 0.75000  0.13600  0.63600  Biso   1.000  C
  C264     1.0000 0.75000  0.16550  0.66550  Biso   1.000  C
  C265     1.0000 0.75000  0.22350  0.72350  Biso   1.000  C
  C266     1.0000 0.75000  0.94950  0.44950  Biso   1.000  C
  C267     1.0000 0.75000  0.91980  0.41980  Biso   1.000  C
  C268     1.0000 0.75000  0.86400  0.36400  Biso   1.000  C
  C269     1.0000 0.75000  0.83450  0.33450  Biso   1.000  C
  C270     1.0000 0.75000  0.77650  0.27650  Biso   1.000  C
  C271     1.0000 0.25000  0.94950  0.55050  Biso   1.000  C
  C272     1.0000 0.25000  0.91980  0.58020  Biso   1.000  C
  C273     1.0000 0.25000  0.86400  0.63600  Biso   1.000  C
  C274     1.0000 0.25000  0.83450  0.66550  Biso   1.000  C
  C275     1.0000 0.25000  0.77650  0.72350  Biso   1.000  C
  C276     1.0000 0.25000  0.05050  0.44950  Biso   1.000  C
  C277     1.0000 0.25000  0.08020  0.41980  Biso   1.000  C
  C278     1.0000 0.25000  0.13600  0.36400  Biso   1.000  C
  C279     1.0000 0.25000  0.16550  0.33450  Biso   1.000  C
  C280     1.0000 0.25000  0.22350  0.27650  Biso   1.000  C
  C281     1.0000 0.55050  0.75000  0.05050  Biso   1.000  C
  C282     1.0000 0.58020  0.75000  0.08020  Biso   1.000  C
  C283     1.0000 0.63600  0.75000  0.13600  Biso   1.000  C
  C284     1.0000 0.66550  0.75000  0.16550  Biso   1.000  C
  C285     1.0000 0.72350  0.75000  0.22350  Biso   1.000  C
  C286     1.0000 0.44950  0.75000  0.94950  Biso   1.000  C
  C287     1.0000 0.41980  0.75000  0.91980  Biso   1.000  C
  C288     1.0000 0.36400  0.75000  0.86400  Biso   1.000  C
  C289     1.0000 0.33450  0.75000  0.83450  Biso   1.000  C
  C290     1.0000 0.27650  0.75000  0.77650  Biso   1.000  C
  C291     1.0000 0.55050  0.25000  0.94950  Biso   1.000  C
  C292     1.0000 0.58020  0.25000  0.91980  Biso   1.000  C
  C293     1.0000 0.63600  0.25000  0.86400  Biso   1.000  C
  C294     1.0000 0.66550  0.25000  0.83450  Biso   1.000  C
  C295     1.0000 0.72350  0.25000  0.77650  Biso   1.000  C
  C296     1.0000 0.44950  0.25000  0.05050  Biso   1.000  C
  C297     1.0000 0.41980  0.25000  0.08020  Biso   1.000  C
  C298     1.0000 0.36400  0.25000  0.13600  Biso   1.000  C
  C299     1.0000 0.33450  0.25000  0.16550  Biso   1.000  C
  C300     1.0000 0.27650  0.25000  0.22350  Biso   1.000  C
  C301     1.0000 0.94950  0.44950  0.25000  Biso   1.000  C
  C302     1.0000 0.91980  0.41980  0.25000  Biso   1.000  C
  C303     1.0000 0.86400  0.36400  0.25000  Biso   1.000  C
  C304     1.0000 0.83450  0.33450  0.25000  Biso   1.000  C
  C305     1.0000 0.77650  0.27650  0.25000  Biso   1.000  C
  C306     1.0000 0.05050  0.55050  0.25000  Biso   1.000  C
  C307     1.0000 0.08020  0.58020  0.25000  Biso   1.000  C
  C308     1.0000 0.13600  0.63600  0.25000  Biso   1.000  C
  C309     1.0000 0.16550  0.66550  0.25000  Biso   1.000  C
  C310     1.0000 0.22350  0.72350  0.25000  Biso   1.000  C
  C311     1.0000 0.05050  0.44950  0.75000  Biso   1.000  C
  C312     1.0000 0.08020  0.41980  0.75000  Biso   1.000  C
  C313     1.0000 0.13600  0.36400  0.75000  Biso   1.000  C
  C314     1.0000 0.16550  0.33450  0.75000  Biso   1.000  C
  C315     1.0000 0.22350  0.27650  0.75000  Biso   1.000  C
  C316     1.0000 0.94950  0.55050  0.75000  Biso   1.000  C
  C317     1.0000 0.91980  0.58020  0.75000  Biso   1.000  C
  C318     1.0000 0.86400  0.63600  0.75000  Biso   1.000  C
  C319     1.0000 0.83450  0.66550  0.75000  Biso   1.000  C
  C320     1.0000 0.77650  0.72350  0.75000  Biso   1.000  C
  C321     1.0000 0.25000  0.94950  0.44950  Biso   1.000  C
  C322     1.0000 0.25000  0.91980  0.41980  Biso   1.000  C
  C323     1.0000 0.25000  0.86400  0.36400  Biso   1.000  C
  C324     1.0000 0.25000  0.83450  0.33450  Biso   1.000  C
  C325     1.0000 0.25000  0.77650  0.27650  Biso   1.000  C
  C326     1.0000 0.25000  0.05050  0.55050  Biso   1.000  C
  C327     1.0000 0.25000  0.08020  0.58020  Biso   1.000  C
  C328     1.0000 0.25000  0.13600  0.63600  Biso   1.000  C
  C329     1.0000 0.25000  0.16550  0.66550  Biso   1.000  C
  C330     1.0000 0.25000  0.22350  0.72350  Biso   1.000  C
  C331     1.0000 0.75000  0.05050  0.44950  Biso   1.000  C
  C332     1.0000 0.75000  0.08020  0.41980  Biso   1.000  C
  C333     1.0000 0.75000  0.13600  0.36400  Biso   1.000  C
  C334     1.0000 0.75000  0.16550  0.33450  Biso   1.000  C
  C335     1.0000 0.75000  0.22350  0.27650  Biso   1.000  C
  C336     1.0000 0.75000  0.94950  0.55050  Biso   1.000  C
  C337     1.0000 0.75000  0.91980  0.58020  Biso   1.000  C
  C338     1.0000 0.75000  0.86400  0.63600  Biso   1.000  C
  C339     1.0000 0.75000  0.83450  0.66550  Biso   1.000  C
  C340     1.0000 0.75000  0.77650  0.72350  Biso   1.000  C
  C341     1.0000 0.44950  0.25000  0.94950  Biso   1.000  C
  C342     1.0000 0.41980  0.25000  0.91980  Biso   1.000  C
  C343     1.0000 0.36400  0.25000  0.86400  Biso   1.000  C
  C344     1.0000 0.33450  0.25000  0.83450  Biso   1.000  C
  C345     1.0000 0.27650  0.25000  0.77650  Biso   1.000  C
  C346     1.0000 0.55050  0.25000  0.05050  Biso   1.000  C
  C347     1.0000 0.58020  0.25000  0.08020  Biso   1.000  C
  C348     1.0000 0.63600  0.25000  0.13600  Biso   1.000  C
  C349     1.0000 0.66550  0.25000  0.16550  Biso   1.000  C
  C350     1.0000 0.72350  0.25000  0.22350  Biso   1.000  C
  C351     1.0000 0.44950  0.75000  0.05050  Biso   1.000  C
  C352     1.0000 0.41980  0.75000  0.08020  Biso   1.000  C
  C353     1.0000 0.36400  0.75000  0.13600  Biso   1.000  C
  C354     1.0000 0.33450  0.75000  0.16550  Biso   1.000  C
  C355     1.0000 0.27650  0.75000  0.22350  Biso   1.000  C
  C356     1.0000 0.55050  0.75000  0.94950  Biso   1.000  C
  C357     1.0000 0.58020  0.75000  0.91980  Biso   1.000  C
  C358     1.0000 0.63600  0.75000  0.86400  Biso   1.000  C
  C359     1.0000 0.66550  0.75000  0.83450  Biso   1.000  C
  C360     1.0000 0.72350  0.75000  0.77650  Biso   1.000  C
  C361     1.0000 0.25000  0.69360  0.80640  Biso   1.000  C
  C362     1.0000 0.75000  0.30640  0.80640  Biso   1.000  C
  C363     1.0000 0.75000  0.69360  0.19360  Biso   1.000  C
  C364     1.0000 0.25000  0.30640  0.19360  Biso   1.000  C
  C365     1.0000 0.80640  0.25000  0.69360  Biso   1.000  C
  C366     1.0000 0.80640  0.75000  0.30640  Biso   1.000  C
  C367     1.0000 0.19360  0.75000  0.69360  Biso   1.000  C
  C368     1.0000 0.19360  0.25000  0.30640  Biso   1.000  C
  C369     1.0000 0.69360  0.80640  0.25000  Biso   1.000  C
  C370     1.0000 0.30640  0.80640  0.75000  Biso   1.000  C
  C371     1.0000 0.69360  0.19360  0.75000  Biso   1.000  C
  C372     1.0000 0.30640  0.19360  0.25000  Biso   1.000  C
  C373     1.0000 0.75000  0.30640  0.19360  Biso   1.000  C
  C374     1.0000 0.25000  0.69360  0.19360  Biso   1.000  C
  C375     1.0000 0.25000  0.30640  0.80640  Biso   1.000  C
  C376     1.0000 0.75000  0.69360  0.80640  Biso   1.000  C
  C377     1.0000 0.19360  0.75000  0.30640  Biso   1.000  C
  C378     1.0000 0.19360  0.25000  0.69360  Biso   1.000  C
  C379     1.0000 0.80640  0.25000  0.30640  Biso   1.000  C
  C380     1.0000 0.80640  0.75000  0.69360  Biso   1.000  C
  C381     1.0000 0.30640  0.19360  0.75000  Biso   1.000  C
  C382     1.0000 0.69360  0.19360  0.25000  Biso   1.000  C
  C383     1.0000 0.30640  0.80640  0.25000  Biso   1.000  C
  C384     1.0000 0.69360  0.80640  0.75000  Biso   1.000  C
