data_image0
_cell_length_a       38.3207
_cell_length_b       38.3207
_cell_length_c       38.3207
_cell_angle_alpha    90
_cell_angle_beta     90
_cell_angle_gamma    90

_symmetry_space_group_name_H-M    "P 1"
_symmetry_int_tables_number       1

loop_
  _symmetry_equiv_pos_as_xyz
  'x, y, z'

loop_
  _atom_site_label
  _atom_site_occupancy
  _atom_site_fract_x
  _atom_site_fract_y
  _atom_site_fract_z
  _atom_site_thermal_displace_type
  _atom_site_B_iso_or_equiv
  _atom_site_type_symbol
  O1       1.0000 0.31550  0.22240  0.17210  Biso   1.000  O
  C1       1.0000 0.47120  0.24680  0.07240  Biso   1.000  C
  C2       1.0000 0.48140  0.24430  0.10870  Biso   1.000  C
  H1       1.0000 0.46650  0.24290  0.12840  Biso   1.000  H
  C3       1.0000 0.40280  0.27910  0.10880  Biso   1.000  C
  H2       1.0000 0.41630  0.29940  0.10450  Biso   1.000  H
  C4       1.0000 0.37640  0.27980  0.13390  Biso   1.000  C
  H3       1.0000 0.37090  0.30090  0.14570  Biso   1.000  H
  O2       1.0000 0.81550  0.72240  0.67210  Biso   1.000  O
  C5       1.0000 0.97120  0.74680  0.57240  Biso   1.000  C
  C6       1.0000 0.98140  0.74430  0.60870  Biso   1.000  C
  H4       1.0000 0.96650  0.74290  0.62840  Biso   1.000  H
  C7       1.0000 0.90280  0.77910  0.60880  Biso   1.000  C
  H5       1.0000 0.91630  0.79940  0.60450  Biso   1.000  H
  C8       1.0000 0.87640  0.77980  0.63390  Biso   1.000  C
  H6       1.0000 0.87090  0.80090  0.64570  Biso   1.000  H
  O3       1.0000 0.68450  0.77760  0.17210  Biso   1.000  O
  C9       1.0000 0.52880  0.75320  0.07240  Biso   1.000  C
  C10      1.0000 0.51860  0.75570  0.10870  Biso   1.000  C
  H7       1.0000 0.53350  0.75710  0.12840  Biso   1.000  H
  C11      1.0000 0.59720  0.72090  0.10880  Biso   1.000  C
  H8       1.0000 0.58370  0.70060  0.10450  Biso   1.000  H
  C12      1.0000 0.62360  0.72020  0.13390  Biso   1.000  C
  H9       1.0000 0.62910  0.69910  0.14570  Biso   1.000  H
  O4       1.0000 0.18450  0.27760  0.67210  Biso   1.000  O
  C13      1.0000 0.02880  0.25320  0.57240  Biso   1.000  C
  C14      1.0000 0.01860  0.25570  0.60870  Biso   1.000  C
  H10      1.0000 0.03350  0.25710  0.62840  Biso   1.000  H
  C15      1.0000 0.09720  0.22090  0.60880  Biso   1.000  C
  H11      1.0000 0.08370  0.20060  0.60450  Biso   1.000  H
  C16      1.0000 0.12360  0.22020  0.63390  Biso   1.000  C
  H12      1.0000 0.12910  0.19910  0.64570  Biso   1.000  H
  O5       1.0000 0.68450  0.22240  0.82790  Biso   1.000  O
  C17      1.0000 0.52880  0.24680  0.92760  Biso   1.000  C
  C18      1.0000 0.51860  0.24430  0.89130  Biso   1.000  C
  H13      1.0000 0.53350  0.24290  0.87160  Biso   1.000  H
  C19      1.0000 0.59720  0.27910  0.89120  Biso   1.000  C
  H14      1.0000 0.58370  0.29940  0.89550  Biso   1.000  H
  C20      1.0000 0.62360  0.27980  0.86610  Biso   1.000  C
  H15      1.0000 0.62910  0.30090  0.85430  Biso   1.000  H
  O6       1.0000 0.18450  0.72240  0.32790  Biso   1.000  O
  C21      1.0000 0.02880  0.74680  0.42760  Biso   1.000  C
  C22      1.0000 0.01860  0.74430  0.39130  Biso   1.000  C
  H16      1.0000 0.03350  0.74290  0.37160  Biso   1.000  H
  C23      1.0000 0.09720  0.77910  0.39120  Biso   1.000  C
  H17      1.0000 0.08370  0.79940  0.39550  Biso   1.000  H
  C24      1.0000 0.12360  0.77980  0.36610  Biso   1.000  C
  H18      1.0000 0.12910  0.80090  0.35430  Biso   1.000  H
  O7       1.0000 0.31550  0.77760  0.82790  Biso   1.000  O
  C25      1.0000 0.47120  0.75320  0.92760  Biso   1.000  C
  C26      1.0000 0.48140  0.75570  0.89130  Biso   1.000  C
  H19      1.0000 0.46650  0.75710  0.87160  Biso   1.000  H
  C27      1.0000 0.40280  0.72090  0.89120  Biso   1.000  C
  H20      1.0000 0.41630  0.70060  0.89550  Biso   1.000  H
  C28      1.0000 0.37640  0.72020  0.86610  Biso   1.000  C
  H21      1.0000 0.37090  0.69910  0.85430  Biso   1.000  H
  O8       1.0000 0.81550  0.27760  0.32790  Biso   1.000  O
  C29      1.0000 0.97120  0.25320  0.42760  Biso   1.000  C
  C30      1.0000 0.98140  0.25570  0.39130  Biso   1.000  C
  H22      1.0000 0.96650  0.25710  0.37160  Biso   1.000  H
  C31      1.0000 0.90280  0.22090  0.39120  Biso   1.000  C
  H23      1.0000 0.91630  0.20060  0.39550  Biso   1.000  H
  C32      1.0000 0.87640  0.22020  0.36610  Biso   1.000  C
  H24      1.0000 0.87090  0.19910  0.35430  Biso   1.000  H
  O9       1.0000 0.17210  0.31550  0.22240  Biso   1.000  O
  C33      1.0000 0.07240  0.47120  0.24680  Biso   1.000  C
  C34      1.0000 0.10870  0.48140  0.24430  Biso   1.000  C
  H25      1.0000 0.12840  0.46650  0.24290  Biso   1.000  H
  C35      1.0000 0.10880  0.40280  0.27910  Biso   1.000  C
  H26      1.0000 0.10450  0.41630  0.29940  Biso   1.000  H
  C36      1.0000 0.13390  0.37640  0.27980  Biso   1.000  C
  H27      1.0000 0.14570  0.37090  0.30090  Biso   1.000  H
  O10      1.0000 0.67210  0.81550  0.72240  Biso   1.000  O
  C37      1.0000 0.57240  0.97120  0.74680  Biso   1.000  C
  C38      1.0000 0.60870  0.98140  0.74430  Biso   1.000  C
  H28      1.0000 0.62840  0.96650  0.74290  Biso   1.000  H
  C39      1.0000 0.60880  0.90280  0.77910  Biso   1.000  C
  H29      1.0000 0.60450  0.91630  0.79940  Biso   1.000  H
  C40      1.0000 0.63390  0.87640  0.77980  Biso   1.000  C
  H30      1.0000 0.64570  0.87090  0.80090  Biso   1.000  H
  O11      1.0000 0.17210  0.68450  0.77760  Biso   1.000  O
  C41      1.0000 0.07240  0.52880  0.75320  Biso   1.000  C
  C42      1.0000 0.10870  0.51860  0.75570  Biso   1.000  C
  H31      1.0000 0.12840  0.53350  0.75710  Biso   1.000  H
  C43      1.0000 0.10880  0.59720  0.72090  Biso   1.000  C
  H32      1.0000 0.10450  0.58370  0.70060  Biso   1.000  H
  C44      1.0000 0.13390  0.62360  0.72020  Biso   1.000  C
  H33      1.0000 0.14570  0.62910  0.69910  Biso   1.000  H
  O12      1.0000 0.67210  0.18450  0.27760  Biso   1.000  O
  C45      1.0000 0.57240  0.02880  0.25320  Biso   1.000  C
  C46      1.0000 0.60870  0.01860  0.25570  Biso   1.000  C
  H34      1.0000 0.62840  0.03350  0.25710  Biso   1.000  H
  C47      1.0000 0.60880  0.09720  0.22090  Biso   1.000  C
  H35      1.0000 0.60450  0.08370  0.20060  Biso   1.000  H
  C48      1.0000 0.63390  0.12360  0.22020  Biso   1.000  C
  H36      1.0000 0.64570  0.12910  0.19910  Biso   1.000  H
  O13      1.0000 0.82790  0.68450  0.22240  Biso   1.000  O
  C49      1.0000 0.92760  0.52880  0.24680  Biso   1.000  C
  C50      1.0000 0.89130  0.51860  0.24430  Biso   1.000  C
  H37      1.0000 0.87160  0.53350  0.24290  Biso   1.000  H
  C51      1.0000 0.89120  0.59720  0.27910  Biso   1.000  C
  H38      1.0000 0.89550  0.58370  0.29940  Biso   1.000  H
  C52      1.0000 0.86610  0.62360  0.27980  Biso   1.000  C
  H39      1.0000 0.85430  0.62910  0.30090  Biso   1.000  H
  O14      1.0000 0.32790  0.18450  0.72240  Biso   1.000  O
  C53      1.0000 0.42760  0.02880  0.74680  Biso   1.000  C
  C54      1.0000 0.39130  0.01860  0.74430  Biso   1.000  C
  H40      1.0000 0.37160  0.03350  0.74290  Biso   1.000  H
  C55      1.0000 0.39120  0.09720  0.77910  Biso   1.000  C
  H41      1.0000 0.39550  0.08370  0.79940  Biso   1.000  H
  C56      1.0000 0.36610  0.12360  0.77980  Biso   1.000  C
  H42      1.0000 0.35430  0.12910  0.80090  Biso   1.000  H
  O15      1.0000 0.82790  0.31550  0.77760  Biso   1.000  O
  C57      1.0000 0.92760  0.47120  0.75320  Biso   1.000  C
  C58      1.0000 0.89130  0.48140  0.75570  Biso   1.000  C
  H43      1.0000 0.87160  0.46650  0.75710  Biso   1.000  H
  C59      1.0000 0.89120  0.40280  0.72090  Biso   1.000  C
  H44      1.0000 0.89550  0.41630  0.70060  Biso   1.000  H
  C60      1.0000 0.86610  0.37640  0.72020  Biso   1.000  C
  H45      1.0000 0.85430  0.37090  0.69910  Biso   1.000  H
  O16      1.0000 0.32790  0.81550  0.27760  Biso   1.000  O
  C61      1.0000 0.42760  0.97120  0.25320  Biso   1.000  C
  C62      1.0000 0.39130  0.98140  0.25570  Biso   1.000  C
  H46      1.0000 0.37160  0.96650  0.25710  Biso   1.000  H
  C63      1.0000 0.39120  0.90280  0.22090  Biso   1.000  C
  H47      1.0000 0.39550  0.91630  0.20060  Biso   1.000  H
  C64      1.0000 0.36610  0.87640  0.22020  Biso   1.000  C
  H48      1.0000 0.35430  0.87090  0.19910  Biso   1.000  H
  O17      1.0000 0.22240  0.17210  0.31550  Biso   1.000  O
  C65      1.0000 0.24680  0.07240  0.47120  Biso   1.000  C
  C66      1.0000 0.24430  0.10870  0.48140  Biso   1.000  C
  H49      1.0000 0.24290  0.12840  0.46650  Biso   1.000  H
  C67      1.0000 0.27910  0.10880  0.40280  Biso   1.000  C
  H50      1.0000 0.29940  0.10450  0.41630  Biso   1.000  H
  C68      1.0000 0.27980  0.13390  0.37640  Biso   1.000  C
  H51      1.0000 0.30090  0.14570  0.37090  Biso   1.000  H
  O18      1.0000 0.72240  0.67210  0.81550  Biso   1.000  O
  C69      1.0000 0.74680  0.57240  0.97120  Biso   1.000  C
  C70      1.0000 0.74430  0.60870  0.98140  Biso   1.000  C
  H52      1.0000 0.74290  0.62840  0.96650  Biso   1.000  H
  C71      1.0000 0.77910  0.60880  0.90280  Biso   1.000  C
  H53      1.0000 0.79940  0.60450  0.91630  Biso   1.000  H
  C72      1.0000 0.77980  0.63390  0.87640  Biso   1.000  C
  H54      1.0000 0.80090  0.64570  0.87090  Biso   1.000  H
  O19      1.0000 0.77760  0.17210  0.68450  Biso   1.000  O
  C73      1.0000 0.75320  0.07240  0.52880  Biso   1.000  C
  C74      1.0000 0.75570  0.10870  0.51860  Biso   1.000  C
  H55      1.0000 0.75710  0.12840  0.53350  Biso   1.000  H
  C75      1.0000 0.72090  0.10880  0.59720  Biso   1.000  C
  H56      1.0000 0.70060  0.10450  0.58370  Biso   1.000  H
  C76      1.0000 0.72020  0.13390  0.62360  Biso   1.000  C
  H57      1.0000 0.69910  0.14570  0.62910  Biso   1.000  H
  O20      1.0000 0.27760  0.67210  0.18450  Biso   1.000  O
  C77      1.0000 0.25320  0.57240  0.02880  Biso   1.000  C
  C78      1.0000 0.25570  0.60870  0.01860  Biso   1.000  C
  H58      1.0000 0.25710  0.62840  0.03350  Biso   1.000  H
  C79      1.0000 0.22090  0.60880  0.09720  Biso   1.000  C
  H59      1.0000 0.20060  0.60450  0.08370  Biso   1.000  H
  C80      1.0000 0.22020  0.63390  0.12360  Biso   1.000  C
  H60      1.0000 0.19910  0.64570  0.12910  Biso   1.000  H
  O21      1.0000 0.22240  0.82790  0.68450  Biso   1.000  O
  C81      1.0000 0.24680  0.92760  0.52880  Biso   1.000  C
  C82      1.0000 0.24430  0.89130  0.51860  Biso   1.000  C
  H61      1.0000 0.24290  0.87160  0.53350  Biso   1.000  H
  C83      1.0000 0.27910  0.89120  0.59720  Biso   1.000  C
  H62      1.0000 0.29940  0.89550  0.58370  Biso   1.000  H
  C84      1.0000 0.27980  0.86610  0.62360  Biso   1.000  C
  H63      1.0000 0.30090  0.85430  0.62910  Biso   1.000  H
  O22      1.0000 0.72240  0.32790  0.18450  Biso   1.000  O
  C85      1.0000 0.74680  0.42760  0.02880  Biso   1.000  C
  C86      1.0000 0.74430  0.39130  0.01860  Biso   1.000  C
  H64      1.0000 0.74290  0.37160  0.03350  Biso   1.000  H
  C87      1.0000 0.77910  0.39120  0.09720  Biso   1.000  C
  H65      1.0000 0.79940  0.39550  0.08370  Biso   1.000  H
  C88      1.0000 0.77980  0.36610  0.12360  Biso   1.000  C
  H66      1.0000 0.80090  0.35430  0.12910  Biso   1.000  H
  O23      1.0000 0.77760  0.82790  0.31550  Biso   1.000  O
  C89      1.0000 0.75320  0.92760  0.47120  Biso   1.000  C
  C90      1.0000 0.75570  0.89130  0.48140  Biso   1.000  C
  H67      1.0000 0.75710  0.87160  0.46650  Biso   1.000  H
  C91      1.0000 0.72090  0.89120  0.40280  Biso   1.000  C
  H68      1.0000 0.70060  0.89550  0.41630  Biso   1.000  H
  C92      1.0000 0.72020  0.86610  0.37640  Biso   1.000  C
  H69      1.0000 0.69910  0.85430  0.37090  Biso   1.000  H
  O24      1.0000 0.27760  0.32790  0.81550  Biso   1.000  O
  C93      1.0000 0.25320  0.42760  0.97120  Biso   1.000  C
  C94      1.0000 0.25570  0.39130  0.98140  Biso   1.000  C
  H70      1.0000 0.25710  0.37160  0.96650  Biso   1.000  H
  C95      1.0000 0.22090  0.39120  0.90280  Biso   1.000  C
  H71      1.0000 0.20060  0.39550  0.91630  Biso   1.000  H
  C96      1.0000 0.22020  0.36610  0.87640  Biso   1.000  C
  H72      1.0000 0.19910  0.35430  0.87090  Biso   1.000  H
  O25      1.0000 0.22240  0.31550  0.82790  Biso   1.000  O
  C97      1.0000 0.24680  0.47120  0.92760  Biso   1.000  C
  C98      1.0000 0.24430  0.48140  0.89130  Biso   1.000  C
  H73      1.0000 0.24290  0.46650  0.87160  Biso   1.000  H
  C99      1.0000 0.27910  0.40280  0.89120  Biso   1.000  C
  H74      1.0000 0.29940  0.41630  0.89550  Biso   1.000  H
  C100     1.0000 0.27980  0.37640  0.86610  Biso   1.000  C
  H75      1.0000 0.30090  0.37090  0.85430  Biso   1.000  H
  O26      1.0000 0.72240  0.81550  0.32790  Biso   1.000  O
  C101     1.0000 0.74680  0.97120  0.42760  Biso   1.000  C
  C102     1.0000 0.74430  0.98140  0.39130  Biso   1.000  C
  H76      1.0000 0.74290  0.96650  0.37160  Biso   1.000  H
  C103     1.0000 0.77910  0.90280  0.39120  Biso   1.000  C
  H77      1.0000 0.79940  0.91630  0.39550  Biso   1.000  H
  C104     1.0000 0.77980  0.87640  0.36610  Biso   1.000  C
  H78      1.0000 0.80090  0.87090  0.35430  Biso   1.000  H
  O27      1.0000 0.77760  0.68450  0.82790  Biso   1.000  O
  C105     1.0000 0.75320  0.52880  0.92760  Biso   1.000  C
  C106     1.0000 0.75570  0.51860  0.89130  Biso   1.000  C
  H79      1.0000 0.75710  0.53350  0.87160  Biso   1.000  H
  C107     1.0000 0.72090  0.59720  0.89120  Biso   1.000  C
  H80      1.0000 0.70060  0.58370  0.89550  Biso   1.000  H
  C108     1.0000 0.72020  0.62360  0.86610  Biso   1.000  C
  H81      1.0000 0.69910  0.62910  0.85430  Biso   1.000  H
  O28      1.0000 0.27760  0.18450  0.32790  Biso   1.000  O
  C109     1.0000 0.25320  0.02880  0.42760  Biso   1.000  C
  C110     1.0000 0.25570  0.01860  0.39130  Biso   1.000  C
  H82      1.0000 0.25710  0.03350  0.37160  Biso   1.000  H
  C111     1.0000 0.22090  0.09720  0.39120  Biso   1.000  C
  H83      1.0000 0.20060  0.08370  0.39550  Biso   1.000  H
  C112     1.0000 0.22020  0.12360  0.36610  Biso   1.000  C
  H84      1.0000 0.19910  0.12910  0.35430  Biso   1.000  H
  O29      1.0000 0.22240  0.68450  0.17210  Biso   1.000  O
  C113     1.0000 0.24680  0.52880  0.07240  Biso   1.000  C
  C114     1.0000 0.24430  0.51860  0.10870  Biso   1.000  C
  H85      1.0000 0.24290  0.53350  0.12840  Biso   1.000  H
  C115     1.0000 0.27910  0.59720  0.10880  Biso   1.000  C
  H86      1.0000 0.29940  0.58370  0.10450  Biso   1.000  H
  C116     1.0000 0.27980  0.62360  0.13390  Biso   1.000  C
  H87      1.0000 0.30090  0.62910  0.14570  Biso   1.000  H
  O30      1.0000 0.72240  0.18450  0.67210  Biso   1.000  O
  C117     1.0000 0.74680  0.02880  0.57240  Biso   1.000  C
  C118     1.0000 0.74430  0.01860  0.60870  Biso   1.000  C
  H88      1.0000 0.74290  0.03350  0.62840  Biso   1.000  H
  C119     1.0000 0.77910  0.09720  0.60880  Biso   1.000  C
  H89      1.0000 0.79940  0.08370  0.60450  Biso   1.000  H
  C120     1.0000 0.77980  0.12360  0.63390  Biso   1.000  C
  H90      1.0000 0.80090  0.12910  0.64570  Biso   1.000  H
  O31      1.0000 0.77760  0.31550  0.17210  Biso   1.000  O
  C121     1.0000 0.75320  0.47120  0.07240  Biso   1.000  C
  C122     1.0000 0.75570  0.48140  0.10870  Biso   1.000  C
  H91      1.0000 0.75710  0.46650  0.12840  Biso   1.000  H
  C123     1.0000 0.72090  0.40280  0.10880  Biso   1.000  C
  H92      1.0000 0.70060  0.41630  0.10450  Biso   1.000  H
  C124     1.0000 0.72020  0.37640  0.13390  Biso   1.000  C
  H93      1.0000 0.69910  0.37090  0.14570  Biso   1.000  H
  O32      1.0000 0.27760  0.81550  0.67210  Biso   1.000  O
  C125     1.0000 0.25320  0.97120  0.57240  Biso   1.000  C
  C126     1.0000 0.25570  0.98140  0.60870  Biso   1.000  C
  H94      1.0000 0.25710  0.96650  0.62840  Biso   1.000  H
  C127     1.0000 0.22090  0.90280  0.60880  Biso   1.000  C
  H95      1.0000 0.20060  0.91630  0.60450  Biso   1.000  H
  C128     1.0000 0.22020  0.87640  0.63390  Biso   1.000  C
  H96      1.0000 0.19910  0.87090  0.64570  Biso   1.000  H
  O33      1.0000 0.31550  0.17210  0.77760  Biso   1.000  O
  C129     1.0000 0.47120  0.07240  0.75320  Biso   1.000  C
  C130     1.0000 0.48140  0.10870  0.75570  Biso   1.000  C
  H97      1.0000 0.46650  0.12840  0.75710  Biso   1.000  H
  C131     1.0000 0.40280  0.10880  0.72090  Biso   1.000  C
  H98      1.0000 0.41630  0.10450  0.70060  Biso   1.000  H
  C132     1.0000 0.37640  0.13390  0.72020  Biso   1.000  C
  H99      1.0000 0.37090  0.14570  0.69910  Biso   1.000  H
  O34      1.0000 0.81550  0.67210  0.27760  Biso   1.000  O
  C133     1.0000 0.97120  0.57240  0.25320  Biso   1.000  C
  C134     1.0000 0.98140  0.60870  0.25570  Biso   1.000  C
  H100     1.0000 0.96650  0.62840  0.25710  Biso   1.000  H
  C135     1.0000 0.90280  0.60880  0.22090  Biso   1.000  C
  H101     1.0000 0.91630  0.60450  0.20060  Biso   1.000  H
  C136     1.0000 0.87640  0.63390  0.22020  Biso   1.000  C
  H102     1.0000 0.87090  0.64570  0.19910  Biso   1.000  H
  O35      1.0000 0.68450  0.17210  0.22240  Biso   1.000  O
  C137     1.0000 0.52880  0.07240  0.24680  Biso   1.000  C
  C138     1.0000 0.51860  0.10870  0.24430  Biso   1.000  C
  H103     1.0000 0.53350  0.12840  0.24290  Biso   1.000  H
  C139     1.0000 0.59720  0.10880  0.27910  Biso   1.000  C
  H104     1.0000 0.58370  0.10450  0.29940  Biso   1.000  H
  C140     1.0000 0.62360  0.13390  0.27980  Biso   1.000  C
  H105     1.0000 0.62910  0.14570  0.30090  Biso   1.000  H
  O36      1.0000 0.18450  0.67210  0.72240  Biso   1.000  O
  C141     1.0000 0.02880  0.57240  0.74680  Biso   1.000  C
  C142     1.0000 0.01860  0.60870  0.74430  Biso   1.000  C
  H106     1.0000 0.03350  0.62840  0.74290  Biso   1.000  H
  C143     1.0000 0.09720  0.60880  0.77910  Biso   1.000  C
  H107     1.0000 0.08370  0.60450  0.79940  Biso   1.000  H
  C144     1.0000 0.12360  0.63390  0.77980  Biso   1.000  C
  H108     1.0000 0.12910  0.64570  0.80090  Biso   1.000  H
  O37      1.0000 0.68450  0.82790  0.77760  Biso   1.000  O
  C145     1.0000 0.52880  0.92760  0.75320  Biso   1.000  C
  C146     1.0000 0.51860  0.89130  0.75570  Biso   1.000  C
  H109     1.0000 0.53350  0.87160  0.75710  Biso   1.000  H
  C147     1.0000 0.59720  0.89120  0.72090  Biso   1.000  C
  H110     1.0000 0.58370  0.89550  0.70060  Biso   1.000  H
  C148     1.0000 0.62360  0.86610  0.72020  Biso   1.000  C
  H111     1.0000 0.62910  0.85430  0.69910  Biso   1.000  H
  O38      1.0000 0.18450  0.32790  0.27760  Biso   1.000  O
  C149     1.0000 0.02880  0.42760  0.25320  Biso   1.000  C
  C150     1.0000 0.01860  0.39130  0.25570  Biso   1.000  C
  H112     1.0000 0.03350  0.37160  0.25710  Biso   1.000  H
  C151     1.0000 0.09720  0.39120  0.22090  Biso   1.000  C
  H113     1.0000 0.08370  0.39550  0.20060  Biso   1.000  H
  C152     1.0000 0.12360  0.36610  0.22020  Biso   1.000  C
  H114     1.0000 0.12910  0.35430  0.19910  Biso   1.000  H
  O39      1.0000 0.31550  0.82790  0.22240  Biso   1.000  O
  C153     1.0000 0.47120  0.92760  0.24680  Biso   1.000  C
  C154     1.0000 0.48140  0.89130  0.24430  Biso   1.000  C
  H115     1.0000 0.46650  0.87160  0.24290  Biso   1.000  H
  C155     1.0000 0.40280  0.89120  0.27910  Biso   1.000  C
  H116     1.0000 0.41630  0.89550  0.29940  Biso   1.000  H
  C156     1.0000 0.37640  0.86610  0.27980  Biso   1.000  C
  H117     1.0000 0.37090  0.85430  0.30090  Biso   1.000  H
  O40      1.0000 0.81550  0.32790  0.72240  Biso   1.000  O
  C157     1.0000 0.97120  0.42760  0.74680  Biso   1.000  C
  C158     1.0000 0.98140  0.39130  0.74430  Biso   1.000  C
  H118     1.0000 0.96650  0.37160  0.74290  Biso   1.000  H
  C159     1.0000 0.90280  0.39120  0.77910  Biso   1.000  C
  H119     1.0000 0.91630  0.39550  0.79940  Biso   1.000  H
  C160     1.0000 0.87640  0.36610  0.77980  Biso   1.000  C
  H120     1.0000 0.87090  0.35430  0.80090  Biso   1.000  H
  O41      1.0000 0.17210  0.22240  0.68450  Biso   1.000  O
  C161     1.0000 0.07240  0.24680  0.52880  Biso   1.000  C
  C162     1.0000 0.10870  0.24430  0.51860  Biso   1.000  C
  H121     1.0000 0.12840  0.24290  0.53350  Biso   1.000  H
  C163     1.0000 0.10880  0.27910  0.59720  Biso   1.000  C
  H122     1.0000 0.10450  0.29940  0.58370  Biso   1.000  H
  C164     1.0000 0.13390  0.27980  0.62360  Biso   1.000  C
  H123     1.0000 0.14570  0.30090  0.62910  Biso   1.000  H
  O42      1.0000 0.67210  0.72240  0.18450  Biso   1.000  O
  C165     1.0000 0.57240  0.74680  0.02880  Biso   1.000  C
  C166     1.0000 0.60870  0.74430  0.01860  Biso   1.000  C
  H124     1.0000 0.62840  0.74290  0.03350  Biso   1.000  H
  C167     1.0000 0.60880  0.77910  0.09720  Biso   1.000  C
  H125     1.0000 0.60450  0.79940  0.08370  Biso   1.000  H
  C168     1.0000 0.63390  0.77980  0.12360  Biso   1.000  C
  H126     1.0000 0.64570  0.80090  0.12910  Biso   1.000  H
  O43      1.0000 0.17210  0.77760  0.31550  Biso   1.000  O
  C169     1.0000 0.07240  0.75320  0.47120  Biso   1.000  C
  C170     1.0000 0.10870  0.75570  0.48140  Biso   1.000  C
  H127     1.0000 0.12840  0.75710  0.46650  Biso   1.000  H
  C171     1.0000 0.10880  0.72090  0.40280  Biso   1.000  C
  H128     1.0000 0.10450  0.70060  0.41630  Biso   1.000  H
  C172     1.0000 0.13390  0.72020  0.37640  Biso   1.000  C
  H129     1.0000 0.14570  0.69910  0.37090  Biso   1.000  H
  O44      1.0000 0.67210  0.27760  0.81550  Biso   1.000  O
  C173     1.0000 0.57240  0.25320  0.97120  Biso   1.000  C
  C174     1.0000 0.60870  0.25570  0.98140  Biso   1.000  C
  H130     1.0000 0.62840  0.25710  0.96650  Biso   1.000  H
  C175     1.0000 0.60880  0.22090  0.90280  Biso   1.000  C
  H131     1.0000 0.60450  0.20060  0.91630  Biso   1.000  H
  C176     1.0000 0.63390  0.22020  0.87640  Biso   1.000  C
  H132     1.0000 0.64570  0.19910  0.87090  Biso   1.000  H
  O45      1.0000 0.82790  0.22240  0.31550  Biso   1.000  O
  C177     1.0000 0.92760  0.24680  0.47120  Biso   1.000  C
  C178     1.0000 0.89130  0.24430  0.48140  Biso   1.000  C
  H133     1.0000 0.87160  0.24290  0.46650  Biso   1.000  H
  C179     1.0000 0.89120  0.27910  0.40280  Biso   1.000  C
  H134     1.0000 0.89550  0.29940  0.41630  Biso   1.000  H
  C180     1.0000 0.86610  0.27980  0.37640  Biso   1.000  C
  H135     1.0000 0.85430  0.30090  0.37090  Biso   1.000  H
  O46      1.0000 0.32790  0.72240  0.81550  Biso   1.000  O
  C181     1.0000 0.42760  0.74680  0.97120  Biso   1.000  C
  C182     1.0000 0.39130  0.74430  0.98140  Biso   1.000  C
  H136     1.0000 0.37160  0.74290  0.96650  Biso   1.000  H
  C183     1.0000 0.39120  0.77910  0.90280  Biso   1.000  C
  H137     1.0000 0.39550  0.79940  0.91630  Biso   1.000  H
  C184     1.0000 0.36610  0.77980  0.87640  Biso   1.000  C
  H138     1.0000 0.35430  0.80090  0.87090  Biso   1.000  H
  O47      1.0000 0.82790  0.77760  0.68450  Biso   1.000  O
  C185     1.0000 0.92760  0.75320  0.52880  Biso   1.000  C
  C186     1.0000 0.89130  0.75570  0.51860  Biso   1.000  C
  H139     1.0000 0.87160  0.75710  0.53350  Biso   1.000  H
  C187     1.0000 0.89120  0.72090  0.59720  Biso   1.000  C
  H140     1.0000 0.89550  0.70060  0.58370  Biso   1.000  H
  C188     1.0000 0.86610  0.72020  0.62360  Biso   1.000  C
  H141     1.0000 0.85430  0.69910  0.62910  Biso   1.000  H
  O48      1.0000 0.32790  0.27760  0.18450  Biso   1.000  O
  C189     1.0000 0.42760  0.25320  0.02880  Biso   1.000  C
  C190     1.0000 0.39130  0.25570  0.01860  Biso   1.000  C
  H142     1.0000 0.37160  0.25710  0.03350  Biso   1.000  H
  C191     1.0000 0.39120  0.22090  0.09720  Biso   1.000  C
  H143     1.0000 0.39550  0.20060  0.08370  Biso   1.000  H
  C192     1.0000 0.36610  0.22020  0.12360  Biso   1.000  C
  H144     1.0000 0.35430  0.19910  0.12910  Biso   1.000  H
  O49      1.0000 0.68450  0.77760  0.82790  Biso   1.000  O
  C193     1.0000 0.52880  0.75320  0.92760  Biso   1.000  C
  C194     1.0000 0.51860  0.75570  0.89130  Biso   1.000  C
  H145     1.0000 0.53350  0.75710  0.87160  Biso   1.000  H
  C195     1.0000 0.59720  0.72090  0.89120  Biso   1.000  C
  H146     1.0000 0.58370  0.70060  0.89550  Biso   1.000  H
  C196     1.0000 0.62360  0.72020  0.86610  Biso   1.000  C
  H147     1.0000 0.62910  0.69910  0.85430  Biso   1.000  H
  O50      1.0000 0.18450  0.27760  0.32790  Biso   1.000  O
  C197     1.0000 0.02880  0.25320  0.42760  Biso   1.000  C
  C198     1.0000 0.01860  0.25570  0.39130  Biso   1.000  C
  H148     1.0000 0.03350  0.25710  0.37160  Biso   1.000  H
  C199     1.0000 0.09720  0.22090  0.39120  Biso   1.000  C
  H149     1.0000 0.08370  0.20060  0.39550  Biso   1.000  H
  C200     1.0000 0.12360  0.22020  0.36610  Biso   1.000  C
  H150     1.0000 0.12910  0.19910  0.35430  Biso   1.000  H
  O51      1.0000 0.31550  0.22240  0.82790  Biso   1.000  O
  C201     1.0000 0.47120  0.24680  0.92760  Biso   1.000  C
  C202     1.0000 0.48140  0.24430  0.89130  Biso   1.000  C
  H151     1.0000 0.46650  0.24290  0.87160  Biso   1.000  H
  C203     1.0000 0.40280  0.27910  0.89120  Biso   1.000  C
  H152     1.0000 0.41630  0.29940  0.89550  Biso   1.000  H
  C204     1.0000 0.37640  0.27980  0.86610  Biso   1.000  C
  H153     1.0000 0.37090  0.30090  0.85430  Biso   1.000  H
  O52      1.0000 0.81550  0.72240  0.32790  Biso   1.000  O
  C205     1.0000 0.97120  0.74680  0.42760  Biso   1.000  C
  C206     1.0000 0.98140  0.74430  0.39130  Biso   1.000  C
  H154     1.0000 0.96650  0.74290  0.37160  Biso   1.000  H
  C207     1.0000 0.90280  0.77910  0.39120  Biso   1.000  C
  H155     1.0000 0.91630  0.79940  0.39550  Biso   1.000  H
  C208     1.0000 0.87640  0.77980  0.36610  Biso   1.000  C
  H156     1.0000 0.87090  0.80090  0.35430  Biso   1.000  H
  O53      1.0000 0.31550  0.77760  0.17210  Biso   1.000  O
  C209     1.0000 0.47120  0.75320  0.07240  Biso   1.000  C
  C210     1.0000 0.48140  0.75570  0.10870  Biso   1.000  C
  H157     1.0000 0.46650  0.75710  0.12840  Biso   1.000  H
  C211     1.0000 0.40280  0.72090  0.10880  Biso   1.000  C
  H158     1.0000 0.41630  0.70060  0.10450  Biso   1.000  H
  C212     1.0000 0.37640  0.72020  0.13390  Biso   1.000  C
  H159     1.0000 0.37090  0.69910  0.14570  Biso   1.000  H
  O54      1.0000 0.81550  0.27760  0.67210  Biso   1.000  O
  C213     1.0000 0.97120  0.25320  0.57240  Biso   1.000  C
  C214     1.0000 0.98140  0.25570  0.60870  Biso   1.000  C
  H160     1.0000 0.96650  0.25710  0.62840  Biso   1.000  H
  C215     1.0000 0.90280  0.22090  0.60880  Biso   1.000  C
  H161     1.0000 0.91630  0.20060  0.60450  Biso   1.000  H
  C216     1.0000 0.87640  0.22020  0.63390  Biso   1.000  C
  H162     1.0000 0.87090  0.19910  0.64570  Biso   1.000  H
  O55      1.0000 0.68450  0.22240  0.17210  Biso   1.000  O
  C217     1.0000 0.52880  0.24680  0.07240  Biso   1.000  C
  C218     1.0000 0.51860  0.24430  0.10870  Biso   1.000  C
  H163     1.0000 0.53350  0.24290  0.12840  Biso   1.000  H
  C219     1.0000 0.59720  0.27910  0.10880  Biso   1.000  C
  H164     1.0000 0.58370  0.29940  0.10450  Biso   1.000  H
  C220     1.0000 0.62360  0.27980  0.13390  Biso   1.000  C
  H165     1.0000 0.62910  0.30090  0.14570  Biso   1.000  H
  O56      1.0000 0.18450  0.72240  0.67210  Biso   1.000  O
  C221     1.0000 0.02880  0.74680  0.57240  Biso   1.000  C
  C222     1.0000 0.01860  0.74430  0.60870  Biso   1.000  C
  H166     1.0000 0.03350  0.74290  0.62840  Biso   1.000  H
  C223     1.0000 0.09720  0.77910  0.60880  Biso   1.000  C
  H167     1.0000 0.08370  0.79940  0.60450  Biso   1.000  H
  C224     1.0000 0.12360  0.77980  0.63390  Biso   1.000  C
  H168     1.0000 0.12910  0.80090  0.64570  Biso   1.000  H
  O57      1.0000 0.82790  0.68450  0.77760  Biso   1.000  O
  C225     1.0000 0.92760  0.52880  0.75320  Biso   1.000  C
  C226     1.0000 0.89130  0.51860  0.75570  Biso   1.000  C
  H169     1.0000 0.87160  0.53350  0.75710  Biso   1.000  H
  C227     1.0000 0.89120  0.59720  0.72090  Biso   1.000  C
  H170     1.0000 0.89550  0.58370  0.70060  Biso   1.000  H
  C228     1.0000 0.86610  0.62360  0.72020  Biso   1.000  C
  H171     1.0000 0.85430  0.62910  0.69910  Biso   1.000  H
  O58      1.0000 0.32790  0.18450  0.27760  Biso   1.000  O
  C229     1.0000 0.42760  0.02880  0.25320  Biso   1.000  C
  C230     1.0000 0.39130  0.01860  0.25570  Biso   1.000  C
  H172     1.0000 0.37160  0.03350  0.25710  Biso   1.000  H
  C231     1.0000 0.39120  0.09720  0.22090  Biso   1.000  C
  H173     1.0000 0.39550  0.08370  0.20060  Biso   1.000  H
  C232     1.0000 0.36610  0.12360  0.22020  Biso   1.000  C
  H174     1.0000 0.35430  0.12910  0.19910  Biso   1.000  H
  O59      1.0000 0.82790  0.31550  0.22240  Biso   1.000  O
  C233     1.0000 0.92760  0.47120  0.24680  Biso   1.000  C
  C234     1.0000 0.89130  0.48140  0.24430  Biso   1.000  C
  H175     1.0000 0.87160  0.46650  0.24290  Biso   1.000  H
  C235     1.0000 0.89120  0.40280  0.27910  Biso   1.000  C
  H176     1.0000 0.89550  0.41630  0.29940  Biso   1.000  H
  C236     1.0000 0.86610  0.37640  0.27980  Biso   1.000  C
  H177     1.0000 0.85430  0.37090  0.30090  Biso   1.000  H
  O60      1.0000 0.32790  0.81550  0.72240  Biso   1.000  O
  C237     1.0000 0.42760  0.97120  0.74680  Biso   1.000  C
  C238     1.0000 0.39130  0.98140  0.74430  Biso   1.000  C
  H178     1.0000 0.37160  0.96650  0.74290  Biso   1.000  H
  C239     1.0000 0.39120  0.90280  0.77910  Biso   1.000  C
  H179     1.0000 0.39550  0.91630  0.79940  Biso   1.000  H
  C240     1.0000 0.36610  0.87640  0.77980  Biso   1.000  C
  H180     1.0000 0.35430  0.87090  0.80090  Biso   1.000  H
  O61      1.0000 0.17210  0.31550  0.77760  Biso   1.000  O
  C241     1.0000 0.07240  0.47120  0.75320  Biso   1.000  C
  C242     1.0000 0.10870  0.48140  0.75570  Biso   1.000  C
  H181     1.0000 0.12840  0.46650  0.75710  Biso   1.000  H
  C243     1.0000 0.10880  0.40280  0.72090  Biso   1.000  C
  H182     1.0000 0.10450  0.41630  0.70060  Biso   1.000  H
  C244     1.0000 0.13390  0.37640  0.72020  Biso   1.000  C
  H183     1.0000 0.14570  0.37090  0.69910  Biso   1.000  H
  O62      1.0000 0.67210  0.81550  0.27760  Biso   1.000  O
  C245     1.0000 0.57240  0.97120  0.25320  Biso   1.000  C
  C246     1.0000 0.60870  0.98140  0.25570  Biso   1.000  C
  H184     1.0000 0.62840  0.96650  0.25710  Biso   1.000  H
  C247     1.0000 0.60880  0.90280  0.22090  Biso   1.000  C
  H185     1.0000 0.60450  0.91630  0.20060  Biso   1.000  H
  C248     1.0000 0.63390  0.87640  0.22020  Biso   1.000  C
  H186     1.0000 0.64570  0.87090  0.19910  Biso   1.000  H
  O63      1.0000 0.17210  0.68450  0.22240  Biso   1.000  O
  C249     1.0000 0.07240  0.52880  0.24680  Biso   1.000  C
  C250     1.0000 0.10870  0.51860  0.24430  Biso   1.000  C
  H187     1.0000 0.12840  0.53350  0.24290  Biso   1.000  H
  C251     1.0000 0.10880  0.59720  0.27910  Biso   1.000  C
  H188     1.0000 0.10450  0.58370  0.29940  Biso   1.000  H
  C252     1.0000 0.13390  0.62360  0.27980  Biso   1.000  C
  H189     1.0000 0.14570  0.62910  0.30090  Biso   1.000  H
  O64      1.0000 0.67210  0.18450  0.72240  Biso   1.000  O
  C253     1.0000 0.57240  0.02880  0.74680  Biso   1.000  C
  C254     1.0000 0.60870  0.01860  0.74430  Biso   1.000  C
  H190     1.0000 0.62840  0.03350  0.74290  Biso   1.000  H
  C255     1.0000 0.60880  0.09720  0.77910  Biso   1.000  C
  H191     1.0000 0.60450  0.08370  0.79940  Biso   1.000  H
  C256     1.0000 0.63390  0.12360  0.77980  Biso   1.000  C
  H192     1.0000 0.64570  0.12910  0.80090  Biso   1.000  H
  O65      1.0000 0.77760  0.82790  0.68450  Biso   1.000  O
  C257     1.0000 0.75320  0.92760  0.52880  Biso   1.000  C
  C258     1.0000 0.75570  0.89130  0.51860  Biso   1.000  C
  H193     1.0000 0.75710  0.87160  0.53350  Biso   1.000  H
  C259     1.0000 0.72090  0.89120  0.59720  Biso   1.000  C
  H194     1.0000 0.70060  0.89550  0.58370  Biso   1.000  H
  C260     1.0000 0.72020  0.86610  0.62360  Biso   1.000  C
  H195     1.0000 0.69910  0.85430  0.62910  Biso   1.000  H
  O66      1.0000 0.27760  0.32790  0.18450  Biso   1.000  O
  C261     1.0000 0.25320  0.42760  0.02880  Biso   1.000  C
  C262     1.0000 0.25570  0.39130  0.01860  Biso   1.000  C
  H196     1.0000 0.25710  0.37160  0.03350  Biso   1.000  H
  C263     1.0000 0.22090  0.39120  0.09720  Biso   1.000  C
  H197     1.0000 0.20060  0.39550  0.08370  Biso   1.000  H
  C264     1.0000 0.22020  0.36610  0.12360  Biso   1.000  C
  H198     1.0000 0.19910  0.35430  0.12910  Biso   1.000  H
  O67      1.0000 0.22240  0.82790  0.31550  Biso   1.000  O
  C265     1.0000 0.24680  0.92760  0.47120  Biso   1.000  C
  C266     1.0000 0.24430  0.89130  0.48140  Biso   1.000  C
  H199     1.0000 0.24290  0.87160  0.46650  Biso   1.000  H
  C267     1.0000 0.27910  0.89120  0.40280  Biso   1.000  C
  H200     1.0000 0.29940  0.89550  0.41630  Biso   1.000  H
  C268     1.0000 0.27980  0.86610  0.37640  Biso   1.000  C
  H201     1.0000 0.30090  0.85430  0.37090  Biso   1.000  H
  O68      1.0000 0.72240  0.32790  0.81550  Biso   1.000  O
  C269     1.0000 0.74680  0.42760  0.97120  Biso   1.000  C
  C270     1.0000 0.74430  0.39130  0.98140  Biso   1.000  C
  H202     1.0000 0.74290  0.37160  0.96650  Biso   1.000  H
  C271     1.0000 0.77910  0.39120  0.90280  Biso   1.000  C
  H203     1.0000 0.79940  0.39550  0.91630  Biso   1.000  H
  C272     1.0000 0.77980  0.36610  0.87640  Biso   1.000  C
  H204     1.0000 0.80090  0.35430  0.87090  Biso   1.000  H
  O69      1.0000 0.77760  0.17210  0.31550  Biso   1.000  O
  C273     1.0000 0.75320  0.07240  0.47120  Biso   1.000  C
  C274     1.0000 0.75570  0.10870  0.48140  Biso   1.000  C
  H205     1.0000 0.75710  0.12840  0.46650  Biso   1.000  H
  C275     1.0000 0.72090  0.10880  0.40280  Biso   1.000  C
  H206     1.0000 0.70060  0.10450  0.41630  Biso   1.000  H
  C276     1.0000 0.72020  0.13390  0.37640  Biso   1.000  C
  H207     1.0000 0.69910  0.14570  0.37090  Biso   1.000  H
  O70      1.0000 0.27760  0.67210  0.81550  Biso   1.000  O
  C277     1.0000 0.25320  0.57240  0.97120  Biso   1.000  C
  C278     1.0000 0.25570  0.60870  0.98140  Biso   1.000  C
  H208     1.0000 0.25710  0.62840  0.96650  Biso   1.000  H
  C279     1.0000 0.22090  0.60880  0.90280  Biso   1.000  C
  H209     1.0000 0.20060  0.60450  0.91630  Biso   1.000  H
  C280     1.0000 0.22020  0.63390  0.87640  Biso   1.000  C
  H210     1.0000 0.19910  0.64570  0.87090  Biso   1.000  H
  O71      1.0000 0.22240  0.17210  0.68450  Biso   1.000  O
  C281     1.0000 0.24680  0.07240  0.52880  Biso   1.000  C
  C282     1.0000 0.24430  0.10870  0.51860  Biso   1.000  C
  H211     1.0000 0.24290  0.12840  0.53350  Biso   1.000  H
  C283     1.0000 0.27910  0.10880  0.59720  Biso   1.000  C
  H212     1.0000 0.29940  0.10450  0.58370  Biso   1.000  H
  C284     1.0000 0.27980  0.13390  0.62360  Biso   1.000  C
  H213     1.0000 0.30090  0.14570  0.62910  Biso   1.000  H
  O72      1.0000 0.72240  0.67210  0.18450  Biso   1.000  O
  C285     1.0000 0.74680  0.57240  0.02880  Biso   1.000  C
  C286     1.0000 0.74430  0.60870  0.01860  Biso   1.000  C
  H214     1.0000 0.74290  0.62840  0.03350  Biso   1.000  H
  C287     1.0000 0.77910  0.60880  0.09720  Biso   1.000  C
  H215     1.0000 0.79940  0.60450  0.08370  Biso   1.000  H
  C288     1.0000 0.77980  0.63390  0.12360  Biso   1.000  C
  H216     1.0000 0.80090  0.64570  0.12910  Biso   1.000  H
  O73      1.0000 0.77760  0.68450  0.17210  Biso   1.000  O
  C289     1.0000 0.75320  0.52880  0.07240  Biso   1.000  C
  C290     1.0000 0.75570  0.51860  0.10870  Biso   1.000  C
  H217     1.0000 0.75710  0.53350  0.12840  Biso   1.000  H
  C291     1.0000 0.72090  0.59720  0.10880  Biso   1.000  C
  H218     1.0000 0.70060  0.58370  0.10450  Biso   1.000  H
  C292     1.0000 0.72020  0.62360  0.13390  Biso   1.000  C
  H219     1.0000 0.69910  0.62910  0.14570  Biso   1.000  H
  O74      1.0000 0.27760  0.18450  0.67210  Biso   1.000  O
  C293     1.0000 0.25320  0.02880  0.57240  Biso   1.000  C
  C294     1.0000 0.25570  0.01860  0.60870  Biso   1.000  C
  H220     1.0000 0.25710  0.03350  0.62840  Biso   1.000  H
  C295     1.0000 0.22090  0.09720  0.60880  Biso   1.000  C
  H221     1.0000 0.20060  0.08370  0.60450  Biso   1.000  H
  C296     1.0000 0.22020  0.12360  0.63390  Biso   1.000  C
  H222     1.0000 0.19910  0.12910  0.64570  Biso   1.000  H
  O75      1.0000 0.22240  0.31550  0.17210  Biso   1.000  O
  C297     1.0000 0.24680  0.47120  0.07240  Biso   1.000  C
  C298     1.0000 0.24430  0.48140  0.10870  Biso   1.000  C
  H223     1.0000 0.24290  0.46650  0.12840  Biso   1.000  H
  C299     1.0000 0.27910  0.40280  0.10880  Biso   1.000  C
  H224     1.0000 0.29940  0.41630  0.10450  Biso   1.000  H
  C300     1.0000 0.27980  0.37640  0.13390  Biso   1.000  C
  H225     1.0000 0.30090  0.37090  0.14570  Biso   1.000  H
  O76      1.0000 0.72240  0.81550  0.67210  Biso   1.000  O
  C301     1.0000 0.74680  0.97120  0.57240  Biso   1.000  C
  C302     1.0000 0.74430  0.98140  0.60870  Biso   1.000  C
  H226     1.0000 0.74290  0.96650  0.62840  Biso   1.000  H
  C303     1.0000 0.77910  0.90280  0.60880  Biso   1.000  C
  H227     1.0000 0.79940  0.91630  0.60450  Biso   1.000  H
  C304     1.0000 0.77980  0.87640  0.63390  Biso   1.000  C
  H228     1.0000 0.80090  0.87090  0.64570  Biso   1.000  H
  O77      1.0000 0.77760  0.31550  0.82790  Biso   1.000  O
  C305     1.0000 0.75320  0.47120  0.92760  Biso   1.000  C
  C306     1.0000 0.75570  0.48140  0.89130  Biso   1.000  C
  H229     1.0000 0.75710  0.46650  0.87160  Biso   1.000  H
  C307     1.0000 0.72090  0.40280  0.89120  Biso   1.000  C
  H230     1.0000 0.70060  0.41630  0.89550  Biso   1.000  H
  C308     1.0000 0.72020  0.37640  0.86610  Biso   1.000  C
  H231     1.0000 0.69910  0.37090  0.85430  Biso   1.000  H
  O78      1.0000 0.27760  0.81550  0.32790  Biso   1.000  O
  C309     1.0000 0.25320  0.97120  0.42760  Biso   1.000  C
  C310     1.0000 0.25570  0.98140  0.39130  Biso   1.000  C
  H232     1.0000 0.25710  0.96650  0.37160  Biso   1.000  H
  C311     1.0000 0.22090  0.90280  0.39120  Biso   1.000  C
  H233     1.0000 0.20060  0.91630  0.39550  Biso   1.000  H
  C312     1.0000 0.22020  0.87640  0.36610  Biso   1.000  C
  H234     1.0000 0.19910  0.87090  0.35430  Biso   1.000  H
  O79      1.0000 0.22240  0.68450  0.82790  Biso   1.000  O
  C313     1.0000 0.24680  0.52880  0.92760  Biso   1.000  C
  C314     1.0000 0.24430  0.51860  0.89130  Biso   1.000  C
  H235     1.0000 0.24290  0.53350  0.87160  Biso   1.000  H
  C315     1.0000 0.27910  0.59720  0.89120  Biso   1.000  C
  H236     1.0000 0.29940  0.58370  0.89550  Biso   1.000  H
  C316     1.0000 0.27980  0.62360  0.86610  Biso   1.000  C
  H237     1.0000 0.30090  0.62910  0.85430  Biso   1.000  H
  O80      1.0000 0.72240  0.18450  0.32790  Biso   1.000  O
  C317     1.0000 0.74680  0.02880  0.42760  Biso   1.000  C
  C318     1.0000 0.74430  0.01860  0.39130  Biso   1.000  C
  H238     1.0000 0.74290  0.03350  0.37160  Biso   1.000  H
  C319     1.0000 0.77910  0.09720  0.39120  Biso   1.000  C
  H239     1.0000 0.79940  0.08370  0.39550  Biso   1.000  H
  C320     1.0000 0.77980  0.12360  0.36610  Biso   1.000  C
  H240     1.0000 0.80090  0.12910  0.35430  Biso   1.000  H
  O81      1.0000 0.68450  0.82790  0.22240  Biso   1.000  O
  C321     1.0000 0.52880  0.92760  0.24680  Biso   1.000  C
  C322     1.0000 0.51860  0.89130  0.24430  Biso   1.000  C
  H241     1.0000 0.53350  0.87160  0.24290  Biso   1.000  H
  C323     1.0000 0.59720  0.89120  0.27910  Biso   1.000  C
  H242     1.0000 0.58370  0.89550  0.29940  Biso   1.000  H
  C324     1.0000 0.62360  0.86610  0.27980  Biso   1.000  C
  H243     1.0000 0.62910  0.85430  0.30090  Biso   1.000  H
  O82      1.0000 0.18450  0.32790  0.72240  Biso   1.000  O
  C325     1.0000 0.02880  0.42760  0.74680  Biso   1.000  C
  C326     1.0000 0.01860  0.39130  0.74430  Biso   1.000  C
  H244     1.0000 0.03350  0.37160  0.74290  Biso   1.000  H
  C327     1.0000 0.09720  0.39120  0.77910  Biso   1.000  C
  H245     1.0000 0.08370  0.39550  0.79940  Biso   1.000  H
  C328     1.0000 0.12360  0.36610  0.77980  Biso   1.000  C
  H246     1.0000 0.12910  0.35430  0.80090  Biso   1.000  H
  O83      1.0000 0.31550  0.82790  0.77760  Biso   1.000  O
  C329     1.0000 0.47120  0.92760  0.75320  Biso   1.000  C
  C330     1.0000 0.48140  0.89130  0.75570  Biso   1.000  C
  H247     1.0000 0.46650  0.87160  0.75710  Biso   1.000  H
  C331     1.0000 0.40280  0.89120  0.72090  Biso   1.000  C
  H248     1.0000 0.41630  0.89550  0.70060  Biso   1.000  H
  C332     1.0000 0.37640  0.86610  0.72020  Biso   1.000  C
  H249     1.0000 0.37090  0.85430  0.69910  Biso   1.000  H
  O84      1.0000 0.81550  0.32790  0.27760  Biso   1.000  O
  C333     1.0000 0.97120  0.42760  0.25320  Biso   1.000  C
  C334     1.0000 0.98140  0.39130  0.25570  Biso   1.000  C
  H250     1.0000 0.96650  0.37160  0.25710  Biso   1.000  H
  C335     1.0000 0.90280  0.39120  0.22090  Biso   1.000  C
  H251     1.0000 0.91630  0.39550  0.20060  Biso   1.000  H
  C336     1.0000 0.87640  0.36610  0.22020  Biso   1.000  C
  H252     1.0000 0.87090  0.35430  0.19910  Biso   1.000  H
  O85      1.0000 0.31550  0.17210  0.22240  Biso   1.000  O
  C337     1.0000 0.47120  0.07240  0.24680  Biso   1.000  C
  C338     1.0000 0.48140  0.10870  0.24430  Biso   1.000  C
  H253     1.0000 0.46650  0.12840  0.24290  Biso   1.000  H
  C339     1.0000 0.40280  0.10880  0.27910  Biso   1.000  C
  H254     1.0000 0.41630  0.10450  0.29940  Biso   1.000  H
  C340     1.0000 0.37640  0.13390  0.27980  Biso   1.000  C
  H255     1.0000 0.37090  0.14570  0.30090  Biso   1.000  H
  O86      1.0000 0.81550  0.67210  0.72240  Biso   1.000  O
  C341     1.0000 0.97120  0.57240  0.74680  Biso   1.000  C
  C342     1.0000 0.98140  0.60870  0.74430  Biso   1.000  C
  H256     1.0000 0.96650  0.62840  0.74290  Biso   1.000  H
  C343     1.0000 0.90280  0.60880  0.77910  Biso   1.000  C
  H257     1.0000 0.91630  0.60450  0.79940  Biso   1.000  H
  C344     1.0000 0.87640  0.63390  0.77980  Biso   1.000  C
  H258     1.0000 0.87090  0.64570  0.80090  Biso   1.000  H
  O87      1.0000 0.68450  0.17210  0.77760  Biso   1.000  O
  C345     1.0000 0.52880  0.07240  0.75320  Biso   1.000  C
  C346     1.0000 0.51860  0.10870  0.75570  Biso   1.000  C
  H259     1.0000 0.53350  0.12840  0.75710  Biso   1.000  H
  C347     1.0000 0.59720  0.10880  0.72090  Biso   1.000  C
  H260     1.0000 0.58370  0.10450  0.70060  Biso   1.000  H
  C348     1.0000 0.62360  0.13390  0.72020  Biso   1.000  C
  H261     1.0000 0.62910  0.14570  0.69910  Biso   1.000  H
  O88      1.0000 0.18450  0.67210  0.27760  Biso   1.000  O
  C349     1.0000 0.02880  0.57240  0.25320  Biso   1.000  C
  C350     1.0000 0.01860  0.60870  0.25570  Biso   1.000  C
  H262     1.0000 0.03350  0.62840  0.25710  Biso   1.000  H
  C351     1.0000 0.09720  0.60880  0.22090  Biso   1.000  C
  H263     1.0000 0.08370  0.60450  0.20060  Biso   1.000  H
  C352     1.0000 0.12360  0.63390  0.22020  Biso   1.000  C
  H264     1.0000 0.12910  0.64570  0.19910  Biso   1.000  H
  O89      1.0000 0.82790  0.77760  0.31550  Biso   1.000  O
  C353     1.0000 0.92760  0.75320  0.47120  Biso   1.000  C
  C354     1.0000 0.89130  0.75570  0.48140  Biso   1.000  C
  H265     1.0000 0.87160  0.75710  0.46650  Biso   1.000  H
  C355     1.0000 0.89120  0.72090  0.40280  Biso   1.000  C
  H266     1.0000 0.89550  0.70060  0.41630  Biso   1.000  H
  C356     1.0000 0.86610  0.72020  0.37640  Biso   1.000  C
  H267     1.0000 0.85430  0.69910  0.37090  Biso   1.000  H
  O90      1.0000 0.32790  0.27760  0.81550  Biso   1.000  O
  C357     1.0000 0.42760  0.25320  0.97120  Biso   1.000  C
  C358     1.0000 0.39130  0.25570  0.98140  Biso   1.000  C
  H268     1.0000 0.37160  0.25710  0.96650  Biso   1.000  H
  C359     1.0000 0.39120  0.22090  0.90280  Biso   1.000  C
  H269     1.0000 0.39550  0.20060  0.91630  Biso   1.000  H
  C360     1.0000 0.36610  0.22020  0.87640  Biso   1.000  C
  H270     1.0000 0.35430  0.19910  0.87090  Biso   1.000  H
  O91      1.0000 0.82790  0.22240  0.68450  Biso   1.000  O
  C361     1.0000 0.92760  0.24680  0.52880  Biso   1.000  C
  C362     1.0000 0.89130  0.24430  0.51860  Biso   1.000  C
  H271     1.0000 0.87160  0.24290  0.53350  Biso   1.000  H
  C363     1.0000 0.89120  0.27910  0.59720  Biso   1.000  C
  H272     1.0000 0.89550  0.29940  0.58370  Biso   1.000  H
  C364     1.0000 0.86610  0.27980  0.62360  Biso   1.000  C
  H273     1.0000 0.85430  0.30090  0.62910  Biso   1.000  H
  O92      1.0000 0.32790  0.72240  0.18450  Biso   1.000  O
  C365     1.0000 0.42760  0.74680  0.02880  Biso   1.000  C
  C366     1.0000 0.39130  0.74430  0.01860  Biso   1.000  C
  H274     1.0000 0.37160  0.74290  0.03350  Biso   1.000  H
  C367     1.0000 0.39120  0.77910  0.09720  Biso   1.000  C
  H275     1.0000 0.39550  0.79940  0.08370  Biso   1.000  H
  C368     1.0000 0.36610  0.77980  0.12360  Biso   1.000  C
  H276     1.0000 0.35430  0.80090  0.12910  Biso   1.000  H
  O93      1.0000 0.17210  0.77760  0.68450  Biso   1.000  O
  C369     1.0000 0.07240  0.75320  0.52880  Biso   1.000  C
  C370     1.0000 0.10870  0.75570  0.51860  Biso   1.000  C
  H277     1.0000 0.12840  0.75710  0.53350  Biso   1.000  H
  C371     1.0000 0.10880  0.72090  0.59720  Biso   1.000  C
  H278     1.0000 0.10450  0.70060  0.58370  Biso   1.000  H
  C372     1.0000 0.13390  0.72020  0.62360  Biso   1.000  C
  H279     1.0000 0.14570  0.69910  0.62910  Biso   1.000  H
  O94      1.0000 0.67210  0.27760  0.18450  Biso   1.000  O
  C373     1.0000 0.57240  0.25320  0.02880  Biso   1.000  C
  C374     1.0000 0.60870  0.25570  0.01860  Biso   1.000  C
  H280     1.0000 0.62840  0.25710  0.03350  Biso   1.000  H
  C375     1.0000 0.60880  0.22090  0.09720  Biso   1.000  C
  H281     1.0000 0.60450  0.20060  0.08370  Biso   1.000  H
  C376     1.0000 0.63390  0.22020  0.12360  Biso   1.000  C
  H282     1.0000 0.64570  0.19910  0.12910  Biso   1.000  H
  O95      1.0000 0.17210  0.22240  0.31550  Biso   1.000  O
  C377     1.0000 0.07240  0.24680  0.47120  Biso   1.000  C
  C378     1.0000 0.10870  0.24430  0.48140  Biso   1.000  C
  H283     1.0000 0.12840  0.24290  0.46650  Biso   1.000  H
  C379     1.0000 0.10880  0.27910  0.40280  Biso   1.000  C
  H284     1.0000 0.10450  0.29940  0.41630  Biso   1.000  H
  C380     1.0000 0.13390  0.27980  0.37640  Biso   1.000  C
  H285     1.0000 0.14570  0.30090  0.37090  Biso   1.000  H
  O96      1.0000 0.67210  0.72240  0.81550  Biso   1.000  O
  C381     1.0000 0.57240  0.74680  0.97120  Biso   1.000  C
  C382     1.0000 0.60870  0.74430  0.98140  Biso   1.000  C
  H286     1.0000 0.62840  0.74290  0.96650  Biso   1.000  H
  C383     1.0000 0.60880  0.77910  0.90280  Biso   1.000  C
  H287     1.0000 0.60450  0.79940  0.91630  Biso   1.000  H
  C384     1.0000 0.63390  0.77980  0.87640  Biso   1.000  C
  H288     1.0000 0.64570  0.80090  0.87090  Biso   1.000  H
  Hf1      1.0000 0.27144  0.20721  0.20721  Biso   1.000  Hf
  O97      1.0000 0.30560  0.24220  0.24220  Biso   1.000  O
  Hf2      1.0000 0.77144  0.70721  0.70721  Biso   1.000  Hf
  O98      1.0000 0.80560  0.74220  0.74220  Biso   1.000  O
  Hf3      1.0000 0.72856  0.79279  0.20721  Biso   1.000  Hf
  O99      1.0000 0.69440  0.75780  0.24220  Biso   1.000  O
  Hf4      1.0000 0.22856  0.29279  0.70721  Biso   1.000  Hf
  O100     1.0000 0.19440  0.25780  0.74220  Biso   1.000  O
  Hf5      1.0000 0.72856  0.20721  0.79279  Biso   1.000  Hf
  O101     1.0000 0.69440  0.24220  0.75780  Biso   1.000  O
  Hf6      1.0000 0.22856  0.70721  0.29279  Biso   1.000  Hf
  O102     1.0000 0.19440  0.74220  0.25780  Biso   1.000  O
  Hf7      1.0000 0.27144  0.79279  0.79279  Biso   1.000  Hf
  O103     1.0000 0.30560  0.75780  0.75780  Biso   1.000  O
  Hf8      1.0000 0.77144  0.29279  0.29279  Biso   1.000  Hf
  O104     1.0000 0.80560  0.25780  0.25780  Biso   1.000  O
  Hf9      1.0000 0.20721  0.27144  0.20721  Biso   1.000  Hf
  O105     1.0000 0.24220  0.30560  0.24220  Biso   1.000  O
  Hf10     1.0000 0.70721  0.77144  0.70721  Biso   1.000  Hf
  O106     1.0000 0.74220  0.80560  0.74220  Biso   1.000  O
  Hf11     1.0000 0.20721  0.72856  0.79279  Biso   1.000  Hf
  O107     1.0000 0.24220  0.69440  0.75780  Biso   1.000  O
  Hf12     1.0000 0.70721  0.22856  0.29279  Biso   1.000  Hf
  O108     1.0000 0.74220  0.19440  0.25780  Biso   1.000  O
  Hf13     1.0000 0.79279  0.72856  0.20721  Biso   1.000  Hf
  O109     1.0000 0.75780  0.69440  0.24220  Biso   1.000  O
  Hf14     1.0000 0.29279  0.22856  0.70721  Biso   1.000  Hf
  O110     1.0000 0.25780  0.19440  0.74220  Biso   1.000  O
  Hf15     1.0000 0.79279  0.27144  0.79279  Biso   1.000  Hf
  O111     1.0000 0.75780  0.30560  0.75780  Biso   1.000  O
  Hf16     1.0000 0.29279  0.77144  0.29279  Biso   1.000  Hf
  O112     1.0000 0.25780  0.80560  0.25780  Biso   1.000  O
  Hf17     1.0000 0.20721  0.20721  0.27144  Biso   1.000  Hf
  O113     1.0000 0.24220  0.24220  0.30560  Biso   1.000  O
  Hf18     1.0000 0.70721  0.70721  0.77144  Biso   1.000  Hf
  O114     1.0000 0.74220  0.74220  0.80560  Biso   1.000  O
  Hf19     1.0000 0.79279  0.20721  0.72856  Biso   1.000  Hf
  O115     1.0000 0.75780  0.24220  0.69440  Biso   1.000  O
  Hf20     1.0000 0.29279  0.70721  0.22856  Biso   1.000  Hf
  O116     1.0000 0.25780  0.74220  0.19440  Biso   1.000  O
  Hf21     1.0000 0.20721  0.79279  0.72856  Biso   1.000  Hf
  O117     1.0000 0.24220  0.75780  0.69440  Biso   1.000  O
  Hf22     1.0000 0.70721  0.29279  0.22856  Biso   1.000  Hf
  O118     1.0000 0.74220  0.25780  0.19440  Biso   1.000  O
  Hf23     1.0000 0.79279  0.79279  0.27144  Biso   1.000  Hf
  O119     1.0000 0.75780  0.75780  0.30560  Biso   1.000  O
  Hf24     1.0000 0.29279  0.29279  0.77144  Biso   1.000  Hf
  O120     1.0000 0.25780  0.25780  0.80560  Biso   1.000  O
  Hf25     1.0000 0.20721  0.27144  0.79279  Biso   1.000  Hf
  O121     1.0000 0.24220  0.30560  0.75780  Biso   1.000  O
  Hf26     1.0000 0.70721  0.77144  0.29279  Biso   1.000  Hf
  O122     1.0000 0.74220  0.80560  0.25780  Biso   1.000  O
  Hf27     1.0000 0.79279  0.72856  0.79279  Biso   1.000  Hf
  O123     1.0000 0.75780  0.69440  0.75780  Biso   1.000  O
  Hf28     1.0000 0.29279  0.22856  0.29279  Biso   1.000  Hf
  O124     1.0000 0.25780  0.19440  0.25780  Biso   1.000  O
  Hf29     1.0000 0.20721  0.72856  0.20721  Biso   1.000  Hf
  O125     1.0000 0.24220  0.69440  0.24220  Biso   1.000  O
  Hf30     1.0000 0.70721  0.22856  0.70721  Biso   1.000  Hf
  O126     1.0000 0.74220  0.19440  0.74220  Biso   1.000  O
  Hf31     1.0000 0.79279  0.27144  0.20721  Biso   1.000  Hf
  O127     1.0000 0.75780  0.30560  0.24220  Biso   1.000  O
  Hf32     1.0000 0.29279  0.77144  0.70721  Biso   1.000  Hf
  O128     1.0000 0.25780  0.80560  0.74220  Biso   1.000  O
  Hf33     1.0000 0.27144  0.20721  0.79279  Biso   1.000  Hf
  O129     1.0000 0.30560  0.24220  0.75780  Biso   1.000  O
  Hf34     1.0000 0.77144  0.70721  0.29279  Biso   1.000  Hf
  O130     1.0000 0.80560  0.74220  0.25780  Biso   1.000  O
  Hf35     1.0000 0.72856  0.20721  0.20721  Biso   1.000  Hf
  O131     1.0000 0.69440  0.24220  0.24220  Biso   1.000  O
  Hf36     1.0000 0.22856  0.70721  0.70721  Biso   1.000  Hf
  O132     1.0000 0.19440  0.74220  0.74220  Biso   1.000  O
  Hf37     1.0000 0.72856  0.79279  0.79279  Biso   1.000  Hf
  O133     1.0000 0.69440  0.75780  0.75780  Biso   1.000  O
  Hf38     1.0000 0.22856  0.29279  0.29279  Biso   1.000  Hf
  O134     1.0000 0.19440  0.25780  0.25780  Biso   1.000  O
  Hf39     1.0000 0.27144  0.79279  0.20721  Biso   1.000  Hf
  O135     1.0000 0.30560  0.75780  0.24220  Biso   1.000  O
  Hf40     1.0000 0.77144  0.29279  0.70721  Biso   1.000  Hf
  O136     1.0000 0.80560  0.25780  0.74220  Biso   1.000  O
  Hf41     1.0000 0.20721  0.20721  0.72856  Biso   1.000  Hf
  O137     1.0000 0.24220  0.24220  0.69440  Biso   1.000  O
  Hf42     1.0000 0.70721  0.70721  0.22856  Biso   1.000  Hf
  O138     1.0000 0.74220  0.74220  0.19440  Biso   1.000  O
  Hf43     1.0000 0.20721  0.79279  0.27144  Biso   1.000  Hf
  O139     1.0000 0.24220  0.75780  0.30560  Biso   1.000  O
  Hf44     1.0000 0.70721  0.29279  0.77144  Biso   1.000  Hf
  O140     1.0000 0.74220  0.25780  0.80560  Biso   1.000  O
  Hf45     1.0000 0.79279  0.20721  0.27144  Biso   1.000  Hf
  O141     1.0000 0.75780  0.24220  0.30560  Biso   1.000  O
  Hf46     1.0000 0.29279  0.70721  0.77144  Biso   1.000  Hf
  O142     1.0000 0.25780  0.74220  0.80560  Biso   1.000  O
  Hf47     1.0000 0.79279  0.79279  0.72856  Biso   1.000  Hf
  O143     1.0000 0.75780  0.75780  0.69440  Biso   1.000  O
  Hf48     1.0000 0.29279  0.29279  0.22856  Biso   1.000  Hf
  O144     1.0000 0.25780  0.25780  0.19440  Biso   1.000  O
  Ir1      1.0000 0.50000  0.25000  0.00000  Biso   1.000  Ir
  Ir2      1.0000 0.50000  0.75000  0.00000  Biso   1.000  Ir
  Ir3      1.0000 0.00000  0.50000  0.25000  Biso   1.000  Ir
  Ir4      1.0000 0.00000  0.50000  0.75000  Biso   1.000  Ir
  Ir5      1.0000 0.25000  0.00000  0.50000  Biso   1.000  Ir
  Ir6      1.0000 0.75000  0.00000  0.50000  Biso   1.000  Ir
  Ir7      1.0000 0.25000  0.50000  0.00000  Biso   1.000  Ir
  Ir8      1.0000 0.75000  0.50000  0.00000  Biso   1.000  Ir
  Ir9      1.0000 0.50000  0.00000  0.75000  Biso   1.000  Ir
  Ir10     1.0000 0.50000  0.00000  0.25000  Biso   1.000  Ir
  Ir11     1.0000 0.00000  0.25000  0.50000  Biso   1.000  Ir
  Ir12     1.0000 0.00000  0.75000  0.50000  Biso   1.000  Ir
  Cl1      1.0000 0.50000  0.31430  0.00000  Biso   1.000  Cl
  Cl2      1.0000 0.00000  0.81430  0.50000  Biso   1.000  Cl
  Cl3      1.0000 0.50000  0.68570  0.00000  Biso   1.000  Cl
  Cl4      1.0000 0.00000  0.18570  0.50000  Biso   1.000  Cl
  Cl5      1.0000 0.00000  0.50000  0.31430  Biso   1.000  Cl
  Cl6      1.0000 0.50000  0.00000  0.81430  Biso   1.000  Cl
  Cl7      1.0000 0.00000  0.50000  0.68570  Biso   1.000  Cl
  Cl8      1.0000 0.50000  0.00000  0.18570  Biso   1.000  Cl
  Cl9      1.0000 0.31430  0.00000  0.50000  Biso   1.000  Cl
  Cl10     1.0000 0.81430  0.50000  0.00000  Biso   1.000  Cl
  Cl11     1.0000 0.68570  0.00000  0.50000  Biso   1.000  Cl
  Cl12     1.0000 0.18570  0.50000  0.00000  Biso   1.000  Cl
  Cl13     1.0000 0.31430  0.50000  0.00000  Biso   1.000  Cl
  Cl14     1.0000 0.81430  0.00000  0.50000  Biso   1.000  Cl
  Cl15     1.0000 0.68570  0.50000  0.00000  Biso   1.000  Cl
  Cl16     1.0000 0.18570  0.00000  0.50000  Biso   1.000  Cl
  Cl17     1.0000 0.50000  0.00000  0.68570  Biso   1.000  Cl
  Cl18     1.0000 0.00000  0.50000  0.18570  Biso   1.000  Cl
  Cl19     1.0000 0.50000  0.00000  0.31430  Biso   1.000  Cl
  Cl20     1.0000 0.00000  0.50000  0.81430  Biso   1.000  Cl
  Cl21     1.0000 0.00000  0.31430  0.50000  Biso   1.000  Cl
  Cl22     1.0000 0.50000  0.81430  0.00000  Biso   1.000  Cl
  Cl23     1.0000 0.00000  0.68570  0.50000  Biso   1.000  Cl
  Cl24     1.0000 0.50000  0.18570  0.00000  Biso   1.000  Cl
  O145     1.0000 0.21440  0.21440  0.21440  Biso   1.000  O
  O146     1.0000 0.71440  0.71440  0.71440  Biso   1.000  O
  O147     1.0000 0.78560  0.78560  0.21440  Biso   1.000  O
  O148     1.0000 0.28560  0.28560  0.71440  Biso   1.000  O
  O149     1.0000 0.78560  0.21440  0.78560  Biso   1.000  O
  O150     1.0000 0.28560  0.71440  0.28560  Biso   1.000  O
  O151     1.0000 0.21440  0.78560  0.78560  Biso   1.000  O
  O152     1.0000 0.71440  0.28560  0.28560  Biso   1.000  O
  O153     1.0000 0.21440  0.21440  0.78560  Biso   1.000  O
  O154     1.0000 0.71440  0.71440  0.28560  Biso   1.000  O
  O155     1.0000 0.78560  0.78560  0.78560  Biso   1.000  O
  O156     1.0000 0.28560  0.28560  0.28560  Biso   1.000  O
  O157     1.0000 0.21440  0.78560  0.21440  Biso   1.000  O
  O158     1.0000 0.71440  0.28560  0.71440  Biso   1.000  O
  O159     1.0000 0.78560  0.21440  0.21440  Biso   1.000  O
  O160     1.0000 0.28560  0.71440  0.71440  Biso   1.000  O
  N1       1.0000 0.50000  0.24790  0.05220  Biso   1.000  N
  N2       1.0000 0.00000  0.74790  0.55220  Biso   1.000  N
  N3       1.0000 0.50000  0.75210  0.05220  Biso   1.000  N
  N4       1.0000 0.00000  0.25210  0.55220  Biso   1.000  N
  N5       1.0000 0.50000  0.24790  0.94780  Biso   1.000  N
  N6       1.0000 0.00000  0.74790  0.44780  Biso   1.000  N
  N7       1.0000 0.50000  0.75210  0.94780  Biso   1.000  N
  N8       1.0000 0.00000  0.25210  0.44780  Biso   1.000  N
  N9       1.0000 0.05220  0.50000  0.24790  Biso   1.000  N
  N10      1.0000 0.55220  0.00000  0.74790  Biso   1.000  N
  N11      1.0000 0.05220  0.50000  0.75210  Biso   1.000  N
  N12      1.0000 0.55220  0.00000  0.25210  Biso   1.000  N
  N13      1.0000 0.94780  0.50000  0.24790  Biso   1.000  N
  N14      1.0000 0.44780  0.00000  0.74790  Biso   1.000  N
  N15      1.0000 0.94780  0.50000  0.75210  Biso   1.000  N
  N16      1.0000 0.44780  0.00000  0.25210  Biso   1.000  N
  N17      1.0000 0.24790  0.05220  0.50000  Biso   1.000  N
  N18      1.0000 0.74790  0.55220  0.00000  Biso   1.000  N
  N19      1.0000 0.75210  0.05220  0.50000  Biso   1.000  N
  N20      1.0000 0.25210  0.55220  0.00000  Biso   1.000  N
  N21      1.0000 0.24790  0.94780  0.50000  Biso   1.000  N
  N22      1.0000 0.74790  0.44780  0.00000  Biso   1.000  N
  N23      1.0000 0.75210  0.94780  0.50000  Biso   1.000  N
  N24      1.0000 0.25210  0.44780  0.00000  Biso   1.000  N
  N25      1.0000 0.24790  0.50000  0.94780  Biso   1.000  N
  N26      1.0000 0.74790  0.00000  0.44780  Biso   1.000  N
  N27      1.0000 0.75210  0.50000  0.94780  Biso   1.000  N
  N28      1.0000 0.25210  0.00000  0.44780  Biso   1.000  N
  N29      1.0000 0.24790  0.50000  0.05220  Biso   1.000  N
  N30      1.0000 0.74790  0.00000  0.55220  Biso   1.000  N
  N31      1.0000 0.75210  0.50000  0.05220  Biso   1.000  N
  N32      1.0000 0.25210  0.00000  0.55220  Biso   1.000  N
  N33      1.0000 0.50000  0.05220  0.75210  Biso   1.000  N
  N34      1.0000 0.00000  0.55220  0.25210  Biso   1.000  N
  N35      1.0000 0.50000  0.05220  0.24790  Biso   1.000  N
  N36      1.0000 0.00000  0.55220  0.74790  Biso   1.000  N
  N37      1.0000 0.50000  0.94780  0.75210  Biso   1.000  N
  N38      1.0000 0.00000  0.44780  0.25210  Biso   1.000  N
  N39      1.0000 0.50000  0.94780  0.24790  Biso   1.000  N
  N40      1.0000 0.00000  0.44780  0.74790  Biso   1.000  N
  N41      1.0000 0.05220  0.24790  0.50000  Biso   1.000  N
  N42      1.0000 0.55220  0.74790  0.00000  Biso   1.000  N
  N43      1.0000 0.05220  0.75210  0.50000  Biso   1.000  N
  N44      1.0000 0.55220  0.25210  0.00000  Biso   1.000  N
  N45      1.0000 0.94780  0.24790  0.50000  Biso   1.000  N
  N46      1.0000 0.44780  0.74790  0.00000  Biso   1.000  N
  N47      1.0000 0.94780  0.75210  0.50000  Biso   1.000  N
  N48      1.0000 0.44780  0.25210  0.00000  Biso   1.000  N
  C385     1.0000 0.43730  0.25000  0.06270  Biso   1.000  C
  C386     1.0000 0.40930  0.25000  0.09070  Biso   1.000  C
  C387     1.0000 0.35870  0.25000  0.14130  Biso   1.000  C
  C388     1.0000 0.33030  0.25000  0.16970  Biso   1.000  C
  C389     1.0000 0.56270  0.75000  0.06270  Biso   1.000  C
  C390     1.0000 0.59070  0.75000  0.09070  Biso   1.000  C
  C391     1.0000 0.64130  0.75000  0.14130  Biso   1.000  C
  C392     1.0000 0.66970  0.75000  0.16970  Biso   1.000  C
  C393     1.0000 0.56270  0.25000  0.93730  Biso   1.000  C
  C394     1.0000 0.59070  0.25000  0.90930  Biso   1.000  C
  C395     1.0000 0.64130  0.25000  0.85870  Biso   1.000  C
  C396     1.0000 0.66970  0.25000  0.83030  Biso   1.000  C
  C397     1.0000 0.43730  0.75000  0.93730  Biso   1.000  C
  C398     1.0000 0.40930  0.75000  0.90930  Biso   1.000  C
  C399     1.0000 0.35870  0.75000  0.85870  Biso   1.000  C
  C400     1.0000 0.33030  0.75000  0.83030  Biso   1.000  C
  C401     1.0000 0.06270  0.43730  0.25000  Biso   1.000  C
  C402     1.0000 0.09070  0.40930  0.25000  Biso   1.000  C
  C403     1.0000 0.14130  0.35870  0.25000  Biso   1.000  C
  C404     1.0000 0.16970  0.33030  0.25000  Biso   1.000  C
  C405     1.0000 0.06270  0.56270  0.75000  Biso   1.000  C
  C406     1.0000 0.09070  0.59070  0.75000  Biso   1.000  C
  C407     1.0000 0.14130  0.64130  0.75000  Biso   1.000  C
  C408     1.0000 0.16970  0.66970  0.75000  Biso   1.000  C
  C409     1.0000 0.93730  0.56270  0.25000  Biso   1.000  C
  C410     1.0000 0.90930  0.59070  0.25000  Biso   1.000  C
  C411     1.0000 0.85870  0.64130  0.25000  Biso   1.000  C
  C412     1.0000 0.83030  0.66970  0.25000  Biso   1.000  C
  C413     1.0000 0.93730  0.43730  0.75000  Biso   1.000  C
  C414     1.0000 0.90930  0.40930  0.75000  Biso   1.000  C
  C415     1.0000 0.85870  0.35870  0.75000  Biso   1.000  C
  C416     1.0000 0.83030  0.33030  0.75000  Biso   1.000  C
  C417     1.0000 0.25000  0.06270  0.43730  Biso   1.000  C
  C418     1.0000 0.25000  0.09070  0.40930  Biso   1.000  C
  C419     1.0000 0.25000  0.14130  0.35870  Biso   1.000  C
  C420     1.0000 0.25000  0.16970  0.33030  Biso   1.000  C
  C421     1.0000 0.75000  0.06270  0.56270  Biso   1.000  C
  C422     1.0000 0.75000  0.09070  0.59070  Biso   1.000  C
  C423     1.0000 0.75000  0.14130  0.64130  Biso   1.000  C
  C424     1.0000 0.75000  0.16970  0.66970  Biso   1.000  C
  C425     1.0000 0.25000  0.93730  0.56270  Biso   1.000  C
  C426     1.0000 0.25000  0.90930  0.59070  Biso   1.000  C
  C427     1.0000 0.25000  0.85870  0.64130  Biso   1.000  C
  C428     1.0000 0.25000  0.83030  0.66970  Biso   1.000  C
  C429     1.0000 0.75000  0.93730  0.43730  Biso   1.000  C
  C430     1.0000 0.75000  0.90930  0.40930  Biso   1.000  C
  C431     1.0000 0.75000  0.85870  0.35870  Biso   1.000  C
  C432     1.0000 0.75000  0.83030  0.33030  Biso   1.000  C
  C433     1.0000 0.25000  0.43730  0.93730  Biso   1.000  C
  C434     1.0000 0.25000  0.40930  0.90930  Biso   1.000  C
  C435     1.0000 0.25000  0.35870  0.85870  Biso   1.000  C
  C436     1.0000 0.25000  0.33030  0.83030  Biso   1.000  C
  C437     1.0000 0.75000  0.56270  0.93730  Biso   1.000  C
  C438     1.0000 0.75000  0.59070  0.90930  Biso   1.000  C
  C439     1.0000 0.75000  0.64130  0.85870  Biso   1.000  C
  C440     1.0000 0.75000  0.66970  0.83030  Biso   1.000  C
  C441     1.0000 0.25000  0.56270  0.06270  Biso   1.000  C
  C442     1.0000 0.25000  0.59070  0.09070  Biso   1.000  C
  C443     1.0000 0.25000  0.64130  0.14130  Biso   1.000  C
  C444     1.0000 0.25000  0.66970  0.16970  Biso   1.000  C
  C445     1.0000 0.75000  0.43730  0.06270  Biso   1.000  C
  C446     1.0000 0.75000  0.40930  0.09070  Biso   1.000  C
  C447     1.0000 0.75000  0.35870  0.14130  Biso   1.000  C
  C448     1.0000 0.75000  0.33030  0.16970  Biso   1.000  C
  C449     1.0000 0.43730  0.06270  0.75000  Biso   1.000  C
  C450     1.0000 0.40930  0.09070  0.75000  Biso   1.000  C
  C451     1.0000 0.35870  0.14130  0.75000  Biso   1.000  C
  C452     1.0000 0.33030  0.16970  0.75000  Biso   1.000  C
  C453     1.0000 0.56270  0.06270  0.25000  Biso   1.000  C
  C454     1.0000 0.59070  0.09070  0.25000  Biso   1.000  C
  C455     1.0000 0.64130  0.14130  0.25000  Biso   1.000  C
  C456     1.0000 0.66970  0.16970  0.25000  Biso   1.000  C
  C457     1.0000 0.56270  0.93730  0.75000  Biso   1.000  C
  C458     1.0000 0.59070  0.90930  0.75000  Biso   1.000  C
  C459     1.0000 0.64130  0.85870  0.75000  Biso   1.000  C
  C460     1.0000 0.66970  0.83030  0.75000  Biso   1.000  C
  C461     1.0000 0.43730  0.93730  0.25000  Biso   1.000  C
  C462     1.0000 0.40930  0.90930  0.25000  Biso   1.000  C
  C463     1.0000 0.35870  0.85870  0.25000  Biso   1.000  C
  C464     1.0000 0.33030  0.83030  0.25000  Biso   1.000  C
  C465     1.0000 0.06270  0.25000  0.56270  Biso   1.000  C
  C466     1.0000 0.09070  0.25000  0.59070  Biso   1.000  C
  C467     1.0000 0.14130  0.25000  0.64130  Biso   1.000  C
  C468     1.0000 0.16970  0.25000  0.66970  Biso   1.000  C
  C469     1.0000 0.06270  0.75000  0.43730  Biso   1.000  C
  C470     1.0000 0.09070  0.75000  0.40930  Biso   1.000  C
  C471     1.0000 0.14130  0.75000  0.35870  Biso   1.000  C
  C472     1.0000 0.16970  0.75000  0.33030  Biso   1.000  C
  C473     1.0000 0.93730  0.25000  0.43730  Biso   1.000  C
  C474     1.0000 0.90930  0.25000  0.40930  Biso   1.000  C
  C475     1.0000 0.85870  0.25000  0.35870  Biso   1.000  C
  C476     1.0000 0.83030  0.25000  0.33030  Biso   1.000  C
  C477     1.0000 0.93730  0.75000  0.56270  Biso   1.000  C
  C478     1.0000 0.90930  0.75000  0.59070  Biso   1.000  C
  C479     1.0000 0.85870  0.75000  0.64130  Biso   1.000  C
  C480     1.0000 0.83030  0.75000  0.66970  Biso   1.000  C
  C481     1.0000 0.56270  0.75000  0.93730  Biso   1.000  C
  C482     1.0000 0.59070  0.75000  0.90930  Biso   1.000  C
  C483     1.0000 0.64130  0.75000  0.85870  Biso   1.000  C
  C484     1.0000 0.66970  0.75000  0.83030  Biso   1.000  C
  C485     1.0000 0.06270  0.25000  0.43730  Biso   1.000  C
  C486     1.0000 0.09070  0.25000  0.40930  Biso   1.000  C
  C487     1.0000 0.14130  0.25000  0.35870  Biso   1.000  C
  C488     1.0000 0.16970  0.25000  0.33030  Biso   1.000  C
  C489     1.0000 0.43730  0.25000  0.93730  Biso   1.000  C
  C490     1.0000 0.40930  0.25000  0.90930  Biso   1.000  C
  C491     1.0000 0.35870  0.25000  0.85870  Biso   1.000  C
  C492     1.0000 0.33030  0.25000  0.83030  Biso   1.000  C
  C493     1.0000 0.43730  0.75000  0.06270  Biso   1.000  C
  C494     1.0000 0.40930  0.75000  0.09070  Biso   1.000  C
  C495     1.0000 0.35870  0.75000  0.14130  Biso   1.000  C
  C496     1.0000 0.33030  0.75000  0.16970  Biso   1.000  C
  C497     1.0000 0.56270  0.25000  0.06270  Biso   1.000  C
  C498     1.0000 0.59070  0.25000  0.09070  Biso   1.000  C
  C499     1.0000 0.64130  0.25000  0.14130  Biso   1.000  C
  C500     1.0000 0.66970  0.25000  0.16970  Biso   1.000  C
  C501     1.0000 0.93730  0.56270  0.75000  Biso   1.000  C
  C502     1.0000 0.90930  0.59070  0.75000  Biso   1.000  C
  C503     1.0000 0.85870  0.64130  0.75000  Biso   1.000  C
  C504     1.0000 0.83030  0.66970  0.75000  Biso   1.000  C
  C505     1.0000 0.43730  0.06270  0.25000  Biso   1.000  C
  C506     1.0000 0.40930  0.09070  0.25000  Biso   1.000  C
  C507     1.0000 0.35870  0.14130  0.25000  Biso   1.000  C
  C508     1.0000 0.33030  0.16970  0.25000  Biso   1.000  C
  C509     1.0000 0.93730  0.43730  0.25000  Biso   1.000  C
  C510     1.0000 0.90930  0.40930  0.25000  Biso   1.000  C
  C511     1.0000 0.85870  0.35870  0.25000  Biso   1.000  C
  C512     1.0000 0.83030  0.33030  0.25000  Biso   1.000  C
  C513     1.0000 0.06270  0.43730  0.75000  Biso   1.000  C
  C514     1.0000 0.09070  0.40930  0.75000  Biso   1.000  C
  C515     1.0000 0.14130  0.35870  0.75000  Biso   1.000  C
  C516     1.0000 0.16970  0.33030  0.75000  Biso   1.000  C
  C517     1.0000 0.06270  0.56270  0.25000  Biso   1.000  C
  C518     1.0000 0.09070  0.59070  0.25000  Biso   1.000  C
  C519     1.0000 0.14130  0.64130  0.25000  Biso   1.000  C
  C520     1.0000 0.16970  0.66970  0.25000  Biso   1.000  C
  C521     1.0000 0.75000  0.93730  0.56270  Biso   1.000  C
  C522     1.0000 0.75000  0.90930  0.59070  Biso   1.000  C
  C523     1.0000 0.75000  0.85870  0.64130  Biso   1.000  C
  C524     1.0000 0.75000  0.83030  0.66970  Biso   1.000  C
  C525     1.0000 0.25000  0.43730  0.06270  Biso   1.000  C
  C526     1.0000 0.25000  0.40930  0.09070  Biso   1.000  C
  C527     1.0000 0.25000  0.35870  0.14130  Biso   1.000  C
  C528     1.0000 0.25000  0.33030  0.16970  Biso   1.000  C
  C529     1.0000 0.25000  0.93730  0.43730  Biso   1.000  C
  C530     1.0000 0.25000  0.90930  0.40930  Biso   1.000  C
  C531     1.0000 0.25000  0.85870  0.35870  Biso   1.000  C
  C532     1.0000 0.25000  0.83030  0.33030  Biso   1.000  C
  C533     1.0000 0.75000  0.06270  0.43730  Biso   1.000  C
  C534     1.0000 0.75000  0.09070  0.40930  Biso   1.000  C
  C535     1.0000 0.75000  0.14130  0.35870  Biso   1.000  C
  C536     1.0000 0.75000  0.16970  0.33030  Biso   1.000  C
  C537     1.0000 0.25000  0.06270  0.56270  Biso   1.000  C
  C538     1.0000 0.25000  0.09070  0.59070  Biso   1.000  C
  C539     1.0000 0.25000  0.14130  0.64130  Biso   1.000  C
  C540     1.0000 0.25000  0.16970  0.66970  Biso   1.000  C
  C541     1.0000 0.75000  0.56270  0.06270  Biso   1.000  C
  C542     1.0000 0.75000  0.59070  0.09070  Biso   1.000  C
  C543     1.0000 0.75000  0.64130  0.14130  Biso   1.000  C
  C544     1.0000 0.75000  0.66970  0.16970  Biso   1.000  C
  C545     1.0000 0.75000  0.43730  0.93730  Biso   1.000  C
  C546     1.0000 0.75000  0.40930  0.90930  Biso   1.000  C
  C547     1.0000 0.75000  0.35870  0.85870  Biso   1.000  C
  C548     1.0000 0.75000  0.33030  0.83030  Biso   1.000  C
  C549     1.0000 0.25000  0.56270  0.93730  Biso   1.000  C
  C550     1.0000 0.25000  0.59070  0.90930  Biso   1.000  C
  C551     1.0000 0.25000  0.64130  0.85870  Biso   1.000  C
  C552     1.0000 0.25000  0.66970  0.83030  Biso   1.000  C
  C553     1.0000 0.56270  0.93730  0.25000  Biso   1.000  C
  C554     1.0000 0.59070  0.90930  0.25000  Biso   1.000  C
  C555     1.0000 0.64130  0.85870  0.25000  Biso   1.000  C
  C556     1.0000 0.66970  0.83030  0.25000  Biso   1.000  C
  C557     1.0000 0.43730  0.93730  0.75000  Biso   1.000  C
  C558     1.0000 0.40930  0.90930  0.75000  Biso   1.000  C
  C559     1.0000 0.35870  0.85870  0.75000  Biso   1.000  C
  C560     1.0000 0.33030  0.83030  0.75000  Biso   1.000  C
  C561     1.0000 0.56270  0.06270  0.75000  Biso   1.000  C
  C562     1.0000 0.59070  0.09070  0.75000  Biso   1.000  C
  C563     1.0000 0.64130  0.14130  0.75000  Biso   1.000  C
  C564     1.0000 0.66970  0.16970  0.75000  Biso   1.000  C
  C565     1.0000 0.93730  0.75000  0.43730  Biso   1.000  C
  C566     1.0000 0.90930  0.75000  0.40930  Biso   1.000  C
  C567     1.0000 0.85870  0.75000  0.35870  Biso   1.000  C
  C568     1.0000 0.83030  0.75000  0.33030  Biso   1.000  C
  C569     1.0000 0.93730  0.25000  0.56270  Biso   1.000  C
  C570     1.0000 0.90930  0.25000  0.59070  Biso   1.000  C
  C571     1.0000 0.85870  0.25000  0.64130  Biso   1.000  C
  C572     1.0000 0.83030  0.25000  0.66970  Biso   1.000  C
  C573     1.0000 0.06270  0.75000  0.56270  Biso   1.000  C
  C574     1.0000 0.09070  0.75000  0.59070  Biso   1.000  C
  C575     1.0000 0.14130  0.75000  0.64130  Biso   1.000  C
  C576     1.0000 0.16970  0.75000  0.66970  Biso   1.000  C
