data_image0
_cell_length_a       23.166
_cell_length_b       23.166
_cell_length_c       34.931
_cell_angle_alpha    90
_cell_angle_beta     90
_cell_angle_gamma    90

_symmetry_space_group_name_H-M    "P 1"
_symmetry_int_tables_number       1

loop_
  _symmetry_equiv_pos_as_xyz
  'x, y, z'

loop_
  _atom_site_label
  _atom_site_occupancy
  _atom_site_fract_x
  _atom_site_fract_y
  _atom_site_fract_z
  _atom_site_thermal_displace_type
  _atom_site_B_iso_or_equiv
  _atom_site_type_symbol
  N1       1.0000 0.23046  0.08597  0.63974  Biso   1.000  N
  C1       1.0000 0.21340  0.11920  0.66856  Biso   1.000  C
  H1       1.0000 0.24110  0.14110  0.68130  Biso   1.000  H
  C2       1.0000 0.15670  0.12320  0.68069  Biso   1.000  C
  H2       1.0000 0.14680  0.14800  0.70060  Biso   1.000  H
  C3       1.0000 0.11487  0.09006  0.66313  Biso   1.000  C
  C4       1.0000 0.13302  0.05560  0.63295  Biso   1.000  C
  H3       1.0000 0.10660  0.03260  0.61990  Biso   1.000  H
  C5       1.0000 0.19030  0.05560  0.62231  Biso   1.000  C
  H4       1.0000 0.20120  0.03280  0.60160  Biso   1.000  H
  C6       1.0000 0.05376  0.09157  0.67541  Biso   1.000  C
  C7       1.0000 0.03083  0.09648  0.71143  Biso   1.000  C
  C8       1.0000 0.06440  0.09457  0.74782  Biso   1.000  C
  C9       1.0000 0.08500  0.04450  0.76174  Biso   1.000  C
  H5       1.0000 0.07880  0.01020  0.74860  Biso   1.000  H
  C10      1.0000 0.11590  0.04460  0.79628  Biso   1.000  C
  H6       1.0000 0.13140  0.00980  0.80460  Biso   1.000  H
  N2       1.0000 0.12440  0.09043  0.81781  Biso   1.000  N
  C11      1.0000 0.10360  0.13800  0.80423  Biso   1.000  C
  H7       1.0000 0.10890  0.17140  0.81850  Biso   1.000  H
  C12      1.0000 0.07390  0.14280  0.76959  Biso   1.000  C
  H8       1.0000 0.06060  0.17860  0.76140  Biso   1.000  H
  N3       1.0000 0.73046  0.58597  0.13974  Biso   1.000  N
  C13      1.0000 0.71340  0.61920  0.16856  Biso   1.000  C
  H9       1.0000 0.74110  0.64110  0.18130  Biso   1.000  H
  C14      1.0000 0.65670  0.62320  0.18069  Biso   1.000  C
  H10      1.0000 0.64680  0.64800  0.20060  Biso   1.000  H
  C15      1.0000 0.61487  0.59006  0.16313  Biso   1.000  C
  C16      1.0000 0.63302  0.55560  0.13295  Biso   1.000  C
  H11      1.0000 0.60660  0.53260  0.11990  Biso   1.000  H
  C17      1.0000 0.69030  0.55560  0.12231  Biso   1.000  C
  H12      1.0000 0.70120  0.53280  0.10160  Biso   1.000  H
  C18      1.0000 0.55376  0.59157  0.17541  Biso   1.000  C
  C19      1.0000 0.53083  0.59648  0.21143  Biso   1.000  C
  C20      1.0000 0.56440  0.59457  0.24782  Biso   1.000  C
  C21      1.0000 0.58500  0.54450  0.26174  Biso   1.000  C
  H13      1.0000 0.57880  0.51020  0.24860  Biso   1.000  H
  C22      1.0000 0.61590  0.54460  0.29628  Biso   1.000  C
  H14      1.0000 0.63140  0.50980  0.30460  Biso   1.000  H
  N4       1.0000 0.62440  0.59043  0.31781  Biso   1.000  N
  C23      1.0000 0.60360  0.63800  0.30423  Biso   1.000  C
  H15      1.0000 0.60890  0.67140  0.31850  Biso   1.000  H
  C24      1.0000 0.57390  0.64280  0.26959  Biso   1.000  C
  H16      1.0000 0.56060  0.67860  0.26140  Biso   1.000  H
  N5       1.0000 0.26954  0.91403  0.13974  Biso   1.000  N
  C25      1.0000 0.28660  0.88080  0.16856  Biso   1.000  C
  H17      1.0000 0.25890  0.85890  0.18130  Biso   1.000  H
  C26      1.0000 0.34330  0.87680  0.18069  Biso   1.000  C
  H18      1.0000 0.35320  0.85200  0.20060  Biso   1.000  H
  C27      1.0000 0.38513  0.90994  0.16313  Biso   1.000  C
  C28      1.0000 0.36698  0.94440  0.13295  Biso   1.000  C
  H19      1.0000 0.39340  0.96740  0.11990  Biso   1.000  H
  C29      1.0000 0.30970  0.94440  0.12231  Biso   1.000  C
  H20      1.0000 0.29880  0.96720  0.10160  Biso   1.000  H
  C30      1.0000 0.44624  0.90843  0.17541  Biso   1.000  C
  C31      1.0000 0.46917  0.90352  0.21143  Biso   1.000  C
  C32      1.0000 0.43560  0.90543  0.24782  Biso   1.000  C
  C33      1.0000 0.41500  0.95550  0.26174  Biso   1.000  C
  H21      1.0000 0.42120  0.98980  0.24860  Biso   1.000  H
  C34      1.0000 0.38410  0.95540  0.29628  Biso   1.000  C
  H22      1.0000 0.36860  0.99020  0.30460  Biso   1.000  H
  N6       1.0000 0.37560  0.90957  0.31781  Biso   1.000  N
  C35      1.0000 0.39640  0.86200  0.30423  Biso   1.000  C
  H23      1.0000 0.39110  0.82860  0.31850  Biso   1.000  H
  C36      1.0000 0.42610  0.85720  0.26959  Biso   1.000  C
  H24      1.0000 0.43940  0.82140  0.26140  Biso   1.000  H
  N7       1.0000 0.76954  0.41403  0.63974  Biso   1.000  N
  C37      1.0000 0.78660  0.38080  0.66856  Biso   1.000  C
  H25      1.0000 0.75890  0.35890  0.68130  Biso   1.000  H
  C38      1.0000 0.84330  0.37680  0.68069  Biso   1.000  C
  H26      1.0000 0.85320  0.35200  0.70060  Biso   1.000  H
  C39      1.0000 0.88513  0.40994  0.66313  Biso   1.000  C
  C40      1.0000 0.86698  0.44440  0.63295  Biso   1.000  C
  H27      1.0000 0.89340  0.46740  0.61990  Biso   1.000  H
  C41      1.0000 0.80970  0.44440  0.62231  Biso   1.000  C
  H28      1.0000 0.79880  0.46720  0.60160  Biso   1.000  H
  C42      1.0000 0.94624  0.40843  0.67541  Biso   1.000  C
  C43      1.0000 0.96917  0.40352  0.71143  Biso   1.000  C
  C44      1.0000 0.93560  0.40543  0.74782  Biso   1.000  C
  C45      1.0000 0.91500  0.45550  0.76174  Biso   1.000  C
  H29      1.0000 0.92120  0.48980  0.74860  Biso   1.000  H
  C46      1.0000 0.88410  0.45540  0.79628  Biso   1.000  C
  H30      1.0000 0.86860  0.49020  0.80460  Biso   1.000  H
  N8       1.0000 0.87560  0.40957  0.81781  Biso   1.000  N
  C47      1.0000 0.89640  0.36200  0.80423  Biso   1.000  C
  H31      1.0000 0.89110  0.32860  0.81850  Biso   1.000  H
  C48      1.0000 0.92610  0.35720  0.76959  Biso   1.000  C
  H32      1.0000 0.93940  0.32140  0.76140  Biso   1.000  H
  N9       1.0000 0.16403  0.98046  0.88974  Biso   1.000  N
  C49      1.0000 0.13080  0.96340  0.91856  Biso   1.000  C
  H33      1.0000 0.10890  0.99110  0.93130  Biso   1.000  H
  C50      1.0000 0.12680  0.90670  0.93069  Biso   1.000  C
  H34      1.0000 0.10200  0.89680  0.95060  Biso   1.000  H
  C51      1.0000 0.15994  0.86487  0.91313  Biso   1.000  C
  C52      1.0000 0.19440  0.88302  0.88295  Biso   1.000  C
  H35      1.0000 0.21740  0.85660  0.86990  Biso   1.000  H
  C53      1.0000 0.19440  0.94030  0.87231  Biso   1.000  C
  H36      1.0000 0.21720  0.95120  0.85160  Biso   1.000  H
  C54      1.0000 0.15843  0.80376  0.92541  Biso   1.000  C
  C55      1.0000 0.15352  0.78083  0.96143  Biso   1.000  C
  C56      1.0000 0.15543  0.81440  0.99782  Biso   1.000  C
  C57      1.0000 0.20550  0.83500  0.01174  Biso   1.000  C
  H37      1.0000 0.23980  0.82880  0.99860  Biso   1.000  H
  C58      1.0000 0.20540  0.86590  0.04628  Biso   1.000  C
  H38      1.0000 0.24020  0.88140  0.05460  Biso   1.000  H
  N10      1.0000 0.15957  0.87440  0.06781  Biso   1.000  N
  C59      1.0000 0.11200  0.85360  0.05423  Biso   1.000  C
  H39      1.0000 0.07860  0.85890  0.06850  Biso   1.000  H
  C60      1.0000 0.10720  0.82390  0.01959  Biso   1.000  C
  H40      1.0000 0.07140  0.81060  0.01140  Biso   1.000  H
  N11      1.0000 0.66403  0.48046  0.38974  Biso   1.000  N
  C61      1.0000 0.63080  0.46340  0.41856  Biso   1.000  C
  H41      1.0000 0.60890  0.49110  0.43130  Biso   1.000  H
  C62      1.0000 0.62680  0.40670  0.43069  Biso   1.000  C
  H42      1.0000 0.60200  0.39680  0.45060  Biso   1.000  H
  C63      1.0000 0.65994  0.36487  0.41313  Biso   1.000  C
  C64      1.0000 0.69440  0.38302  0.38295  Biso   1.000  C
  H43      1.0000 0.71740  0.35660  0.36990  Biso   1.000  H
  C65      1.0000 0.69440  0.44030  0.37231  Biso   1.000  C
  H44      1.0000 0.71720  0.45120  0.35160  Biso   1.000  H
  C66      1.0000 0.65843  0.30376  0.42541  Biso   1.000  C
  C67      1.0000 0.65352  0.28083  0.46143  Biso   1.000  C
  C68      1.0000 0.65543  0.31440  0.49782  Biso   1.000  C
  C69      1.0000 0.70550  0.33500  0.51174  Biso   1.000  C
  H45      1.0000 0.73980  0.32880  0.49860  Biso   1.000  H
  C70      1.0000 0.70540  0.36590  0.54628  Biso   1.000  C
  H46      1.0000 0.74020  0.38140  0.55460  Biso   1.000  H
  N12      1.0000 0.65957  0.37440  0.56781  Biso   1.000  N
  C71      1.0000 0.61200  0.35360  0.55423  Biso   1.000  C
  H47      1.0000 0.57860  0.35890  0.56850  Biso   1.000  H
  C72      1.0000 0.60720  0.32390  0.51959  Biso   1.000  C
  H48      1.0000 0.57140  0.31060  0.51140  Biso   1.000  H
  N13      1.0000 0.33597  0.01954  0.38974  Biso   1.000  N
  C73      1.0000 0.36920  0.03660  0.41856  Biso   1.000  C
  H49      1.0000 0.39110  0.00890  0.43130  Biso   1.000  H
  C74      1.0000 0.37320  0.09330  0.43069  Biso   1.000  C
  H50      1.0000 0.39800  0.10320  0.45060  Biso   1.000  H
  C75      1.0000 0.34006  0.13513  0.41313  Biso   1.000  C
  C76      1.0000 0.30560  0.11698  0.38295  Biso   1.000  C
  H51      1.0000 0.28260  0.14340  0.36990  Biso   1.000  H
  C77      1.0000 0.30560  0.05970  0.37231  Biso   1.000  C
  H52      1.0000 0.28280  0.04880  0.35160  Biso   1.000  H
  C78      1.0000 0.34157  0.19624  0.42541  Biso   1.000  C
  C79      1.0000 0.34648  0.21917  0.46143  Biso   1.000  C
  C80      1.0000 0.34457  0.18560  0.49782  Biso   1.000  C
  C81      1.0000 0.29450  0.16500  0.51174  Biso   1.000  C
  H53      1.0000 0.26020  0.17120  0.49860  Biso   1.000  H
  C82      1.0000 0.29460  0.13410  0.54628  Biso   1.000  C
  H54      1.0000 0.25980  0.11860  0.55460  Biso   1.000  H
  N14      1.0000 0.34043  0.12560  0.56781  Biso   1.000  N
  C83      1.0000 0.38800  0.14640  0.55423  Biso   1.000  C
  H55      1.0000 0.42140  0.14110  0.56850  Biso   1.000  H
  C84      1.0000 0.39280  0.17610  0.51959  Biso   1.000  C
  H56      1.0000 0.42860  0.18940  0.51140  Biso   1.000  H
  N15      1.0000 0.83597  0.51954  0.88974  Biso   1.000  N
  C85      1.0000 0.86920  0.53660  0.91856  Biso   1.000  C
  H57      1.0000 0.89110  0.50890  0.93130  Biso   1.000  H
  C86      1.0000 0.87320  0.59330  0.93069  Biso   1.000  C
  H58      1.0000 0.89800  0.60320  0.95060  Biso   1.000  H
  C87      1.0000 0.84006  0.63513  0.91313  Biso   1.000  C
  C88      1.0000 0.80560  0.61698  0.88295  Biso   1.000  C
  H59      1.0000 0.78260  0.64340  0.86990  Biso   1.000  H
  C89      1.0000 0.80560  0.55970  0.87231  Biso   1.000  C
  H60      1.0000 0.78280  0.54880  0.85160  Biso   1.000  H
  C90      1.0000 0.84157  0.69624  0.92541  Biso   1.000  C
  C91      1.0000 0.84648  0.71917  0.96143  Biso   1.000  C
  C92      1.0000 0.84457  0.68560  0.99782  Biso   1.000  C
  C93      1.0000 0.79450  0.66500  0.01174  Biso   1.000  C
  H61      1.0000 0.76020  0.67120  0.99860  Biso   1.000  H
  C94      1.0000 0.79460  0.63410  0.04628  Biso   1.000  C
  H62      1.0000 0.75980  0.61860  0.05460  Biso   1.000  H
  N16      1.0000 0.84043  0.62560  0.06781  Biso   1.000  N
  C95      1.0000 0.88800  0.64640  0.05423  Biso   1.000  C
  H63      1.0000 0.92140  0.64110  0.06850  Biso   1.000  H
  C96      1.0000 0.89280  0.67610  0.01959  Biso   1.000  C
  H64      1.0000 0.92860  0.68940  0.01140  Biso   1.000  H
  N17      1.0000 0.26954  0.08597  0.86026  Biso   1.000  N
  C97      1.0000 0.28660  0.11920  0.83144  Biso   1.000  C
  H65      1.0000 0.25890  0.14110  0.81870  Biso   1.000  H
  C98      1.0000 0.34330  0.12320  0.81931  Biso   1.000  C
  H66      1.0000 0.35320  0.14800  0.79940  Biso   1.000  H
  C99      1.0000 0.38513  0.09006  0.83687  Biso   1.000  C
  C100     1.0000 0.36698  0.05560  0.86705  Biso   1.000  C
  H67      1.0000 0.39340  0.03260  0.88010  Biso   1.000  H
  C101     1.0000 0.30970  0.05560  0.87769  Biso   1.000  C
  H68      1.0000 0.29880  0.03280  0.89840  Biso   1.000  H
  C102     1.0000 0.44624  0.09157  0.82459  Biso   1.000  C
  C103     1.0000 0.46917  0.09648  0.78857  Biso   1.000  C
  C104     1.0000 0.43560  0.09457  0.75218  Biso   1.000  C
  C105     1.0000 0.41500  0.04450  0.73826  Biso   1.000  C
  H69      1.0000 0.42120  0.01020  0.75140  Biso   1.000  H
  C106     1.0000 0.38410  0.04460  0.70372  Biso   1.000  C
  H70      1.0000 0.36860  0.00980  0.69540  Biso   1.000  H
  N18      1.0000 0.37560  0.09043  0.68219  Biso   1.000  N
  C107     1.0000 0.39640  0.13800  0.69577  Biso   1.000  C
  H71      1.0000 0.39110  0.17140  0.68150  Biso   1.000  H
  C108     1.0000 0.42610  0.14280  0.73041  Biso   1.000  C
  H72      1.0000 0.43940  0.17860  0.73860  Biso   1.000  H
  N19      1.0000 0.76954  0.58597  0.36026  Biso   1.000  N
  C109     1.0000 0.78660  0.61920  0.33144  Biso   1.000  C
  H73      1.0000 0.75890  0.64110  0.31870  Biso   1.000  H
  C110     1.0000 0.84330  0.62320  0.31931  Biso   1.000  C
  H74      1.0000 0.85320  0.64800  0.29940  Biso   1.000  H
  C111     1.0000 0.88513  0.59006  0.33687  Biso   1.000  C
  C112     1.0000 0.86698  0.55560  0.36705  Biso   1.000  C
  H75      1.0000 0.89340  0.53260  0.38010  Biso   1.000  H
  C113     1.0000 0.80970  0.55560  0.37769  Biso   1.000  C
  H76      1.0000 0.79880  0.53280  0.39840  Biso   1.000  H
  C114     1.0000 0.94624  0.59157  0.32459  Biso   1.000  C
  C115     1.0000 0.96917  0.59648  0.28857  Biso   1.000  C
  C116     1.0000 0.93560  0.59457  0.25218  Biso   1.000  C
  C117     1.0000 0.91500  0.54450  0.23826  Biso   1.000  C
  H77      1.0000 0.92120  0.51020  0.25140  Biso   1.000  H
  C118     1.0000 0.88410  0.54460  0.20372  Biso   1.000  C
  H78      1.0000 0.86860  0.50980  0.19540  Biso   1.000  H
  N20      1.0000 0.87560  0.59043  0.18219  Biso   1.000  N
  C119     1.0000 0.89640  0.63800  0.19577  Biso   1.000  C
  H79      1.0000 0.89110  0.67140  0.18150  Biso   1.000  H
  C120     1.0000 0.92610  0.64280  0.23041  Biso   1.000  C
  H80      1.0000 0.93940  0.67860  0.23860  Biso   1.000  H
  N21      1.0000 0.23046  0.91403  0.36026  Biso   1.000  N
  C121     1.0000 0.21340  0.88080  0.33144  Biso   1.000  C
  H81      1.0000 0.24110  0.85890  0.31870  Biso   1.000  H
  C122     1.0000 0.15670  0.87680  0.31931  Biso   1.000  C
  H82      1.0000 0.14680  0.85200  0.29940  Biso   1.000  H
  C123     1.0000 0.11487  0.90994  0.33687  Biso   1.000  C
  C124     1.0000 0.13302  0.94440  0.36705  Biso   1.000  C
  H83      1.0000 0.10660  0.96740  0.38010  Biso   1.000  H
  C125     1.0000 0.19030  0.94440  0.37769  Biso   1.000  C
  H84      1.0000 0.20120  0.96720  0.39840  Biso   1.000  H
  C126     1.0000 0.05376  0.90843  0.32459  Biso   1.000  C
  C127     1.0000 0.03083  0.90352  0.28857  Biso   1.000  C
  C128     1.0000 0.06440  0.90543  0.25218  Biso   1.000  C
  C129     1.0000 0.08500  0.95550  0.23826  Biso   1.000  C
  H85      1.0000 0.07880  0.98980  0.25140  Biso   1.000  H
  C130     1.0000 0.11590  0.95540  0.20372  Biso   1.000  C
  H86      1.0000 0.13140  0.99020  0.19540  Biso   1.000  H
  N22      1.0000 0.12440  0.90957  0.18219  Biso   1.000  N
  C131     1.0000 0.10360  0.86200  0.19577  Biso   1.000  C
  H87      1.0000 0.10890  0.82860  0.18150  Biso   1.000  H
  C132     1.0000 0.07390  0.85720  0.23041  Biso   1.000  C
  H88      1.0000 0.06060  0.82140  0.23860  Biso   1.000  H
  N23      1.0000 0.73046  0.41403  0.86026  Biso   1.000  N
  C133     1.0000 0.71340  0.38080  0.83144  Biso   1.000  C
  H89      1.0000 0.74110  0.35890  0.81870  Biso   1.000  H
  C134     1.0000 0.65670  0.37680  0.81931  Biso   1.000  C
  H90      1.0000 0.64680  0.35200  0.79940  Biso   1.000  H
  C135     1.0000 0.61487  0.40994  0.83687  Biso   1.000  C
  C136     1.0000 0.63302  0.44440  0.86705  Biso   1.000  C
  H91      1.0000 0.60660  0.46740  0.88010  Biso   1.000  H
  C137     1.0000 0.69030  0.44440  0.87769  Biso   1.000  C
  H92      1.0000 0.70120  0.46720  0.89840  Biso   1.000  H
  C138     1.0000 0.55376  0.40843  0.82459  Biso   1.000  C
  C139     1.0000 0.53083  0.40352  0.78857  Biso   1.000  C
  C140     1.0000 0.56440  0.40543  0.75218  Biso   1.000  C
  C141     1.0000 0.58500  0.45550  0.73826  Biso   1.000  C
  H93      1.0000 0.57880  0.48980  0.75140  Biso   1.000  H
  C142     1.0000 0.61590  0.45540  0.70372  Biso   1.000  C
  H94      1.0000 0.63140  0.49020  0.69540  Biso   1.000  H
  N24      1.0000 0.62440  0.40957  0.68219  Biso   1.000  N
  C143     1.0000 0.60360  0.36200  0.69577  Biso   1.000  C
  H95      1.0000 0.60890  0.32860  0.68150  Biso   1.000  H
  C144     1.0000 0.57390  0.35720  0.73041  Biso   1.000  C
  H96      1.0000 0.56060  0.32140  0.73860  Biso   1.000  H
  N25      1.0000 0.33597  0.98046  0.61026  Biso   1.000  N
  C145     1.0000 0.36920  0.96340  0.58144  Biso   1.000  C
  H97      1.0000 0.39110  0.99110  0.56870  Biso   1.000  H
  C146     1.0000 0.37320  0.90670  0.56931  Biso   1.000  C
  H98      1.0000 0.39800  0.89680  0.54940  Biso   1.000  H
  C147     1.0000 0.34006  0.86487  0.58687  Biso   1.000  C
  C148     1.0000 0.30560  0.88302  0.61705  Biso   1.000  C
  H99      1.0000 0.28260  0.85660  0.63010  Biso   1.000  H
  C149     1.0000 0.30560  0.94030  0.62769  Biso   1.000  C
  H100     1.0000 0.28280  0.95120  0.64840  Biso   1.000  H
  C150     1.0000 0.34157  0.80376  0.57459  Biso   1.000  C
  C151     1.0000 0.34648  0.78083  0.53857  Biso   1.000  C
  C152     1.0000 0.34457  0.81440  0.50218  Biso   1.000  C
  C153     1.0000 0.29450  0.83500  0.48826  Biso   1.000  C
  H101     1.0000 0.26020  0.82880  0.50140  Biso   1.000  H
  C154     1.0000 0.29460  0.86590  0.45372  Biso   1.000  C
  H102     1.0000 0.25980  0.88140  0.44540  Biso   1.000  H
  N26      1.0000 0.34043  0.87440  0.43219  Biso   1.000  N
  C155     1.0000 0.38800  0.85360  0.44577  Biso   1.000  C
  H103     1.0000 0.42140  0.85890  0.43150  Biso   1.000  H
  C156     1.0000 0.39280  0.82390  0.48041  Biso   1.000  C
  H104     1.0000 0.42860  0.81060  0.48860  Biso   1.000  H
  N27      1.0000 0.83597  0.48046  0.11026  Biso   1.000  N
  C157     1.0000 0.86920  0.46340  0.08144  Biso   1.000  C
  H105     1.0000 0.89110  0.49110  0.06870  Biso   1.000  H
  C158     1.0000 0.87320  0.40670  0.06931  Biso   1.000  C
  H106     1.0000 0.89800  0.39680  0.04940  Biso   1.000  H
  C159     1.0000 0.84006  0.36487  0.08687  Biso   1.000  C
  C160     1.0000 0.80560  0.38302  0.11705  Biso   1.000  C
  H107     1.0000 0.78260  0.35660  0.13010  Biso   1.000  H
  C161     1.0000 0.80560  0.44030  0.12769  Biso   1.000  C
  H108     1.0000 0.78280  0.45120  0.14840  Biso   1.000  H
  C162     1.0000 0.84157  0.30376  0.07459  Biso   1.000  C
  C163     1.0000 0.84648  0.28083  0.03857  Biso   1.000  C
  C164     1.0000 0.84457  0.31440  0.00218  Biso   1.000  C
  C165     1.0000 0.79450  0.33500  0.98826  Biso   1.000  C
  H109     1.0000 0.76020  0.32880  0.00140  Biso   1.000  H
  C166     1.0000 0.79460  0.36590  0.95372  Biso   1.000  C
  H110     1.0000 0.75980  0.38140  0.94540  Biso   1.000  H
  N28      1.0000 0.84043  0.37440  0.93219  Biso   1.000  N
  C167     1.0000 0.88800  0.35360  0.94577  Biso   1.000  C
  H111     1.0000 0.92140  0.35890  0.93150  Biso   1.000  H
  C168     1.0000 0.89280  0.32390  0.98041  Biso   1.000  C
  H112     1.0000 0.92860  0.31060  0.98860  Biso   1.000  H
  N29      1.0000 0.16403  0.01954  0.11026  Biso   1.000  N
  C169     1.0000 0.13080  0.03660  0.08144  Biso   1.000  C
  H113     1.0000 0.10890  0.00890  0.06870  Biso   1.000  H
  C170     1.0000 0.12680  0.09330  0.06931  Biso   1.000  C
  H114     1.0000 0.10200  0.10320  0.04940  Biso   1.000  H
  C171     1.0000 0.15994  0.13513  0.08687  Biso   1.000  C
  C172     1.0000 0.19440  0.11698  0.11705  Biso   1.000  C
  H115     1.0000 0.21740  0.14340  0.13010  Biso   1.000  H
  C173     1.0000 0.19440  0.05970  0.12769  Biso   1.000  C
  H116     1.0000 0.21720  0.04880  0.14840  Biso   1.000  H
  C174     1.0000 0.15843  0.19624  0.07459  Biso   1.000  C
  C175     1.0000 0.15352  0.21917  0.03857  Biso   1.000  C
  C176     1.0000 0.15543  0.18560  0.00218  Biso   1.000  C
  C177     1.0000 0.20550  0.16500  0.98826  Biso   1.000  C
  H117     1.0000 0.23980  0.17120  0.00140  Biso   1.000  H
  C178     1.0000 0.20540  0.13410  0.95372  Biso   1.000  C
  H118     1.0000 0.24020  0.11860  0.94540  Biso   1.000  H
  N30      1.0000 0.15957  0.12560  0.93219  Biso   1.000  N
  C179     1.0000 0.11200  0.14640  0.94577  Biso   1.000  C
  H119     1.0000 0.07860  0.14110  0.93150  Biso   1.000  H
  C180     1.0000 0.10720  0.17610  0.98041  Biso   1.000  C
  H120     1.0000 0.07140  0.18940  0.98860  Biso   1.000  H
  N31      1.0000 0.66403  0.51954  0.61026  Biso   1.000  N
  C181     1.0000 0.63080  0.53660  0.58144  Biso   1.000  C
  H121     1.0000 0.60890  0.50890  0.56870  Biso   1.000  H
  C182     1.0000 0.62680  0.59330  0.56931  Biso   1.000  C
  H122     1.0000 0.60200  0.60320  0.54940  Biso   1.000  H
  C183     1.0000 0.65994  0.63513  0.58687  Biso   1.000  C
  C184     1.0000 0.69440  0.61698  0.61705  Biso   1.000  C
  H123     1.0000 0.71740  0.64340  0.63010  Biso   1.000  H
  C185     1.0000 0.69440  0.55970  0.62769  Biso   1.000  C
  H124     1.0000 0.71720  0.54880  0.64840  Biso   1.000  H
  C186     1.0000 0.65843  0.69624  0.57459  Biso   1.000  C
  C187     1.0000 0.65352  0.71917  0.53857  Biso   1.000  C
  C188     1.0000 0.65543  0.68560  0.50218  Biso   1.000  C
  C189     1.0000 0.70550  0.66500  0.48826  Biso   1.000  C
  H125     1.0000 0.73980  0.67120  0.50140  Biso   1.000  H
  C190     1.0000 0.70540  0.63410  0.45372  Biso   1.000  C
  H126     1.0000 0.74020  0.61860  0.44540  Biso   1.000  H
  N32      1.0000 0.65957  0.62560  0.43219  Biso   1.000  N
  C191     1.0000 0.61200  0.64640  0.44577  Biso   1.000  C
  H127     1.0000 0.57860  0.64110  0.43150  Biso   1.000  H
  C192     1.0000 0.60720  0.67610  0.48041  Biso   1.000  C
  H128     1.0000 0.57140  0.68940  0.48860  Biso   1.000  H
  N33      1.0000 0.76954  0.91403  0.36026  Biso   1.000  N
  C193     1.0000 0.78660  0.88080  0.33144  Biso   1.000  C
  H129     1.0000 0.75890  0.85890  0.31870  Biso   1.000  H
  C194     1.0000 0.84330  0.87680  0.31931  Biso   1.000  C
  H130     1.0000 0.85320  0.85200  0.29940  Biso   1.000  H
  C195     1.0000 0.88513  0.90994  0.33687  Biso   1.000  C
  C196     1.0000 0.86698  0.94440  0.36705  Biso   1.000  C
  H131     1.0000 0.89340  0.96740  0.38010  Biso   1.000  H
  C197     1.0000 0.80970  0.94440  0.37769  Biso   1.000  C
  H132     1.0000 0.79880  0.96720  0.39840  Biso   1.000  H
  C198     1.0000 0.94624  0.90843  0.32459  Biso   1.000  C
  C199     1.0000 0.96917  0.90352  0.28857  Biso   1.000  C
  C200     1.0000 0.93560  0.90543  0.25218  Biso   1.000  C
  C201     1.0000 0.91500  0.95550  0.23826  Biso   1.000  C
  H133     1.0000 0.92120  0.98980  0.25140  Biso   1.000  H
  C202     1.0000 0.88410  0.95540  0.20372  Biso   1.000  C
  H134     1.0000 0.86860  0.99020  0.19540  Biso   1.000  H
  N34      1.0000 0.87560  0.90957  0.18219  Biso   1.000  N
  C203     1.0000 0.89640  0.86200  0.19577  Biso   1.000  C
  H135     1.0000 0.89110  0.82860  0.18150  Biso   1.000  H
  C204     1.0000 0.92610  0.85720  0.23041  Biso   1.000  C
  H136     1.0000 0.93940  0.82140  0.23860  Biso   1.000  H
  N35      1.0000 0.26954  0.41403  0.86026  Biso   1.000  N
  C205     1.0000 0.28660  0.38080  0.83144  Biso   1.000  C
  H137     1.0000 0.25890  0.35890  0.81870  Biso   1.000  H
  C206     1.0000 0.34330  0.37680  0.81931  Biso   1.000  C
  H138     1.0000 0.35320  0.35200  0.79940  Biso   1.000  H
  C207     1.0000 0.38513  0.40994  0.83687  Biso   1.000  C
  C208     1.0000 0.36698  0.44440  0.86705  Biso   1.000  C
  H139     1.0000 0.39340  0.46740  0.88010  Biso   1.000  H
  C209     1.0000 0.30970  0.44440  0.87769  Biso   1.000  C
  H140     1.0000 0.29880  0.46720  0.89840  Biso   1.000  H
  C210     1.0000 0.44624  0.40843  0.82459  Biso   1.000  C
  C211     1.0000 0.46917  0.40352  0.78857  Biso   1.000  C
  C212     1.0000 0.43560  0.40543  0.75218  Biso   1.000  C
  C213     1.0000 0.41500  0.45550  0.73826  Biso   1.000  C
  H141     1.0000 0.42120  0.48980  0.75140  Biso   1.000  H
  C214     1.0000 0.38410  0.45540  0.70372  Biso   1.000  C
  H142     1.0000 0.36860  0.49020  0.69540  Biso   1.000  H
  N36      1.0000 0.37560  0.40957  0.68219  Biso   1.000  N
  C215     1.0000 0.39640  0.36200  0.69577  Biso   1.000  C
  H143     1.0000 0.39110  0.32860  0.68150  Biso   1.000  H
  C216     1.0000 0.42610  0.35720  0.73041  Biso   1.000  C
  H144     1.0000 0.43940  0.32140  0.73860  Biso   1.000  H
  N37      1.0000 0.73046  0.08597  0.86026  Biso   1.000  N
  C217     1.0000 0.71340  0.11920  0.83144  Biso   1.000  C
  H145     1.0000 0.74110  0.14110  0.81870  Biso   1.000  H
  C218     1.0000 0.65670  0.12320  0.81931  Biso   1.000  C
  H146     1.0000 0.64680  0.14800  0.79940  Biso   1.000  H
  C219     1.0000 0.61487  0.09006  0.83687  Biso   1.000  C
  C220     1.0000 0.63302  0.05560  0.86705  Biso   1.000  C
  H147     1.0000 0.60660  0.03260  0.88010  Biso   1.000  H
  C221     1.0000 0.69030  0.05560  0.87769  Biso   1.000  C
  H148     1.0000 0.70120  0.03280  0.89840  Biso   1.000  H
  C222     1.0000 0.55376  0.09157  0.82459  Biso   1.000  C
  C223     1.0000 0.53083  0.09648  0.78857  Biso   1.000  C
  C224     1.0000 0.56440  0.09457  0.75218  Biso   1.000  C
  C225     1.0000 0.58500  0.04450  0.73826  Biso   1.000  C
  H149     1.0000 0.57880  0.01020  0.75140  Biso   1.000  H
  C226     1.0000 0.61590  0.04460  0.70372  Biso   1.000  C
  H150     1.0000 0.63140  0.00980  0.69540  Biso   1.000  H
  N38      1.0000 0.62440  0.09043  0.68219  Biso   1.000  N
  C227     1.0000 0.60360  0.13800  0.69577  Biso   1.000  C
  H151     1.0000 0.60890  0.17140  0.68150  Biso   1.000  H
  C228     1.0000 0.57390  0.14280  0.73041  Biso   1.000  C
  H152     1.0000 0.56060  0.17860  0.73860  Biso   1.000  H
  N39      1.0000 0.23046  0.58597  0.36026  Biso   1.000  N
  C229     1.0000 0.21340  0.61920  0.33144  Biso   1.000  C
  H153     1.0000 0.24110  0.64110  0.31870  Biso   1.000  H
  C230     1.0000 0.15670  0.62320  0.31931  Biso   1.000  C
  H154     1.0000 0.14680  0.64800  0.29940  Biso   1.000  H
  C231     1.0000 0.11487  0.59006  0.33687  Biso   1.000  C
  C232     1.0000 0.13302  0.55560  0.36705  Biso   1.000  C
  H155     1.0000 0.10660  0.53260  0.38010  Biso   1.000  H
  C233     1.0000 0.19030  0.55560  0.37769  Biso   1.000  C
  H156     1.0000 0.20120  0.53280  0.39840  Biso   1.000  H
  C234     1.0000 0.05376  0.59157  0.32459  Biso   1.000  C
  C235     1.0000 0.03083  0.59648  0.28857  Biso   1.000  C
  C236     1.0000 0.06440  0.59457  0.25218  Biso   1.000  C
  C237     1.0000 0.08500  0.54450  0.23826  Biso   1.000  C
  H157     1.0000 0.07880  0.51020  0.25140  Biso   1.000  H
  C238     1.0000 0.11590  0.54460  0.20372  Biso   1.000  C
  H158     1.0000 0.13140  0.50980  0.19540  Biso   1.000  H
  N40      1.0000 0.12440  0.59043  0.18219  Biso   1.000  N
  C239     1.0000 0.10360  0.63800  0.19577  Biso   1.000  C
  H159     1.0000 0.10890  0.67140  0.18150  Biso   1.000  H
  C240     1.0000 0.07390  0.64280  0.23041  Biso   1.000  C
  H160     1.0000 0.06060  0.67860  0.23860  Biso   1.000  H
  N41      1.0000 0.83597  0.01954  0.11026  Biso   1.000  N
  C241     1.0000 0.86920  0.03660  0.08144  Biso   1.000  C
  H161     1.0000 0.89110  0.00890  0.06870  Biso   1.000  H
  C242     1.0000 0.87320  0.09330  0.06931  Biso   1.000  C
  H162     1.0000 0.89800  0.10320  0.04940  Biso   1.000  H
  C243     1.0000 0.84006  0.13513  0.08687  Biso   1.000  C
  C244     1.0000 0.80560  0.11698  0.11705  Biso   1.000  C
  H163     1.0000 0.78260  0.14340  0.13010  Biso   1.000  H
  C245     1.0000 0.80560  0.05970  0.12769  Biso   1.000  C
  H164     1.0000 0.78280  0.04880  0.14840  Biso   1.000  H
  C246     1.0000 0.84157  0.19624  0.07459  Biso   1.000  C
  C247     1.0000 0.84648  0.21917  0.03857  Biso   1.000  C
  C248     1.0000 0.84457  0.18560  0.00218  Biso   1.000  C
  C249     1.0000 0.79450  0.16500  0.98826  Biso   1.000  C
  H165     1.0000 0.76020  0.17120  0.00140  Biso   1.000  H
  C250     1.0000 0.79460  0.13410  0.95372  Biso   1.000  C
  H166     1.0000 0.75980  0.11860  0.94540  Biso   1.000  H
  N42      1.0000 0.84043  0.12560  0.93219  Biso   1.000  N
  C251     1.0000 0.88800  0.14640  0.94577  Biso   1.000  C
  H167     1.0000 0.92140  0.14110  0.93150  Biso   1.000  H
  C252     1.0000 0.89280  0.17610  0.98041  Biso   1.000  C
  H168     1.0000 0.92860  0.18940  0.98860  Biso   1.000  H
  N43      1.0000 0.33597  0.51954  0.61026  Biso   1.000  N
  C253     1.0000 0.36920  0.53660  0.58144  Biso   1.000  C
  H169     1.0000 0.39110  0.50890  0.56870  Biso   1.000  H
  C254     1.0000 0.37320  0.59330  0.56931  Biso   1.000  C
  H170     1.0000 0.39800  0.60320  0.54940  Biso   1.000  H
  C255     1.0000 0.34006  0.63513  0.58687  Biso   1.000  C
  C256     1.0000 0.30560  0.61698  0.61705  Biso   1.000  C
  H171     1.0000 0.28260  0.64340  0.63010  Biso   1.000  H
  C257     1.0000 0.30560  0.55970  0.62769  Biso   1.000  C
  H172     1.0000 0.28280  0.54880  0.64840  Biso   1.000  H
  C258     1.0000 0.34157  0.69624  0.57459  Biso   1.000  C
  C259     1.0000 0.34648  0.71917  0.53857  Biso   1.000  C
  C260     1.0000 0.34457  0.68560  0.50218  Biso   1.000  C
  C261     1.0000 0.29450  0.66500  0.48826  Biso   1.000  C
  H173     1.0000 0.26020  0.67120  0.50140  Biso   1.000  H
  C262     1.0000 0.29460  0.63410  0.45372  Biso   1.000  C
  H174     1.0000 0.25980  0.61860  0.44540  Biso   1.000  H
  N44      1.0000 0.34043  0.62560  0.43219  Biso   1.000  N
  C263     1.0000 0.38800  0.64640  0.44577  Biso   1.000  C
  H175     1.0000 0.42140  0.64110  0.43150  Biso   1.000  H
  C264     1.0000 0.39280  0.67610  0.48041  Biso   1.000  C
  H176     1.0000 0.42860  0.68940  0.48860  Biso   1.000  H
  N45      1.0000 0.66403  0.98046  0.61026  Biso   1.000  N
  C265     1.0000 0.63080  0.96340  0.58144  Biso   1.000  C
  H177     1.0000 0.60890  0.99110  0.56870  Biso   1.000  H
  C266     1.0000 0.62680  0.90670  0.56931  Biso   1.000  C
  H178     1.0000 0.60200  0.89680  0.54940  Biso   1.000  H
  C267     1.0000 0.65994  0.86487  0.58687  Biso   1.000  C
  C268     1.0000 0.69440  0.88302  0.61705  Biso   1.000  C
  H179     1.0000 0.71740  0.85660  0.63010  Biso   1.000  H
  C269     1.0000 0.69440  0.94030  0.62769  Biso   1.000  C
  H180     1.0000 0.71720  0.95120  0.64840  Biso   1.000  H
  C270     1.0000 0.65843  0.80376  0.57459  Biso   1.000  C
  C271     1.0000 0.65352  0.78083  0.53857  Biso   1.000  C
  C272     1.0000 0.65543  0.81440  0.50218  Biso   1.000  C
  C273     1.0000 0.70550  0.83500  0.48826  Biso   1.000  C
  H181     1.0000 0.73980  0.82880  0.50140  Biso   1.000  H
  C274     1.0000 0.70540  0.86590  0.45372  Biso   1.000  C
  H182     1.0000 0.74020  0.88140  0.44540  Biso   1.000  H
  N46      1.0000 0.65957  0.87440  0.43219  Biso   1.000  N
  C275     1.0000 0.61200  0.85360  0.44577  Biso   1.000  C
  H183     1.0000 0.57860  0.85890  0.43150  Biso   1.000  H
  C276     1.0000 0.60720  0.82390  0.48041  Biso   1.000  C
  H184     1.0000 0.57140  0.81060  0.48860  Biso   1.000  H
  N47      1.0000 0.16403  0.48046  0.11026  Biso   1.000  N
  C277     1.0000 0.13080  0.46340  0.08144  Biso   1.000  C
  H185     1.0000 0.10890  0.49110  0.06870  Biso   1.000  H
  C278     1.0000 0.12680  0.40670  0.06931  Biso   1.000  C
  H186     1.0000 0.10200  0.39680  0.04940  Biso   1.000  H
  C279     1.0000 0.15994  0.36487  0.08687  Biso   1.000  C
  C280     1.0000 0.19440  0.38302  0.11705  Biso   1.000  C
  H187     1.0000 0.21740  0.35660  0.13010  Biso   1.000  H
  C281     1.0000 0.19440  0.44030  0.12769  Biso   1.000  C
  H188     1.0000 0.21720  0.45120  0.14840  Biso   1.000  H
  C282     1.0000 0.15843  0.30376  0.07459  Biso   1.000  C
  C283     1.0000 0.15352  0.28083  0.03857  Biso   1.000  C
  C284     1.0000 0.15543  0.31440  0.00218  Biso   1.000  C
  C285     1.0000 0.20550  0.33500  0.98826  Biso   1.000  C
  H189     1.0000 0.23980  0.32880  0.00140  Biso   1.000  H
  C286     1.0000 0.20540  0.36590  0.95372  Biso   1.000  C
  H190     1.0000 0.24020  0.38140  0.94540  Biso   1.000  H
  N48      1.0000 0.15957  0.37440  0.93219  Biso   1.000  N
  C287     1.0000 0.11200  0.35360  0.94577  Biso   1.000  C
  H191     1.0000 0.07860  0.35890  0.93150  Biso   1.000  H
  C288     1.0000 0.10720  0.32390  0.98041  Biso   1.000  C
  H192     1.0000 0.07140  0.31060  0.98860  Biso   1.000  H
  N49      1.0000 0.73046  0.91403  0.13974  Biso   1.000  N
  C289     1.0000 0.71340  0.88080  0.16856  Biso   1.000  C
  H193     1.0000 0.74110  0.85890  0.18130  Biso   1.000  H
  C290     1.0000 0.65670  0.87680  0.18069  Biso   1.000  C
  H194     1.0000 0.64680  0.85200  0.20060  Biso   1.000  H
  C291     1.0000 0.61487  0.90994  0.16313  Biso   1.000  C
  C292     1.0000 0.63302  0.94440  0.13295  Biso   1.000  C
  H195     1.0000 0.60660  0.96740  0.11990  Biso   1.000  H
  C293     1.0000 0.69030  0.94440  0.12231  Biso   1.000  C
  H196     1.0000 0.70120  0.96720  0.10160  Biso   1.000  H
  C294     1.0000 0.55376  0.90843  0.17541  Biso   1.000  C
  C295     1.0000 0.53083  0.90352  0.21143  Biso   1.000  C
  C296     1.0000 0.56440  0.90543  0.24782  Biso   1.000  C
  C297     1.0000 0.58500  0.95550  0.26174  Biso   1.000  C
  H197     1.0000 0.57880  0.98980  0.24860  Biso   1.000  H
  C298     1.0000 0.61590  0.95540  0.29628  Biso   1.000  C
  H198     1.0000 0.63140  0.99020  0.30460  Biso   1.000  H
  N50      1.0000 0.62440  0.90957  0.31781  Biso   1.000  N
  C299     1.0000 0.60360  0.86200  0.30423  Biso   1.000  C
  H199     1.0000 0.60890  0.82860  0.31850  Biso   1.000  H
  C300     1.0000 0.57390  0.85720  0.26959  Biso   1.000  C
  H200     1.0000 0.56060  0.82140  0.26140  Biso   1.000  H
  N51      1.0000 0.23046  0.41403  0.63974  Biso   1.000  N
  C301     1.0000 0.21340  0.38080  0.66856  Biso   1.000  C
  H201     1.0000 0.24110  0.35890  0.68130  Biso   1.000  H
  C302     1.0000 0.15670  0.37680  0.68069  Biso   1.000  C
  H202     1.0000 0.14680  0.35200  0.70060  Biso   1.000  H
  C303     1.0000 0.11487  0.40994  0.66313  Biso   1.000  C
  C304     1.0000 0.13302  0.44440  0.63295  Biso   1.000  C
  H203     1.0000 0.10660  0.46740  0.61990  Biso   1.000  H
  C305     1.0000 0.19030  0.44440  0.62231  Biso   1.000  C
  H204     1.0000 0.20120  0.46720  0.60160  Biso   1.000  H
  C306     1.0000 0.05376  0.40843  0.67541  Biso   1.000  C
  C307     1.0000 0.03083  0.40352  0.71143  Biso   1.000  C
  C308     1.0000 0.06440  0.40543  0.74782  Biso   1.000  C
  C309     1.0000 0.08500  0.45550  0.76174  Biso   1.000  C
  H205     1.0000 0.07880  0.48980  0.74860  Biso   1.000  H
  C310     1.0000 0.11590  0.45540  0.79628  Biso   1.000  C
  H206     1.0000 0.13140  0.49020  0.80460  Biso   1.000  H
  N52      1.0000 0.12440  0.40957  0.81781  Biso   1.000  N
  C311     1.0000 0.10360  0.36200  0.80423  Biso   1.000  C
  H207     1.0000 0.10890  0.32860  0.81850  Biso   1.000  H
  C312     1.0000 0.07390  0.35720  0.76959  Biso   1.000  C
  H208     1.0000 0.06060  0.32140  0.76140  Biso   1.000  H
  N53      1.0000 0.76954  0.08597  0.63974  Biso   1.000  N
  C313     1.0000 0.78660  0.11920  0.66856  Biso   1.000  C
  H209     1.0000 0.75890  0.14110  0.68130  Biso   1.000  H
  C314     1.0000 0.84330  0.12320  0.68069  Biso   1.000  C
  H210     1.0000 0.85320  0.14800  0.70060  Biso   1.000  H
  C315     1.0000 0.88513  0.09006  0.66313  Biso   1.000  C
  C316     1.0000 0.86698  0.05560  0.63295  Biso   1.000  C
  H211     1.0000 0.89340  0.03260  0.61990  Biso   1.000  H
  C317     1.0000 0.80970  0.05560  0.62231  Biso   1.000  C
  H212     1.0000 0.79880  0.03280  0.60160  Biso   1.000  H
  C318     1.0000 0.94624  0.09157  0.67541  Biso   1.000  C
  C319     1.0000 0.96917  0.09648  0.71143  Biso   1.000  C
  C320     1.0000 0.93560  0.09457  0.74782  Biso   1.000  C
  C321     1.0000 0.91500  0.04450  0.76174  Biso   1.000  C
  H213     1.0000 0.92120  0.01020  0.74860  Biso   1.000  H
  C322     1.0000 0.88410  0.04460  0.79628  Biso   1.000  C
  H214     1.0000 0.86860  0.00980  0.80460  Biso   1.000  H
  N54      1.0000 0.87560  0.09043  0.81781  Biso   1.000  N
  C323     1.0000 0.89640  0.13800  0.80423  Biso   1.000  C
  H215     1.0000 0.89110  0.17140  0.81850  Biso   1.000  H
  C324     1.0000 0.92610  0.14280  0.76959  Biso   1.000  C
  H216     1.0000 0.93940  0.17860  0.76140  Biso   1.000  H
  N55      1.0000 0.26954  0.58597  0.13974  Biso   1.000  N
  C325     1.0000 0.28660  0.61920  0.16856  Biso   1.000  C
  H217     1.0000 0.25890  0.64110  0.18130  Biso   1.000  H
  C326     1.0000 0.34330  0.62320  0.18069  Biso   1.000  C
  H218     1.0000 0.35320  0.64800  0.20060  Biso   1.000  H
  C327     1.0000 0.38513  0.59006  0.16313  Biso   1.000  C
  C328     1.0000 0.36698  0.55560  0.13295  Biso   1.000  C
  H219     1.0000 0.39340  0.53260  0.11990  Biso   1.000  H
  C329     1.0000 0.30970  0.55560  0.12231  Biso   1.000  C
  H220     1.0000 0.29880  0.53280  0.10160  Biso   1.000  H
  C330     1.0000 0.44624  0.59157  0.17541  Biso   1.000  C
  C331     1.0000 0.46917  0.59648  0.21143  Biso   1.000  C
  C332     1.0000 0.43560  0.59457  0.24782  Biso   1.000  C
  C333     1.0000 0.41500  0.54450  0.26174  Biso   1.000  C
  H221     1.0000 0.42120  0.51020  0.24860  Biso   1.000  H
  C334     1.0000 0.38410  0.54460  0.29628  Biso   1.000  C
  H222     1.0000 0.36860  0.50980  0.30460  Biso   1.000  H
  N56      1.0000 0.37560  0.59043  0.31781  Biso   1.000  N
  C335     1.0000 0.39640  0.63800  0.30423  Biso   1.000  C
  H223     1.0000 0.39110  0.67140  0.31850  Biso   1.000  H
  C336     1.0000 0.42610  0.64280  0.26959  Biso   1.000  C
  H224     1.0000 0.43940  0.67860  0.26140  Biso   1.000  H
  N57      1.0000 0.66403  0.01954  0.38974  Biso   1.000  N
  C337     1.0000 0.63080  0.03660  0.41856  Biso   1.000  C
  H225     1.0000 0.60890  0.00890  0.43130  Biso   1.000  H
  C338     1.0000 0.62680  0.09330  0.43069  Biso   1.000  C
  H226     1.0000 0.60200  0.10320  0.45060  Biso   1.000  H
  C339     1.0000 0.65994  0.13513  0.41313  Biso   1.000  C
  C340     1.0000 0.69440  0.11698  0.38295  Biso   1.000  C
  H227     1.0000 0.71740  0.14340  0.36990  Biso   1.000  H
  C341     1.0000 0.69440  0.05970  0.37231  Biso   1.000  C
  H228     1.0000 0.71720  0.04880  0.35160  Biso   1.000  H
  C342     1.0000 0.65843  0.19624  0.42541  Biso   1.000  C
  C343     1.0000 0.65352  0.21917  0.46143  Biso   1.000  C
  C344     1.0000 0.65543  0.18560  0.49782  Biso   1.000  C
  C345     1.0000 0.70550  0.16500  0.51174  Biso   1.000  C
  H229     1.0000 0.73980  0.17120  0.49860  Biso   1.000  H
  C346     1.0000 0.70540  0.13410  0.54628  Biso   1.000  C
  H230     1.0000 0.74020  0.11860  0.55460  Biso   1.000  H
  N58      1.0000 0.65957  0.12560  0.56781  Biso   1.000  N
  C347     1.0000 0.61200  0.14640  0.55423  Biso   1.000  C
  H231     1.0000 0.57860  0.14110  0.56850  Biso   1.000  H
  C348     1.0000 0.60720  0.17610  0.51959  Biso   1.000  C
  H232     1.0000 0.57140  0.18940  0.51140  Biso   1.000  H
  N59      1.0000 0.16403  0.51954  0.88974  Biso   1.000  N
  C349     1.0000 0.13080  0.53660  0.91856  Biso   1.000  C
  H233     1.0000 0.10890  0.50890  0.93130  Biso   1.000  H
  C350     1.0000 0.12680  0.59330  0.93069  Biso   1.000  C
  H234     1.0000 0.10200  0.60320  0.95060  Biso   1.000  H
  C351     1.0000 0.15994  0.63513  0.91313  Biso   1.000  C
  C352     1.0000 0.19440  0.61698  0.88295  Biso   1.000  C
  H235     1.0000 0.21740  0.64340  0.86990  Biso   1.000  H
  C353     1.0000 0.19440  0.55970  0.87231  Biso   1.000  C
  H236     1.0000 0.21720  0.54880  0.85160  Biso   1.000  H
  C354     1.0000 0.15843  0.69624  0.92541  Biso   1.000  C
  C355     1.0000 0.15352  0.71917  0.96143  Biso   1.000  C
  C356     1.0000 0.15543  0.68560  0.99782  Biso   1.000  C
  C357     1.0000 0.20550  0.66500  0.01174  Biso   1.000  C
  H237     1.0000 0.23980  0.67120  0.99860  Biso   1.000  H
  C358     1.0000 0.20540  0.63410  0.04628  Biso   1.000  C
  H238     1.0000 0.24020  0.61860  0.05460  Biso   1.000  H
  N60      1.0000 0.15957  0.62560  0.06781  Biso   1.000  N
  C359     1.0000 0.11200  0.64640  0.05423  Biso   1.000  C
  H239     1.0000 0.07860  0.64110  0.06850  Biso   1.000  H
  C360     1.0000 0.10720  0.67610  0.01959  Biso   1.000  C
  H240     1.0000 0.07140  0.68940  0.01140  Biso   1.000  H
  N61      1.0000 0.83597  0.98046  0.88974  Biso   1.000  N
  C361     1.0000 0.86920  0.96340  0.91856  Biso   1.000  C
  H241     1.0000 0.89110  0.99110  0.93130  Biso   1.000  H
  C362     1.0000 0.87320  0.90670  0.93069  Biso   1.000  C
  H242     1.0000 0.89800  0.89680  0.95060  Biso   1.000  H
  C363     1.0000 0.84006  0.86487  0.91313  Biso   1.000  C
  C364     1.0000 0.80560  0.88302  0.88295  Biso   1.000  C
  H243     1.0000 0.78260  0.85660  0.86990  Biso   1.000  H
  C365     1.0000 0.80560  0.94030  0.87231  Biso   1.000  C
  H244     1.0000 0.78280  0.95120  0.85160  Biso   1.000  H
  C366     1.0000 0.84157  0.80376  0.92541  Biso   1.000  C
  C367     1.0000 0.84648  0.78083  0.96143  Biso   1.000  C
  C368     1.0000 0.84457  0.81440  0.99782  Biso   1.000  C
  C369     1.0000 0.79450  0.83500  0.01174  Biso   1.000  C
  H245     1.0000 0.76020  0.82880  0.99860  Biso   1.000  H
  C370     1.0000 0.79460  0.86590  0.04628  Biso   1.000  C
  H246     1.0000 0.75980  0.88140  0.05460  Biso   1.000  H
  N62      1.0000 0.84043  0.87440  0.06781  Biso   1.000  N
  C371     1.0000 0.88800  0.85360  0.05423  Biso   1.000  C
  H247     1.0000 0.92140  0.85890  0.06850  Biso   1.000  H
  C372     1.0000 0.89280  0.82390  0.01959  Biso   1.000  C
  H248     1.0000 0.92860  0.81060  0.01140  Biso   1.000  H
  N63      1.0000 0.33597  0.48046  0.38974  Biso   1.000  N
  C373     1.0000 0.36920  0.46340  0.41856  Biso   1.000  C
  H249     1.0000 0.39110  0.49110  0.43130  Biso   1.000  H
  C374     1.0000 0.37320  0.40670  0.43069  Biso   1.000  C
  H250     1.0000 0.39800  0.39680  0.45060  Biso   1.000  H
  C375     1.0000 0.34006  0.36487  0.41313  Biso   1.000  C
  C376     1.0000 0.30560  0.38302  0.38295  Biso   1.000  C
  H251     1.0000 0.28260  0.35660  0.36990  Biso   1.000  H
  C377     1.0000 0.30560  0.44030  0.37231  Biso   1.000  C
  H252     1.0000 0.28280  0.45120  0.35160  Biso   1.000  H
  C378     1.0000 0.34157  0.30376  0.42541  Biso   1.000  C
  C379     1.0000 0.34648  0.28083  0.46143  Biso   1.000  C
  C380     1.0000 0.34457  0.31440  0.49782  Biso   1.000  C
  C381     1.0000 0.29450  0.33500  0.51174  Biso   1.000  C
  H253     1.0000 0.26020  0.32880  0.49860  Biso   1.000  H
  C382     1.0000 0.29460  0.36590  0.54628  Biso   1.000  C
  H254     1.0000 0.25980  0.38140  0.55460  Biso   1.000  H
  N64      1.0000 0.34043  0.37440  0.56781  Biso   1.000  N
  C383     1.0000 0.38800  0.35360  0.55423  Biso   1.000  C
  H255     1.0000 0.42140  0.35890  0.56850  Biso   1.000  H
  C384     1.0000 0.39280  0.32390  0.51959  Biso   1.000  C
  H256     1.0000 0.42860  0.31060  0.51140  Biso   1.000  H
  Ag1      1.0000 0.33050  0.08050  0.62500  Biso   1.000  Ag
  Ag2      1.0000 0.83050  0.58050  0.12500  Biso   1.000  Ag
  Ag3      1.0000 0.16950  0.91950  0.12500  Biso   1.000  Ag
  Ag4      1.0000 0.66950  0.41950  0.62500  Biso   1.000  Ag
  Ag5      1.0000 0.16950  0.08050  0.87500  Biso   1.000  Ag
  Ag6      1.0000 0.66950  0.58050  0.37500  Biso   1.000  Ag
  Ag7      1.0000 0.33050  0.91950  0.37500  Biso   1.000  Ag
  Ag8      1.0000 0.83050  0.41950  0.87500  Biso   1.000  Ag
  Ag9      1.0000 0.66950  0.91950  0.37500  Biso   1.000  Ag
  Ag10     1.0000 0.16950  0.41950  0.87500  Biso   1.000  Ag
  Ag11     1.0000 0.83050  0.08050  0.87500  Biso   1.000  Ag
  Ag12     1.0000 0.33050  0.58050  0.37500  Biso   1.000  Ag
  Ag13     1.0000 0.83050  0.91950  0.12500  Biso   1.000  Ag
  Ag14     1.0000 0.33050  0.41950  0.62500  Biso   1.000  Ag
  Ag15     1.0000 0.66950  0.08050  0.62500  Biso   1.000  Ag
  Ag16     1.0000 0.16950  0.58050  0.12500  Biso   1.000  Ag
  S1       1.0000 0.00000  0.08796  0.64076  Biso   1.000  S
  S2       1.0000 0.50000  0.58796  0.14076  Biso   1.000  S
  S3       1.0000 0.50000  0.91204  0.14076  Biso   1.000  S
  S4       1.0000 0.00000  0.41204  0.64076  Biso   1.000  S
  S5       1.0000 0.16204  0.75000  0.89076  Biso   1.000  S
  S6       1.0000 0.33796  0.25000  0.39076  Biso   1.000  S
  S7       1.0000 0.50000  0.08796  0.85924  Biso   1.000  S
  S8       1.0000 0.00000  0.58796  0.35924  Biso   1.000  S
  S9       1.0000 0.00000  0.91204  0.35924  Biso   1.000  S
  S10      1.0000 0.50000  0.41204  0.85924  Biso   1.000  S
  S11      1.0000 0.33796  0.75000  0.60924  Biso   1.000  S
  S12      1.0000 0.16204  0.25000  0.10924  Biso   1.000  S
  S13      1.0000 0.83796  0.25000  0.10924  Biso   1.000  S
  S14      1.0000 0.66204  0.75000  0.60924  Biso   1.000  S
  S15      1.0000 0.66204  0.25000  0.39076  Biso   1.000  S
  S16      1.0000 0.83796  0.75000  0.89076  Biso   1.000  S
