data_image0
_cell_length_a       22.636
_cell_length_b       22.636
_cell_length_c       35.393
_cell_angle_alpha    90
_cell_angle_beta     90
_cell_angle_gamma    90

_symmetry_space_group_name_H-M    "P 1"
_symmetry_int_tables_number       1

loop_
  _symmetry_equiv_pos_as_xyz
  'x, y, z'

loop_
  _atom_site_label
  _atom_site_occupancy
  _atom_site_fract_x
  _atom_site_fract_y
  _atom_site_fract_z
  _atom_site_thermal_displace_type
  _atom_site_B_iso_or_equiv
  _atom_site_type_symbol
  N1       1.0000 0.23512  0.09194  0.64049  Biso   1.000  N
  C1       1.0000 0.21733  0.12485  0.66954  Biso   1.000  C
  H1       1.0000 0.24550  0.14730  0.68220  Biso   1.000  H
  C2       1.0000 0.16035  0.12773  0.68193  Biso   1.000  C
  H2       1.0000 0.15050  0.15170  0.70230  Biso   1.000  H
  C3       1.0000 0.11730  0.09469  0.66391  Biso   1.000  C
  C4       1.0000 0.13478  0.06016  0.63380  Biso   1.000  C
  H3       1.0000 0.10740  0.03740  0.62080  Biso   1.000  H
  C5       1.0000 0.19411  0.05989  0.62317  Biso   1.000  C
  H4       1.0000 0.20550  0.03610  0.60300  Biso   1.000  H
  C6       1.0000 0.05478  0.09583  0.67599  Biso   1.000  C
  C7       1.0000 0.03144  0.10007  0.71144  Biso   1.000  C
  C8       1.0000 0.06519  0.09951  0.74734  Biso   1.000  C
  C9       1.0000 0.08324  0.04764  0.76305  Biso   1.000  C
  H5       1.0000 0.07660  0.01210  0.75060  Biso   1.000  H
  C10      1.0000 0.11162  0.04834  0.79782  Biso   1.000  C
  H6       1.0000 0.12280  0.01230  0.80820  Biso   1.000  H
  N2       1.0000 0.12380  0.09621  0.81705  Biso   1.000  N
  C11      1.0000 0.10759  0.14606  0.80130  Biso   1.000  C
  H7       1.0000 0.11650  0.18120  0.81370  Biso   1.000  H
  C12      1.0000 0.07782  0.14906  0.76719  Biso   1.000  C
  H8       1.0000 0.06630  0.18570  0.75780  Biso   1.000  H
  N3       1.0000 0.73512  0.59194  0.14049  Biso   1.000  N
  C13      1.0000 0.71733  0.62485  0.16954  Biso   1.000  C
  H9       1.0000 0.74550  0.64730  0.18220  Biso   1.000  H
  C14      1.0000 0.66035  0.62773  0.18193  Biso   1.000  C
  H10      1.0000 0.65050  0.65170  0.20230  Biso   1.000  H
  C15      1.0000 0.61730  0.59469  0.16391  Biso   1.000  C
  C16      1.0000 0.63478  0.56016  0.13380  Biso   1.000  C
  H11      1.0000 0.60740  0.53740  0.12080  Biso   1.000  H
  C17      1.0000 0.69411  0.55989  0.12317  Biso   1.000  C
  H12      1.0000 0.70550  0.53610  0.10300  Biso   1.000  H
  C18      1.0000 0.55478  0.59583  0.17599  Biso   1.000  C
  C19      1.0000 0.53144  0.60007  0.21144  Biso   1.000  C
  C20      1.0000 0.56519  0.59951  0.24734  Biso   1.000  C
  C21      1.0000 0.58324  0.54764  0.26305  Biso   1.000  C
  H13      1.0000 0.57660  0.51210  0.25060  Biso   1.000  H
  C22      1.0000 0.61162  0.54834  0.29782  Biso   1.000  C
  H14      1.0000 0.62280  0.51230  0.30820  Biso   1.000  H
  N4       1.0000 0.62380  0.59621  0.31705  Biso   1.000  N
  C23      1.0000 0.60759  0.64606  0.30130  Biso   1.000  C
  H15      1.0000 0.61650  0.68120  0.31370  Biso   1.000  H
  C24      1.0000 0.57782  0.64906  0.26719  Biso   1.000  C
  H16      1.0000 0.56630  0.68570  0.25780  Biso   1.000  H
  N5       1.0000 0.26488  0.90806  0.14049  Biso   1.000  N
  C25      1.0000 0.28267  0.87515  0.16954  Biso   1.000  C
  H17      1.0000 0.25450  0.85270  0.18220  Biso   1.000  H
  C26      1.0000 0.33965  0.87227  0.18193  Biso   1.000  C
  H18      1.0000 0.34950  0.84830  0.20230  Biso   1.000  H
  C27      1.0000 0.38270  0.90531  0.16391  Biso   1.000  C
  C28      1.0000 0.36522  0.93984  0.13380  Biso   1.000  C
  H19      1.0000 0.39260  0.96260  0.12080  Biso   1.000  H
  C29      1.0000 0.30589  0.94011  0.12317  Biso   1.000  C
  H20      1.0000 0.29450  0.96390  0.10300  Biso   1.000  H
  C30      1.0000 0.44522  0.90417  0.17599  Biso   1.000  C
  C31      1.0000 0.46856  0.89993  0.21144  Biso   1.000  C
  C32      1.0000 0.43481  0.90049  0.24734  Biso   1.000  C
  C33      1.0000 0.41676  0.95236  0.26305  Biso   1.000  C
  H21      1.0000 0.42340  0.98790  0.25060  Biso   1.000  H
  C34      1.0000 0.38838  0.95166  0.29782  Biso   1.000  C
  H22      1.0000 0.37720  0.98770  0.30820  Biso   1.000  H
  N6       1.0000 0.37620  0.90379  0.31705  Biso   1.000  N
  C35      1.0000 0.39241  0.85394  0.30130  Biso   1.000  C
  H23      1.0000 0.38350  0.81880  0.31370  Biso   1.000  H
  C36      1.0000 0.42218  0.85094  0.26719  Biso   1.000  C
  H24      1.0000 0.43370  0.81430  0.25780  Biso   1.000  H
  N7       1.0000 0.76488  0.40806  0.64049  Biso   1.000  N
  C37      1.0000 0.78267  0.37515  0.66954  Biso   1.000  C
  H25      1.0000 0.75450  0.35270  0.68220  Biso   1.000  H
  C38      1.0000 0.83965  0.37227  0.68193  Biso   1.000  C
  H26      1.0000 0.84950  0.34830  0.70230  Biso   1.000  H
  C39      1.0000 0.88270  0.40531  0.66391  Biso   1.000  C
  C40      1.0000 0.86522  0.43984  0.63380  Biso   1.000  C
  H27      1.0000 0.89260  0.46260  0.62080  Biso   1.000  H
  C41      1.0000 0.80589  0.44011  0.62317  Biso   1.000  C
  H28      1.0000 0.79450  0.46390  0.60300  Biso   1.000  H
  C42      1.0000 0.94522  0.40417  0.67599  Biso   1.000  C
  C43      1.0000 0.96856  0.39993  0.71144  Biso   1.000  C
  C44      1.0000 0.93481  0.40049  0.74734  Biso   1.000  C
  C45      1.0000 0.91676  0.45236  0.76305  Biso   1.000  C
  H29      1.0000 0.92340  0.48790  0.75060  Biso   1.000  H
  C46      1.0000 0.88838  0.45166  0.79782  Biso   1.000  C
  H30      1.0000 0.87720  0.48770  0.80820  Biso   1.000  H
  N8       1.0000 0.87620  0.40379  0.81705  Biso   1.000  N
  C47      1.0000 0.89241  0.35394  0.80130  Biso   1.000  C
  H31      1.0000 0.88350  0.31880  0.81370  Biso   1.000  H
  C48      1.0000 0.92218  0.35094  0.76719  Biso   1.000  C
  H32      1.0000 0.93370  0.31430  0.75780  Biso   1.000  H
  N9       1.0000 0.15806  0.98512  0.89049  Biso   1.000  N
  C49      1.0000 0.12515  0.96733  0.91954  Biso   1.000  C
  H33      1.0000 0.10270  0.99550  0.93220  Biso   1.000  H
  C50      1.0000 0.12227  0.91035  0.93193  Biso   1.000  C
  H34      1.0000 0.09830  0.90050  0.95230  Biso   1.000  H
  C51      1.0000 0.15531  0.86730  0.91391  Biso   1.000  C
  C52      1.0000 0.18984  0.88478  0.88380  Biso   1.000  C
  H35      1.0000 0.21260  0.85740  0.87080  Biso   1.000  H
  C53      1.0000 0.19011  0.94411  0.87317  Biso   1.000  C
  H36      1.0000 0.21390  0.95550  0.85300  Biso   1.000  H
  C54      1.0000 0.15417  0.80478  0.92599  Biso   1.000  C
  C55      1.0000 0.14993  0.78144  0.96144  Biso   1.000  C
  C56      1.0000 0.15049  0.81519  0.99734  Biso   1.000  C
  C57      1.0000 0.20236  0.83324  0.01305  Biso   1.000  C
  H37      1.0000 0.23790  0.82660  0.00060  Biso   1.000  H
  C58      1.0000 0.20166  0.86162  0.04782  Biso   1.000  C
  H38      1.0000 0.23770  0.87280  0.05820  Biso   1.000  H
  N10      1.0000 0.15379  0.87380  0.06705  Biso   1.000  N
  C59      1.0000 0.10394  0.85759  0.05130  Biso   1.000  C
  H39      1.0000 0.06880  0.86650  0.06370  Biso   1.000  H
  C60      1.0000 0.10094  0.82782  0.01719  Biso   1.000  C
  H40      1.0000 0.06430  0.81630  0.00780  Biso   1.000  H
  N11      1.0000 0.65806  0.48512  0.39049  Biso   1.000  N
  C61      1.0000 0.62515  0.46733  0.41954  Biso   1.000  C
  H41      1.0000 0.60270  0.49550  0.43220  Biso   1.000  H
  C62      1.0000 0.62227  0.41035  0.43193  Biso   1.000  C
  H42      1.0000 0.59830  0.40050  0.45230  Biso   1.000  H
  C63      1.0000 0.65531  0.36730  0.41391  Biso   1.000  C
  C64      1.0000 0.68984  0.38478  0.38380  Biso   1.000  C
  H43      1.0000 0.71260  0.35740  0.37080  Biso   1.000  H
  C65      1.0000 0.69011  0.44411  0.37317  Biso   1.000  C
  H44      1.0000 0.71390  0.45550  0.35300  Biso   1.000  H
  C66      1.0000 0.65417  0.30478  0.42599  Biso   1.000  C
  C67      1.0000 0.64993  0.28144  0.46144  Biso   1.000  C
  C68      1.0000 0.65049  0.31519  0.49734  Biso   1.000  C
  C69      1.0000 0.70236  0.33324  0.51305  Biso   1.000  C
  H45      1.0000 0.73790  0.32660  0.50060  Biso   1.000  H
  C70      1.0000 0.70166  0.36162  0.54782  Biso   1.000  C
  H46      1.0000 0.73770  0.37280  0.55820  Biso   1.000  H
  N12      1.0000 0.65379  0.37380  0.56705  Biso   1.000  N
  C71      1.0000 0.60394  0.35759  0.55130  Biso   1.000  C
  H47      1.0000 0.56880  0.36650  0.56370  Biso   1.000  H
  C72      1.0000 0.60094  0.32782  0.51719  Biso   1.000  C
  H48      1.0000 0.56430  0.31630  0.50780  Biso   1.000  H
  N13      1.0000 0.34194  0.01488  0.39049  Biso   1.000  N
  C73      1.0000 0.37485  0.03267  0.41954  Biso   1.000  C
  H49      1.0000 0.39730  0.00450  0.43220  Biso   1.000  H
  C74      1.0000 0.37773  0.08965  0.43193  Biso   1.000  C
  H50      1.0000 0.40170  0.09950  0.45230  Biso   1.000  H
  C75      1.0000 0.34469  0.13270  0.41391  Biso   1.000  C
  C76      1.0000 0.31016  0.11522  0.38380  Biso   1.000  C
  H51      1.0000 0.28740  0.14260  0.37080  Biso   1.000  H
  C77      1.0000 0.30989  0.05589  0.37317  Biso   1.000  C
  H52      1.0000 0.28610  0.04450  0.35300  Biso   1.000  H
  C78      1.0000 0.34583  0.19522  0.42599  Biso   1.000  C
  C79      1.0000 0.35007  0.21856  0.46144  Biso   1.000  C
  C80      1.0000 0.34951  0.18481  0.49734  Biso   1.000  C
  C81      1.0000 0.29764  0.16676  0.51305  Biso   1.000  C
  H53      1.0000 0.26210  0.17340  0.50060  Biso   1.000  H
  C82      1.0000 0.29834  0.13838  0.54782  Biso   1.000  C
  H54      1.0000 0.26230  0.12720  0.55820  Biso   1.000  H
  N14      1.0000 0.34621  0.12620  0.56705  Biso   1.000  N
  C83      1.0000 0.39606  0.14241  0.55130  Biso   1.000  C
  H55      1.0000 0.43120  0.13350  0.56370  Biso   1.000  H
  C84      1.0000 0.39906  0.17218  0.51719  Biso   1.000  C
  H56      1.0000 0.43570  0.18370  0.50780  Biso   1.000  H
  N15      1.0000 0.84194  0.51488  0.89049  Biso   1.000  N
  C85      1.0000 0.87485  0.53267  0.91954  Biso   1.000  C
  H57      1.0000 0.89730  0.50450  0.93220  Biso   1.000  H
  C86      1.0000 0.87773  0.58965  0.93193  Biso   1.000  C
  H58      1.0000 0.90170  0.59950  0.95230  Biso   1.000  H
  C87      1.0000 0.84469  0.63270  0.91391  Biso   1.000  C
  C88      1.0000 0.81016  0.61522  0.88380  Biso   1.000  C
  H59      1.0000 0.78740  0.64260  0.87080  Biso   1.000  H
  C89      1.0000 0.80989  0.55589  0.87317  Biso   1.000  C
  H60      1.0000 0.78610  0.54450  0.85300  Biso   1.000  H
  C90      1.0000 0.84583  0.69522  0.92599  Biso   1.000  C
  C91      1.0000 0.85007  0.71856  0.96144  Biso   1.000  C
  C92      1.0000 0.84951  0.68481  0.99734  Biso   1.000  C
  C93      1.0000 0.79764  0.66676  0.01305  Biso   1.000  C
  H61      1.0000 0.76210  0.67340  0.00060  Biso   1.000  H
  C94      1.0000 0.79834  0.63838  0.04782  Biso   1.000  C
  H62      1.0000 0.76230  0.62720  0.05820  Biso   1.000  H
  N16      1.0000 0.84621  0.62620  0.06705  Biso   1.000  N
  C95      1.0000 0.89606  0.64241  0.05130  Biso   1.000  C
  H63      1.0000 0.93120  0.63350  0.06370  Biso   1.000  H
  C96      1.0000 0.89906  0.67218  0.01719  Biso   1.000  C
  H64      1.0000 0.93570  0.68370  0.00780  Biso   1.000  H
  N17      1.0000 0.26488  0.09194  0.85951  Biso   1.000  N
  C97      1.0000 0.28267  0.12485  0.83046  Biso   1.000  C
  H65      1.0000 0.25450  0.14730  0.81780  Biso   1.000  H
  C98      1.0000 0.33965  0.12773  0.81807  Biso   1.000  C
  H66      1.0000 0.34950  0.15170  0.79770  Biso   1.000  H
  C99      1.0000 0.38270  0.09469  0.83609  Biso   1.000  C
  C100     1.0000 0.36522  0.06016  0.86620  Biso   1.000  C
  H67      1.0000 0.39260  0.03740  0.87920  Biso   1.000  H
  C101     1.0000 0.30589  0.05989  0.87683  Biso   1.000  C
  H68      1.0000 0.29450  0.03610  0.89700  Biso   1.000  H
  C102     1.0000 0.44522  0.09583  0.82401  Biso   1.000  C
  C103     1.0000 0.46856  0.10007  0.78856  Biso   1.000  C
  C104     1.0000 0.43481  0.09951  0.75266  Biso   1.000  C
  C105     1.0000 0.41676  0.04764  0.73695  Biso   1.000  C
  H69      1.0000 0.42340  0.01210  0.74940  Biso   1.000  H
  C106     1.0000 0.38838  0.04834  0.70218  Biso   1.000  C
  H70      1.0000 0.37720  0.01230  0.69180  Biso   1.000  H
  N18      1.0000 0.37620  0.09621  0.68295  Biso   1.000  N
  C107     1.0000 0.39241  0.14606  0.69870  Biso   1.000  C
  H71      1.0000 0.38350  0.18120  0.68630  Biso   1.000  H
  C108     1.0000 0.42218  0.14906  0.73281  Biso   1.000  C
  H72      1.0000 0.43370  0.18570  0.74220  Biso   1.000  H
  N19      1.0000 0.76488  0.59194  0.35951  Biso   1.000  N
  C109     1.0000 0.78267  0.62485  0.33046  Biso   1.000  C
  H73      1.0000 0.75450  0.64730  0.31780  Biso   1.000  H
  C110     1.0000 0.83965  0.62773  0.31807  Biso   1.000  C
  H74      1.0000 0.84950  0.65170  0.29770  Biso   1.000  H
  C111     1.0000 0.88270  0.59469  0.33609  Biso   1.000  C
  C112     1.0000 0.86522  0.56016  0.36620  Biso   1.000  C
  H75      1.0000 0.89260  0.53740  0.37920  Biso   1.000  H
  C113     1.0000 0.80589  0.55989  0.37683  Biso   1.000  C
  H76      1.0000 0.79450  0.53610  0.39700  Biso   1.000  H
  C114     1.0000 0.94522  0.59583  0.32401  Biso   1.000  C
  C115     1.0000 0.96856  0.60007  0.28856  Biso   1.000  C
  C116     1.0000 0.93481  0.59951  0.25266  Biso   1.000  C
  C117     1.0000 0.91676  0.54764  0.23695  Biso   1.000  C
  H77      1.0000 0.92340  0.51210  0.24940  Biso   1.000  H
  C118     1.0000 0.88838  0.54834  0.20218  Biso   1.000  C
  H78      1.0000 0.87720  0.51230  0.19180  Biso   1.000  H
  N20      1.0000 0.87620  0.59621  0.18295  Biso   1.000  N
  C119     1.0000 0.89241  0.64606  0.19870  Biso   1.000  C
  H79      1.0000 0.88350  0.68120  0.18630  Biso   1.000  H
  C120     1.0000 0.92218  0.64906  0.23281  Biso   1.000  C
  H80      1.0000 0.93370  0.68570  0.24220  Biso   1.000  H
  N21      1.0000 0.23512  0.90806  0.35951  Biso   1.000  N
  C121     1.0000 0.21733  0.87515  0.33046  Biso   1.000  C
  H81      1.0000 0.24550  0.85270  0.31780  Biso   1.000  H
  C122     1.0000 0.16035  0.87227  0.31807  Biso   1.000  C
  H82      1.0000 0.15050  0.84830  0.29770  Biso   1.000  H
  C123     1.0000 0.11730  0.90531  0.33609  Biso   1.000  C
  C124     1.0000 0.13478  0.93984  0.36620  Biso   1.000  C
  H83      1.0000 0.10740  0.96260  0.37920  Biso   1.000  H
  C125     1.0000 0.19411  0.94011  0.37683  Biso   1.000  C
  H84      1.0000 0.20550  0.96390  0.39700  Biso   1.000  H
  C126     1.0000 0.05478  0.90417  0.32401  Biso   1.000  C
  C127     1.0000 0.03144  0.89993  0.28856  Biso   1.000  C
  C128     1.0000 0.06519  0.90049  0.25266  Biso   1.000  C
  C129     1.0000 0.08324  0.95236  0.23695  Biso   1.000  C
  H85      1.0000 0.07660  0.98790  0.24940  Biso   1.000  H
  C130     1.0000 0.11162  0.95166  0.20218  Biso   1.000  C
  H86      1.0000 0.12280  0.98770  0.19180  Biso   1.000  H
  N22      1.0000 0.12380  0.90379  0.18295  Biso   1.000  N
  C131     1.0000 0.10759  0.85394  0.19870  Biso   1.000  C
  H87      1.0000 0.11650  0.81880  0.18630  Biso   1.000  H
  C132     1.0000 0.07782  0.85094  0.23281  Biso   1.000  C
  H88      1.0000 0.06630  0.81430  0.24220  Biso   1.000  H
  N23      1.0000 0.73512  0.40806  0.85951  Biso   1.000  N
  C133     1.0000 0.71733  0.37515  0.83046  Biso   1.000  C
  H89      1.0000 0.74550  0.35270  0.81780  Biso   1.000  H
  C134     1.0000 0.66035  0.37227  0.81807  Biso   1.000  C
  H90      1.0000 0.65050  0.34830  0.79770  Biso   1.000  H
  C135     1.0000 0.61730  0.40531  0.83609  Biso   1.000  C
  C136     1.0000 0.63478  0.43984  0.86620  Biso   1.000  C
  H91      1.0000 0.60740  0.46260  0.87920  Biso   1.000  H
  C137     1.0000 0.69411  0.44011  0.87683  Biso   1.000  C
  H92      1.0000 0.70550  0.46390  0.89700  Biso   1.000  H
  C138     1.0000 0.55478  0.40417  0.82401  Biso   1.000  C
  C139     1.0000 0.53144  0.39993  0.78856  Biso   1.000  C
  C140     1.0000 0.56519  0.40049  0.75266  Biso   1.000  C
  C141     1.0000 0.58324  0.45236  0.73695  Biso   1.000  C
  H93      1.0000 0.57660  0.48790  0.74940  Biso   1.000  H
  C142     1.0000 0.61162  0.45166  0.70218  Biso   1.000  C
  H94      1.0000 0.62280  0.48770  0.69180  Biso   1.000  H
  N24      1.0000 0.62380  0.40379  0.68295  Biso   1.000  N
  C143     1.0000 0.60759  0.35394  0.69870  Biso   1.000  C
  H95      1.0000 0.61650  0.31880  0.68630  Biso   1.000  H
  C144     1.0000 0.57782  0.35094  0.73281  Biso   1.000  C
  H96      1.0000 0.56630  0.31430  0.74220  Biso   1.000  H
  N25      1.0000 0.34194  0.98512  0.60951  Biso   1.000  N
  C145     1.0000 0.37485  0.96733  0.58046  Biso   1.000  C
  H97      1.0000 0.39730  0.99550  0.56780  Biso   1.000  H
  C146     1.0000 0.37773  0.91035  0.56807  Biso   1.000  C
  H98      1.0000 0.40170  0.90050  0.54770  Biso   1.000  H
  C147     1.0000 0.34469  0.86730  0.58609  Biso   1.000  C
  C148     1.0000 0.31016  0.88478  0.61620  Biso   1.000  C
  H99      1.0000 0.28740  0.85740  0.62920  Biso   1.000  H
  C149     1.0000 0.30989  0.94411  0.62683  Biso   1.000  C
  H100     1.0000 0.28610  0.95550  0.64700  Biso   1.000  H
  C150     1.0000 0.34583  0.80478  0.57401  Biso   1.000  C
  C151     1.0000 0.35007  0.78144  0.53856  Biso   1.000  C
  C152     1.0000 0.34951  0.81519  0.50266  Biso   1.000  C
  C153     1.0000 0.29764  0.83324  0.48695  Biso   1.000  C
  H101     1.0000 0.26210  0.82660  0.49940  Biso   1.000  H
  C154     1.0000 0.29834  0.86162  0.45218  Biso   1.000  C
  H102     1.0000 0.26230  0.87280  0.44180  Biso   1.000  H
  N26      1.0000 0.34621  0.87380  0.43295  Biso   1.000  N
  C155     1.0000 0.39606  0.85759  0.44870  Biso   1.000  C
  H103     1.0000 0.43120  0.86650  0.43630  Biso   1.000  H
  C156     1.0000 0.39906  0.82782  0.48281  Biso   1.000  C
  H104     1.0000 0.43570  0.81630  0.49220  Biso   1.000  H
  N27      1.0000 0.84194  0.48512  0.10951  Biso   1.000  N
  C157     1.0000 0.87485  0.46733  0.08046  Biso   1.000  C
  H105     1.0000 0.89730  0.49550  0.06780  Biso   1.000  H
  C158     1.0000 0.87773  0.41035  0.06807  Biso   1.000  C
  H106     1.0000 0.90170  0.40050  0.04770  Biso   1.000  H
  C159     1.0000 0.84469  0.36730  0.08609  Biso   1.000  C
  C160     1.0000 0.81016  0.38478  0.11620  Biso   1.000  C
  H107     1.0000 0.78740  0.35740  0.12920  Biso   1.000  H
  C161     1.0000 0.80989  0.44411  0.12683  Biso   1.000  C
  H108     1.0000 0.78610  0.45550  0.14700  Biso   1.000  H
  C162     1.0000 0.84583  0.30478  0.07401  Biso   1.000  C
  C163     1.0000 0.85007  0.28144  0.03856  Biso   1.000  C
  C164     1.0000 0.84951  0.31519  0.00266  Biso   1.000  C
  C165     1.0000 0.79764  0.33324  0.98695  Biso   1.000  C
  H109     1.0000 0.76210  0.32660  0.99940  Biso   1.000  H
  C166     1.0000 0.79834  0.36162  0.95218  Biso   1.000  C
  H110     1.0000 0.76230  0.37280  0.94180  Biso   1.000  H
  N28      1.0000 0.84621  0.37380  0.93295  Biso   1.000  N
  C167     1.0000 0.89606  0.35759  0.94870  Biso   1.000  C
  H111     1.0000 0.93120  0.36650  0.93630  Biso   1.000  H
  C168     1.0000 0.89906  0.32782  0.98281  Biso   1.000  C
  H112     1.0000 0.93570  0.31630  0.99220  Biso   1.000  H
  N29      1.0000 0.15806  0.01488  0.10951  Biso   1.000  N
  C169     1.0000 0.12515  0.03267  0.08046  Biso   1.000  C
  H113     1.0000 0.10270  0.00450  0.06780  Biso   1.000  H
  C170     1.0000 0.12227  0.08965  0.06807  Biso   1.000  C
  H114     1.0000 0.09830  0.09950  0.04770  Biso   1.000  H
  C171     1.0000 0.15531  0.13270  0.08609  Biso   1.000  C
  C172     1.0000 0.18984  0.11522  0.11620  Biso   1.000  C
  H115     1.0000 0.21260  0.14260  0.12920  Biso   1.000  H
  C173     1.0000 0.19011  0.05589  0.12683  Biso   1.000  C
  H116     1.0000 0.21390  0.04450  0.14700  Biso   1.000  H
  C174     1.0000 0.15417  0.19522  0.07401  Biso   1.000  C
  C175     1.0000 0.14993  0.21856  0.03856  Biso   1.000  C
  C176     1.0000 0.15049  0.18481  0.00266  Biso   1.000  C
  C177     1.0000 0.20236  0.16676  0.98695  Biso   1.000  C
  H117     1.0000 0.23790  0.17340  0.99940  Biso   1.000  H
  C178     1.0000 0.20166  0.13838  0.95218  Biso   1.000  C
  H118     1.0000 0.23770  0.12720  0.94180  Biso   1.000  H
  N30      1.0000 0.15379  0.12620  0.93295  Biso   1.000  N
  C179     1.0000 0.10394  0.14241  0.94870  Biso   1.000  C
  H119     1.0000 0.06880  0.13350  0.93630  Biso   1.000  H
  C180     1.0000 0.10094  0.17218  0.98281  Biso   1.000  C
  H120     1.0000 0.06430  0.18370  0.99220  Biso   1.000  H
  N31      1.0000 0.65806  0.51488  0.60951  Biso   1.000  N
  C181     1.0000 0.62515  0.53267  0.58046  Biso   1.000  C
  H121     1.0000 0.60270  0.50450  0.56780  Biso   1.000  H
  C182     1.0000 0.62227  0.58965  0.56807  Biso   1.000  C
  H122     1.0000 0.59830  0.59950  0.54770  Biso   1.000  H
  C183     1.0000 0.65531  0.63270  0.58609  Biso   1.000  C
  C184     1.0000 0.68984  0.61522  0.61620  Biso   1.000  C
  H123     1.0000 0.71260  0.64260  0.62920  Biso   1.000  H
  C185     1.0000 0.69011  0.55589  0.62683  Biso   1.000  C
  H124     1.0000 0.71390  0.54450  0.64700  Biso   1.000  H
  C186     1.0000 0.65417  0.69522  0.57401  Biso   1.000  C
  C187     1.0000 0.64993  0.71856  0.53856  Biso   1.000  C
  C188     1.0000 0.65049  0.68481  0.50266  Biso   1.000  C
  C189     1.0000 0.70236  0.66676  0.48695  Biso   1.000  C
  H125     1.0000 0.73790  0.67340  0.49940  Biso   1.000  H
  C190     1.0000 0.70166  0.63838  0.45218  Biso   1.000  C
  H126     1.0000 0.73770  0.62720  0.44180  Biso   1.000  H
  N32      1.0000 0.65379  0.62620  0.43295  Biso   1.000  N
  C191     1.0000 0.60394  0.64241  0.44870  Biso   1.000  C
  H127     1.0000 0.56880  0.63350  0.43630  Biso   1.000  H
  C192     1.0000 0.60094  0.67218  0.48281  Biso   1.000  C
  H128     1.0000 0.56430  0.68370  0.49220  Biso   1.000  H
  N33      1.0000 0.76488  0.90806  0.35951  Biso   1.000  N
  C193     1.0000 0.78267  0.87515  0.33046  Biso   1.000  C
  H129     1.0000 0.75450  0.85270  0.31780  Biso   1.000  H
  C194     1.0000 0.83965  0.87227  0.31807  Biso   1.000  C
  H130     1.0000 0.84950  0.84830  0.29770  Biso   1.000  H
  C195     1.0000 0.88270  0.90531  0.33609  Biso   1.000  C
  C196     1.0000 0.86522  0.93984  0.36620  Biso   1.000  C
  H131     1.0000 0.89260  0.96260  0.37920  Biso   1.000  H
  C197     1.0000 0.80589  0.94011  0.37683  Biso   1.000  C
  H132     1.0000 0.79450  0.96390  0.39700  Biso   1.000  H
  C198     1.0000 0.94522  0.90417  0.32401  Biso   1.000  C
  C199     1.0000 0.96856  0.89993  0.28856  Biso   1.000  C
  C200     1.0000 0.93481  0.90049  0.25266  Biso   1.000  C
  C201     1.0000 0.91676  0.95236  0.23695  Biso   1.000  C
  H133     1.0000 0.92340  0.98790  0.24940  Biso   1.000  H
  C202     1.0000 0.88838  0.95166  0.20218  Biso   1.000  C
  H134     1.0000 0.87720  0.98770  0.19180  Biso   1.000  H
  N34      1.0000 0.87620  0.90379  0.18295  Biso   1.000  N
  C203     1.0000 0.89241  0.85394  0.19870  Biso   1.000  C
  H135     1.0000 0.88350  0.81880  0.18630  Biso   1.000  H
  C204     1.0000 0.92218  0.85094  0.23281  Biso   1.000  C
  H136     1.0000 0.93370  0.81430  0.24220  Biso   1.000  H
  N35      1.0000 0.26488  0.40806  0.85951  Biso   1.000  N
  C205     1.0000 0.28267  0.37515  0.83046  Biso   1.000  C
  H137     1.0000 0.25450  0.35270  0.81780  Biso   1.000  H
  C206     1.0000 0.33965  0.37227  0.81807  Biso   1.000  C
  H138     1.0000 0.34950  0.34830  0.79770  Biso   1.000  H
  C207     1.0000 0.38270  0.40531  0.83609  Biso   1.000  C
  C208     1.0000 0.36522  0.43984  0.86620  Biso   1.000  C
  H139     1.0000 0.39260  0.46260  0.87920  Biso   1.000  H
  C209     1.0000 0.30589  0.44011  0.87683  Biso   1.000  C
  H140     1.0000 0.29450  0.46390  0.89700  Biso   1.000  H
  C210     1.0000 0.44522  0.40417  0.82401  Biso   1.000  C
  C211     1.0000 0.46856  0.39993  0.78856  Biso   1.000  C
  C212     1.0000 0.43481  0.40049  0.75266  Biso   1.000  C
  C213     1.0000 0.41676  0.45236  0.73695  Biso   1.000  C
  H141     1.0000 0.42340  0.48790  0.74940  Biso   1.000  H
  C214     1.0000 0.38838  0.45166  0.70218  Biso   1.000  C
  H142     1.0000 0.37720  0.48770  0.69180  Biso   1.000  H
  N36      1.0000 0.37620  0.40379  0.68295  Biso   1.000  N
  C215     1.0000 0.39241  0.35394  0.69870  Biso   1.000  C
  H143     1.0000 0.38350  0.31880  0.68630  Biso   1.000  H
  C216     1.0000 0.42218  0.35094  0.73281  Biso   1.000  C
  H144     1.0000 0.43370  0.31430  0.74220  Biso   1.000  H
  N37      1.0000 0.73512  0.09194  0.85951  Biso   1.000  N
  C217     1.0000 0.71733  0.12485  0.83046  Biso   1.000  C
  H145     1.0000 0.74550  0.14730  0.81780  Biso   1.000  H
  C218     1.0000 0.66035  0.12773  0.81807  Biso   1.000  C
  H146     1.0000 0.65050  0.15170  0.79770  Biso   1.000  H
  C219     1.0000 0.61730  0.09469  0.83609  Biso   1.000  C
  C220     1.0000 0.63478  0.06016  0.86620  Biso   1.000  C
  H147     1.0000 0.60740  0.03740  0.87920  Biso   1.000  H
  C221     1.0000 0.69411  0.05989  0.87683  Biso   1.000  C
  H148     1.0000 0.70550  0.03610  0.89700  Biso   1.000  H
  C222     1.0000 0.55478  0.09583  0.82401  Biso   1.000  C
  C223     1.0000 0.53144  0.10007  0.78856  Biso   1.000  C
  C224     1.0000 0.56519  0.09951  0.75266  Biso   1.000  C
  C225     1.0000 0.58324  0.04764  0.73695  Biso   1.000  C
  H149     1.0000 0.57660  0.01210  0.74940  Biso   1.000  H
  C226     1.0000 0.61162  0.04834  0.70218  Biso   1.000  C
  H150     1.0000 0.62280  0.01230  0.69180  Biso   1.000  H
  N38      1.0000 0.62380  0.09621  0.68295  Biso   1.000  N
  C227     1.0000 0.60759  0.14606  0.69870  Biso   1.000  C
  H151     1.0000 0.61650  0.18120  0.68630  Biso   1.000  H
  C228     1.0000 0.57782  0.14906  0.73281  Biso   1.000  C
  H152     1.0000 0.56630  0.18570  0.74220  Biso   1.000  H
  N39      1.0000 0.23512  0.59194  0.35951  Biso   1.000  N
  C229     1.0000 0.21733  0.62485  0.33046  Biso   1.000  C
  H153     1.0000 0.24550  0.64730  0.31780  Biso   1.000  H
  C230     1.0000 0.16035  0.62773  0.31807  Biso   1.000  C
  H154     1.0000 0.15050  0.65170  0.29770  Biso   1.000  H
  C231     1.0000 0.11730  0.59469  0.33609  Biso   1.000  C
  C232     1.0000 0.13478  0.56016  0.36620  Biso   1.000  C
  H155     1.0000 0.10740  0.53740  0.37920  Biso   1.000  H
  C233     1.0000 0.19411  0.55989  0.37683  Biso   1.000  C
  H156     1.0000 0.20550  0.53610  0.39700  Biso   1.000  H
  C234     1.0000 0.05478  0.59583  0.32401  Biso   1.000  C
  C235     1.0000 0.03144  0.60007  0.28856  Biso   1.000  C
  C236     1.0000 0.06519  0.59951  0.25266  Biso   1.000  C
  C237     1.0000 0.08324  0.54764  0.23695  Biso   1.000  C
  H157     1.0000 0.07660  0.51210  0.24940  Biso   1.000  H
  C238     1.0000 0.11162  0.54834  0.20218  Biso   1.000  C
  H158     1.0000 0.12280  0.51230  0.19180  Biso   1.000  H
  N40      1.0000 0.12380  0.59621  0.18295  Biso   1.000  N
  C239     1.0000 0.10759  0.64606  0.19870  Biso   1.000  C
  H159     1.0000 0.11650  0.68120  0.18630  Biso   1.000  H
  C240     1.0000 0.07782  0.64906  0.23281  Biso   1.000  C
  H160     1.0000 0.06630  0.68570  0.24220  Biso   1.000  H
  N41      1.0000 0.84194  0.01488  0.10951  Biso   1.000  N
  C241     1.0000 0.87485  0.03267  0.08046  Biso   1.000  C
  H161     1.0000 0.89730  0.00450  0.06780  Biso   1.000  H
  C242     1.0000 0.87773  0.08965  0.06807  Biso   1.000  C
  H162     1.0000 0.90170  0.09950  0.04770  Biso   1.000  H
  C243     1.0000 0.84469  0.13270  0.08609  Biso   1.000  C
  C244     1.0000 0.81016  0.11522  0.11620  Biso   1.000  C
  H163     1.0000 0.78740  0.14260  0.12920  Biso   1.000  H
  C245     1.0000 0.80989  0.05589  0.12683  Biso   1.000  C
  H164     1.0000 0.78610  0.04450  0.14700  Biso   1.000  H
  C246     1.0000 0.84583  0.19522  0.07401  Biso   1.000  C
  C247     1.0000 0.85007  0.21856  0.03856  Biso   1.000  C
  C248     1.0000 0.84951  0.18481  0.00266  Biso   1.000  C
  C249     1.0000 0.79764  0.16676  0.98695  Biso   1.000  C
  H165     1.0000 0.76210  0.17340  0.99940  Biso   1.000  H
  C250     1.0000 0.79834  0.13838  0.95218  Biso   1.000  C
  H166     1.0000 0.76230  0.12720  0.94180  Biso   1.000  H
  N42      1.0000 0.84621  0.12620  0.93295  Biso   1.000  N
  C251     1.0000 0.89606  0.14241  0.94870  Biso   1.000  C
  H167     1.0000 0.93120  0.13350  0.93630  Biso   1.000  H
  C252     1.0000 0.89906  0.17218  0.98281  Biso   1.000  C
  H168     1.0000 0.93570  0.18370  0.99220  Biso   1.000  H
  N43      1.0000 0.34194  0.51488  0.60951  Biso   1.000  N
  C253     1.0000 0.37485  0.53267  0.58046  Biso   1.000  C
  H169     1.0000 0.39730  0.50450  0.56780  Biso   1.000  H
  C254     1.0000 0.37773  0.58965  0.56807  Biso   1.000  C
  H170     1.0000 0.40170  0.59950  0.54770  Biso   1.000  H
  C255     1.0000 0.34469  0.63270  0.58609  Biso   1.000  C
  C256     1.0000 0.31016  0.61522  0.61620  Biso   1.000  C
  H171     1.0000 0.28740  0.64260  0.62920  Biso   1.000  H
  C257     1.0000 0.30989  0.55589  0.62683  Biso   1.000  C
  H172     1.0000 0.28610  0.54450  0.64700  Biso   1.000  H
  C258     1.0000 0.34583  0.69522  0.57401  Biso   1.000  C
  C259     1.0000 0.35007  0.71856  0.53856  Biso   1.000  C
  C260     1.0000 0.34951  0.68481  0.50266  Biso   1.000  C
  C261     1.0000 0.29764  0.66676  0.48695  Biso   1.000  C
  H173     1.0000 0.26210  0.67340  0.49940  Biso   1.000  H
  C262     1.0000 0.29834  0.63838  0.45218  Biso   1.000  C
  H174     1.0000 0.26230  0.62720  0.44180  Biso   1.000  H
  N44      1.0000 0.34621  0.62620  0.43295  Biso   1.000  N
  C263     1.0000 0.39606  0.64241  0.44870  Biso   1.000  C
  H175     1.0000 0.43120  0.63350  0.43630  Biso   1.000  H
  C264     1.0000 0.39906  0.67218  0.48281  Biso   1.000  C
  H176     1.0000 0.43570  0.68370  0.49220  Biso   1.000  H
  N45      1.0000 0.65806  0.98512  0.60951  Biso   1.000  N
  C265     1.0000 0.62515  0.96733  0.58046  Biso   1.000  C
  H177     1.0000 0.60270  0.99550  0.56780  Biso   1.000  H
  C266     1.0000 0.62227  0.91035  0.56807  Biso   1.000  C
  H178     1.0000 0.59830  0.90050  0.54770  Biso   1.000  H
  C267     1.0000 0.65531  0.86730  0.58609  Biso   1.000  C
  C268     1.0000 0.68984  0.88478  0.61620  Biso   1.000  C
  H179     1.0000 0.71260  0.85740  0.62920  Biso   1.000  H
  C269     1.0000 0.69011  0.94411  0.62683  Biso   1.000  C
  H180     1.0000 0.71390  0.95550  0.64700  Biso   1.000  H
  C270     1.0000 0.65417  0.80478  0.57401  Biso   1.000  C
  C271     1.0000 0.64993  0.78144  0.53856  Biso   1.000  C
  C272     1.0000 0.65049  0.81519  0.50266  Biso   1.000  C
  C273     1.0000 0.70236  0.83324  0.48695  Biso   1.000  C
  H181     1.0000 0.73790  0.82660  0.49940  Biso   1.000  H
  C274     1.0000 0.70166  0.86162  0.45218  Biso   1.000  C
  H182     1.0000 0.73770  0.87280  0.44180  Biso   1.000  H
  N46      1.0000 0.65379  0.87380  0.43295  Biso   1.000  N
  C275     1.0000 0.60394  0.85759  0.44870  Biso   1.000  C
  H183     1.0000 0.56880  0.86650  0.43630  Biso   1.000  H
  C276     1.0000 0.60094  0.82782  0.48281  Biso   1.000  C
  H184     1.0000 0.56430  0.81630  0.49220  Biso   1.000  H
  N47      1.0000 0.15806  0.48512  0.10951  Biso   1.000  N
  C277     1.0000 0.12515  0.46733  0.08046  Biso   1.000  C
  H185     1.0000 0.10270  0.49550  0.06780  Biso   1.000  H
  C278     1.0000 0.12227  0.41035  0.06807  Biso   1.000  C
  H186     1.0000 0.09830  0.40050  0.04770  Biso   1.000  H
  C279     1.0000 0.15531  0.36730  0.08609  Biso   1.000  C
  C280     1.0000 0.18984  0.38478  0.11620  Biso   1.000  C
  H187     1.0000 0.21260  0.35740  0.12920  Biso   1.000  H
  C281     1.0000 0.19011  0.44411  0.12683  Biso   1.000  C
  H188     1.0000 0.21390  0.45550  0.14700  Biso   1.000  H
  C282     1.0000 0.15417  0.30478  0.07401  Biso   1.000  C
  C283     1.0000 0.14993  0.28144  0.03856  Biso   1.000  C
  C284     1.0000 0.15049  0.31519  0.00266  Biso   1.000  C
  C285     1.0000 0.20236  0.33324  0.98695  Biso   1.000  C
  H189     1.0000 0.23790  0.32660  0.99940  Biso   1.000  H
  C286     1.0000 0.20166  0.36162  0.95218  Biso   1.000  C
  H190     1.0000 0.23770  0.37280  0.94180  Biso   1.000  H
  N48      1.0000 0.15379  0.37380  0.93295  Biso   1.000  N
  C287     1.0000 0.10394  0.35759  0.94870  Biso   1.000  C
  H191     1.0000 0.06880  0.36650  0.93630  Biso   1.000  H
  C288     1.0000 0.10094  0.32782  0.98281  Biso   1.000  C
  H192     1.0000 0.06430  0.31630  0.99220  Biso   1.000  H
  N49      1.0000 0.73512  0.90806  0.14049  Biso   1.000  N
  C289     1.0000 0.71733  0.87515  0.16954  Biso   1.000  C
  H193     1.0000 0.74550  0.85270  0.18220  Biso   1.000  H
  C290     1.0000 0.66035  0.87227  0.18193  Biso   1.000  C
  H194     1.0000 0.65050  0.84830  0.20230  Biso   1.000  H
  C291     1.0000 0.61730  0.90531  0.16391  Biso   1.000  C
  C292     1.0000 0.63478  0.93984  0.13380  Biso   1.000  C
  H195     1.0000 0.60740  0.96260  0.12080  Biso   1.000  H
  C293     1.0000 0.69411  0.94011  0.12317  Biso   1.000  C
  H196     1.0000 0.70550  0.96390  0.10300  Biso   1.000  H
  C294     1.0000 0.55478  0.90417  0.17599  Biso   1.000  C
  C295     1.0000 0.53144  0.89993  0.21144  Biso   1.000  C
  C296     1.0000 0.56519  0.90049  0.24734  Biso   1.000  C
  C297     1.0000 0.58324  0.95236  0.26305  Biso   1.000  C
  H197     1.0000 0.57660  0.98790  0.25060  Biso   1.000  H
  C298     1.0000 0.61162  0.95166  0.29782  Biso   1.000  C
  H198     1.0000 0.62280  0.98770  0.30820  Biso   1.000  H
  N50      1.0000 0.62380  0.90379  0.31705  Biso   1.000  N
  C299     1.0000 0.60759  0.85394  0.30130  Biso   1.000  C
  H199     1.0000 0.61650  0.81880  0.31370  Biso   1.000  H
  C300     1.0000 0.57782  0.85094  0.26719  Biso   1.000  C
  H200     1.0000 0.56630  0.81430  0.25780  Biso   1.000  H
  N51      1.0000 0.23512  0.40806  0.64049  Biso   1.000  N
  C301     1.0000 0.21733  0.37515  0.66954  Biso   1.000  C
  H201     1.0000 0.24550  0.35270  0.68220  Biso   1.000  H
  C302     1.0000 0.16035  0.37227  0.68193  Biso   1.000  C
  H202     1.0000 0.15050  0.34830  0.70230  Biso   1.000  H
  C303     1.0000 0.11730  0.40531  0.66391  Biso   1.000  C
  C304     1.0000 0.13478  0.43984  0.63380  Biso   1.000  C
  H203     1.0000 0.10740  0.46260  0.62080  Biso   1.000  H
  C305     1.0000 0.19411  0.44011  0.62317  Biso   1.000  C
  H204     1.0000 0.20550  0.46390  0.60300  Biso   1.000  H
  C306     1.0000 0.05478  0.40417  0.67599  Biso   1.000  C
  C307     1.0000 0.03144  0.39993  0.71144  Biso   1.000  C
  C308     1.0000 0.06519  0.40049  0.74734  Biso   1.000  C
  C309     1.0000 0.08324  0.45236  0.76305  Biso   1.000  C
  H205     1.0000 0.07660  0.48790  0.75060  Biso   1.000  H
  C310     1.0000 0.11162  0.45166  0.79782  Biso   1.000  C
  H206     1.0000 0.12280  0.48770  0.80820  Biso   1.000  H
  N52      1.0000 0.12380  0.40379  0.81705  Biso   1.000  N
  C311     1.0000 0.10759  0.35394  0.80130  Biso   1.000  C
  H207     1.0000 0.11650  0.31880  0.81370  Biso   1.000  H
  C312     1.0000 0.07782  0.35094  0.76719  Biso   1.000  C
  H208     1.0000 0.06630  0.31430  0.75780  Biso   1.000  H
  N53      1.0000 0.76488  0.09194  0.64049  Biso   1.000  N
  C313     1.0000 0.78267  0.12485  0.66954  Biso   1.000  C
  H209     1.0000 0.75450  0.14730  0.68220  Biso   1.000  H
  C314     1.0000 0.83965  0.12773  0.68193  Biso   1.000  C
  H210     1.0000 0.84950  0.15170  0.70230  Biso   1.000  H
  C315     1.0000 0.88270  0.09469  0.66391  Biso   1.000  C
  C316     1.0000 0.86522  0.06016  0.63380  Biso   1.000  C
  H211     1.0000 0.89260  0.03740  0.62080  Biso   1.000  H
  C317     1.0000 0.80589  0.05989  0.62317  Biso   1.000  C
  H212     1.0000 0.79450  0.03610  0.60300  Biso   1.000  H
  C318     1.0000 0.94522  0.09583  0.67599  Biso   1.000  C
  C319     1.0000 0.96856  0.10007  0.71144  Biso   1.000  C
  C320     1.0000 0.93481  0.09951  0.74734  Biso   1.000  C
  C321     1.0000 0.91676  0.04764  0.76305  Biso   1.000  C
  H213     1.0000 0.92340  0.01210  0.75060  Biso   1.000  H
  C322     1.0000 0.88838  0.04834  0.79782  Biso   1.000  C
  H214     1.0000 0.87720  0.01230  0.80820  Biso   1.000  H
  N54      1.0000 0.87620  0.09621  0.81705  Biso   1.000  N
  C323     1.0000 0.89241  0.14606  0.80130  Biso   1.000  C
  H215     1.0000 0.88350  0.18120  0.81370  Biso   1.000  H
  C324     1.0000 0.92218  0.14906  0.76719  Biso   1.000  C
  H216     1.0000 0.93370  0.18570  0.75780  Biso   1.000  H
  N55      1.0000 0.26488  0.59194  0.14049  Biso   1.000  N
  C325     1.0000 0.28267  0.62485  0.16954  Biso   1.000  C
  H217     1.0000 0.25450  0.64730  0.18220  Biso   1.000  H
  C326     1.0000 0.33965  0.62773  0.18193  Biso   1.000  C
  H218     1.0000 0.34950  0.65170  0.20230  Biso   1.000  H
  C327     1.0000 0.38270  0.59469  0.16391  Biso   1.000  C
  C328     1.0000 0.36522  0.56016  0.13380  Biso   1.000  C
  H219     1.0000 0.39260  0.53740  0.12080  Biso   1.000  H
  C329     1.0000 0.30589  0.55989  0.12317  Biso   1.000  C
  H220     1.0000 0.29450  0.53610  0.10300  Biso   1.000  H
  C330     1.0000 0.44522  0.59583  0.17599  Biso   1.000  C
  C331     1.0000 0.46856  0.60007  0.21144  Biso   1.000  C
  C332     1.0000 0.43481  0.59951  0.24734  Biso   1.000  C
  C333     1.0000 0.41676  0.54764  0.26305  Biso   1.000  C
  H221     1.0000 0.42340  0.51210  0.25060  Biso   1.000  H
  C334     1.0000 0.38838  0.54834  0.29782  Biso   1.000  C
  H222     1.0000 0.37720  0.51230  0.30820  Biso   1.000  H
  N56      1.0000 0.37620  0.59621  0.31705  Biso   1.000  N
  C335     1.0000 0.39241  0.64606  0.30130  Biso   1.000  C
  H223     1.0000 0.38350  0.68120  0.31370  Biso   1.000  H
  C336     1.0000 0.42218  0.64906  0.26719  Biso   1.000  C
  H224     1.0000 0.43370  0.68570  0.25780  Biso   1.000  H
  N57      1.0000 0.65806  0.01488  0.39049  Biso   1.000  N
  C337     1.0000 0.62515  0.03267  0.41954  Biso   1.000  C
  H225     1.0000 0.60270  0.00450  0.43220  Biso   1.000  H
  C338     1.0000 0.62227  0.08965  0.43193  Biso   1.000  C
  H226     1.0000 0.59830  0.09950  0.45230  Biso   1.000  H
  C339     1.0000 0.65531  0.13270  0.41391  Biso   1.000  C
  C340     1.0000 0.68984  0.11522  0.38380  Biso   1.000  C
  H227     1.0000 0.71260  0.14260  0.37080  Biso   1.000  H
  C341     1.0000 0.69011  0.05589  0.37317  Biso   1.000  C
  H228     1.0000 0.71390  0.04450  0.35300  Biso   1.000  H
  C342     1.0000 0.65417  0.19522  0.42599  Biso   1.000  C
  C343     1.0000 0.64993  0.21856  0.46144  Biso   1.000  C
  C344     1.0000 0.65049  0.18481  0.49734  Biso   1.000  C
  C345     1.0000 0.70236  0.16676  0.51305  Biso   1.000  C
  H229     1.0000 0.73790  0.17340  0.50060  Biso   1.000  H
  C346     1.0000 0.70166  0.13838  0.54782  Biso   1.000  C
  H230     1.0000 0.73770  0.12720  0.55820  Biso   1.000  H
  N58      1.0000 0.65379  0.12620  0.56705  Biso   1.000  N
  C347     1.0000 0.60394  0.14241  0.55130  Biso   1.000  C
  H231     1.0000 0.56880  0.13350  0.56370  Biso   1.000  H
  C348     1.0000 0.60094  0.17218  0.51719  Biso   1.000  C
  H232     1.0000 0.56430  0.18370  0.50780  Biso   1.000  H
  N59      1.0000 0.15806  0.51488  0.89049  Biso   1.000  N
  C349     1.0000 0.12515  0.53267  0.91954  Biso   1.000  C
  H233     1.0000 0.10270  0.50450  0.93220  Biso   1.000  H
  C350     1.0000 0.12227  0.58965  0.93193  Biso   1.000  C
  H234     1.0000 0.09830  0.59950  0.95230  Biso   1.000  H
  C351     1.0000 0.15531  0.63270  0.91391  Biso   1.000  C
  C352     1.0000 0.18984  0.61522  0.88380  Biso   1.000  C
  H235     1.0000 0.21260  0.64260  0.87080  Biso   1.000  H
  C353     1.0000 0.19011  0.55589  0.87317  Biso   1.000  C
  H236     1.0000 0.21390  0.54450  0.85300  Biso   1.000  H
  C354     1.0000 0.15417  0.69522  0.92599  Biso   1.000  C
  C355     1.0000 0.14993  0.71856  0.96144  Biso   1.000  C
  C356     1.0000 0.15049  0.68481  0.99734  Biso   1.000  C
  C357     1.0000 0.20236  0.66676  0.01305  Biso   1.000  C
  H237     1.0000 0.23790  0.67340  0.00060  Biso   1.000  H
  C358     1.0000 0.20166  0.63838  0.04782  Biso   1.000  C
  H238     1.0000 0.23770  0.62720  0.05820  Biso   1.000  H
  N60      1.0000 0.15379  0.62620  0.06705  Biso   1.000  N
  C359     1.0000 0.10394  0.64241  0.05130  Biso   1.000  C
  H239     1.0000 0.06880  0.63350  0.06370  Biso   1.000  H
  C360     1.0000 0.10094  0.67218  0.01719  Biso   1.000  C
  H240     1.0000 0.06430  0.68370  0.00780  Biso   1.000  H
  N61      1.0000 0.84194  0.98512  0.89049  Biso   1.000  N
  C361     1.0000 0.87485  0.96733  0.91954  Biso   1.000  C
  H241     1.0000 0.89730  0.99550  0.93220  Biso   1.000  H
  C362     1.0000 0.87773  0.91035  0.93193  Biso   1.000  C
  H242     1.0000 0.90170  0.90050  0.95230  Biso   1.000  H
  C363     1.0000 0.84469  0.86730  0.91391  Biso   1.000  C
  C364     1.0000 0.81016  0.88478  0.88380  Biso   1.000  C
  H243     1.0000 0.78740  0.85740  0.87080  Biso   1.000  H
  C365     1.0000 0.80989  0.94411  0.87317  Biso   1.000  C
  H244     1.0000 0.78610  0.95550  0.85300  Biso   1.000  H
  C366     1.0000 0.84583  0.80478  0.92599  Biso   1.000  C
  C367     1.0000 0.85007  0.78144  0.96144  Biso   1.000  C
  C368     1.0000 0.84951  0.81519  0.99734  Biso   1.000  C
  C369     1.0000 0.79764  0.83324  0.01305  Biso   1.000  C
  H245     1.0000 0.76210  0.82660  0.00060  Biso   1.000  H
  C370     1.0000 0.79834  0.86162  0.04782  Biso   1.000  C
  H246     1.0000 0.76230  0.87280  0.05820  Biso   1.000  H
  N62      1.0000 0.84621  0.87380  0.06705  Biso   1.000  N
  C371     1.0000 0.89606  0.85759  0.05130  Biso   1.000  C
  H247     1.0000 0.93120  0.86650  0.06370  Biso   1.000  H
  C372     1.0000 0.89906  0.82782  0.01719  Biso   1.000  C
  H248     1.0000 0.93570  0.81630  0.00780  Biso   1.000  H
  N63      1.0000 0.34194  0.48512  0.39049  Biso   1.000  N
  C373     1.0000 0.37485  0.46733  0.41954  Biso   1.000  C
  H249     1.0000 0.39730  0.49550  0.43220  Biso   1.000  H
  C374     1.0000 0.37773  0.41035  0.43193  Biso   1.000  C
  H250     1.0000 0.40170  0.40050  0.45230  Biso   1.000  H
  C375     1.0000 0.34469  0.36730  0.41391  Biso   1.000  C
  C376     1.0000 0.31016  0.38478  0.38380  Biso   1.000  C
  H251     1.0000 0.28740  0.35740  0.37080  Biso   1.000  H
  C377     1.0000 0.30989  0.44411  0.37317  Biso   1.000  C
  H252     1.0000 0.28610  0.45550  0.35300  Biso   1.000  H
  C378     1.0000 0.34583  0.30478  0.42599  Biso   1.000  C
  C379     1.0000 0.35007  0.28144  0.46144  Biso   1.000  C
  C380     1.0000 0.34951  0.31519  0.49734  Biso   1.000  C
  C381     1.0000 0.29764  0.33324  0.51305  Biso   1.000  C
  H253     1.0000 0.26210  0.32660  0.50060  Biso   1.000  H
  C382     1.0000 0.29834  0.36162  0.54782  Biso   1.000  C
  H254     1.0000 0.26230  0.37280  0.55820  Biso   1.000  H
  N64      1.0000 0.34621  0.37380  0.56705  Biso   1.000  N
  C383     1.0000 0.39606  0.35759  0.55130  Biso   1.000  C
  H255     1.0000 0.43120  0.36650  0.56370  Biso   1.000  H
  C384     1.0000 0.39906  0.32782  0.51719  Biso   1.000  C
  H256     1.0000 0.43570  0.31630  0.50780  Biso   1.000  H
  Ag1      1.0000 0.33671  0.08671  0.62500  Biso   1.000  Ag
  Ag2      1.0000 0.83671  0.58671  0.12500  Biso   1.000  Ag
  Ag3      1.0000 0.16329  0.91329  0.12500  Biso   1.000  Ag
  Ag4      1.0000 0.66329  0.41329  0.62500  Biso   1.000  Ag
  Ag5      1.0000 0.16329  0.08671  0.87500  Biso   1.000  Ag
  Ag6      1.0000 0.66329  0.58671  0.37500  Biso   1.000  Ag
  Ag7      1.0000 0.33671  0.91329  0.37500  Biso   1.000  Ag
  Ag8      1.0000 0.83671  0.41329  0.87500  Biso   1.000  Ag
  Ag9      1.0000 0.66329  0.91329  0.37500  Biso   1.000  Ag
  Ag10     1.0000 0.16329  0.41329  0.87500  Biso   1.000  Ag
  Ag11     1.0000 0.83671  0.08671  0.87500  Biso   1.000  Ag
  Ag12     1.0000 0.33671  0.58671  0.37500  Biso   1.000  Ag
  Ag13     1.0000 0.83671  0.91329  0.12500  Biso   1.000  Ag
  Ag14     1.0000 0.33671  0.41329  0.62500  Biso   1.000  Ag
  Ag15     1.0000 0.66329  0.08671  0.62500  Biso   1.000  Ag
  Ag16     1.0000 0.16329  0.58671  0.12500  Biso   1.000  Ag
  S1       1.0000 0.00000  0.09223  0.64206  Biso   1.000  S
  S2       1.0000 0.50000  0.59223  0.14206  Biso   1.000  S
  S3       1.0000 0.50000  0.90777  0.14206  Biso   1.000  S
  S4       1.0000 0.00000  0.40777  0.64206  Biso   1.000  S
  S5       1.0000 0.15777  0.75000  0.89206  Biso   1.000  S
  S6       1.0000 0.34223  0.25000  0.39206  Biso   1.000  S
  S7       1.0000 0.50000  0.09223  0.85794  Biso   1.000  S
  S8       1.0000 0.00000  0.59223  0.35794  Biso   1.000  S
  S9       1.0000 0.00000  0.90777  0.35794  Biso   1.000  S
  S10      1.0000 0.50000  0.40777  0.85794  Biso   1.000  S
  S11      1.0000 0.34223  0.75000  0.60794  Biso   1.000  S
  S12      1.0000 0.15777  0.25000  0.10794  Biso   1.000  S
  S13      1.0000 0.84223  0.25000  0.10794  Biso   1.000  S
  S14      1.0000 0.65777  0.75000  0.60794  Biso   1.000  S
  S15      1.0000 0.65777  0.25000  0.39206  Biso   1.000  S
  S16      1.0000 0.84223  0.75000  0.89206  Biso   1.000  S
