data_image0
_cell_length_a       22.543
_cell_length_b       22.543
_cell_length_c       35.5167
_cell_angle_alpha    90
_cell_angle_beta     90
_cell_angle_gamma    90

_symmetry_space_group_name_H-M    "P 1"
_symmetry_int_tables_number       1

loop_
  _symmetry_equiv_pos_as_xyz
  'x, y, z'

loop_
  _atom_site_label
  _atom_site_occupancy
  _atom_site_fract_x
  _atom_site_fract_y
  _atom_site_fract_z
  _atom_site_thermal_displace_type
  _atom_site_B_iso_or_equiv
  _atom_site_type_symbol
  N1       1.0000 0.23632  0.09176  0.64109  Biso   1.000  N
  C1       1.0000 0.21900  0.12319  0.67091  Biso   1.000  C
  H1       1.0000 0.24830  0.14410  0.68480  Biso   1.000  H
  C2       1.0000 0.16087  0.12711  0.68276  Biso   1.000  C
  H2       1.0000 0.15060  0.15140  0.70360  Biso   1.000  H
  C3       1.0000 0.11773  0.09512  0.66383  Biso   1.000  C
  C4       1.0000 0.13575  0.06162  0.63315  Biso   1.000  C
  H3       1.0000 0.10770  0.03910  0.61920  Biso   1.000  H
  C5       1.0000 0.19464  0.06127  0.62305  Biso   1.000  C
  H4       1.0000 0.20620  0.03790  0.60200  Biso   1.000  H
  C6       1.0000 0.05506  0.09613  0.67555  Biso   1.000  C
  C7       1.0000 0.03178  0.10078  0.71134  Biso   1.000  C
  C8       1.0000 0.06565  0.10069  0.74718  Biso   1.000  C
  C9       1.0000 0.08374  0.04801  0.76310  Biso   1.000  C
  H5       1.0000 0.07730  0.01160  0.75030  Biso   1.000  H
  C10      1.0000 0.11120  0.04843  0.79768  Biso   1.000  C
  H6       1.0000 0.12290  0.01150  0.80830  Biso   1.000  H
  N2       1.0000 0.12238  0.09776  0.81718  Biso   1.000  N
  C11      1.0000 0.10661  0.14722  0.80118  Biso   1.000  C
  H7       1.0000 0.11590  0.18320  0.81380  Biso   1.000  H
  C12      1.0000 0.07743  0.15108  0.76721  Biso   1.000  C
  H8       1.0000 0.06550  0.18860  0.75770  Biso   1.000  H
  N3       1.0000 0.73632  0.59176  0.14109  Biso   1.000  N
  C13      1.0000 0.71900  0.62319  0.17091  Biso   1.000  C
  H9       1.0000 0.74830  0.64410  0.18480  Biso   1.000  H
  C14      1.0000 0.66087  0.62711  0.18276  Biso   1.000  C
  H10      1.0000 0.65060  0.65140  0.20360  Biso   1.000  H
  C15      1.0000 0.61773  0.59512  0.16383  Biso   1.000  C
  C16      1.0000 0.63575  0.56162  0.13315  Biso   1.000  C
  H11      1.0000 0.60770  0.53910  0.11920  Biso   1.000  H
  C17      1.0000 0.69464  0.56127  0.12305  Biso   1.000  C
  H12      1.0000 0.70620  0.53790  0.10200  Biso   1.000  H
  C18      1.0000 0.55506  0.59613  0.17555  Biso   1.000  C
  C19      1.0000 0.53178  0.60078  0.21134  Biso   1.000  C
  C20      1.0000 0.56565  0.60069  0.24718  Biso   1.000  C
  C21      1.0000 0.58374  0.54801  0.26310  Biso   1.000  C
  H13      1.0000 0.57730  0.51160  0.25030  Biso   1.000  H
  C22      1.0000 0.61120  0.54843  0.29768  Biso   1.000  C
  H14      1.0000 0.62290  0.51150  0.30830  Biso   1.000  H
  N4       1.0000 0.62238  0.59776  0.31718  Biso   1.000  N
  C23      1.0000 0.60661  0.64722  0.30118  Biso   1.000  C
  H15      1.0000 0.61590  0.68320  0.31380  Biso   1.000  H
  C24      1.0000 0.57743  0.65108  0.26721  Biso   1.000  C
  H16      1.0000 0.56550  0.68860  0.25770  Biso   1.000  H
  N5       1.0000 0.26368  0.90824  0.14109  Biso   1.000  N
  C25      1.0000 0.28100  0.87681  0.17091  Biso   1.000  C
  H17      1.0000 0.25170  0.85590  0.18480  Biso   1.000  H
  C26      1.0000 0.33913  0.87289  0.18276  Biso   1.000  C
  H18      1.0000 0.34940  0.84860  0.20360  Biso   1.000  H
  C27      1.0000 0.38227  0.90488  0.16383  Biso   1.000  C
  C28      1.0000 0.36425  0.93838  0.13315  Biso   1.000  C
  H19      1.0000 0.39230  0.96090  0.11920  Biso   1.000  H
  C29      1.0000 0.30536  0.93873  0.12305  Biso   1.000  C
  H20      1.0000 0.29380  0.96210  0.10200  Biso   1.000  H
  C30      1.0000 0.44494  0.90387  0.17555  Biso   1.000  C
  C31      1.0000 0.46822  0.89922  0.21134  Biso   1.000  C
  C32      1.0000 0.43435  0.89931  0.24718  Biso   1.000  C
  C33      1.0000 0.41626  0.95199  0.26310  Biso   1.000  C
  H21      1.0000 0.42270  0.98840  0.25030  Biso   1.000  H
  C34      1.0000 0.38880  0.95157  0.29768  Biso   1.000  C
  H22      1.0000 0.37710  0.98850  0.30830  Biso   1.000  H
  N6       1.0000 0.37762  0.90224  0.31718  Biso   1.000  N
  C35      1.0000 0.39339  0.85278  0.30118  Biso   1.000  C
  H23      1.0000 0.38410  0.81680  0.31380  Biso   1.000  H
  C36      1.0000 0.42257  0.84892  0.26721  Biso   1.000  C
  H24      1.0000 0.43450  0.81140  0.25770  Biso   1.000  H
  N7       1.0000 0.76368  0.40824  0.64109  Biso   1.000  N
  C37      1.0000 0.78100  0.37681  0.67091  Biso   1.000  C
  H25      1.0000 0.75170  0.35590  0.68480  Biso   1.000  H
  C38      1.0000 0.83913  0.37289  0.68276  Biso   1.000  C
  H26      1.0000 0.84940  0.34860  0.70360  Biso   1.000  H
  C39      1.0000 0.88227  0.40488  0.66383  Biso   1.000  C
  C40      1.0000 0.86425  0.43838  0.63315  Biso   1.000  C
  H27      1.0000 0.89230  0.46090  0.61920  Biso   1.000  H
  C41      1.0000 0.80536  0.43873  0.62305  Biso   1.000  C
  H28      1.0000 0.79380  0.46210  0.60200  Biso   1.000  H
  C42      1.0000 0.94494  0.40387  0.67555  Biso   1.000  C
  C43      1.0000 0.96822  0.39922  0.71134  Biso   1.000  C
  C44      1.0000 0.93435  0.39931  0.74718  Biso   1.000  C
  C45      1.0000 0.91626  0.45199  0.76310  Biso   1.000  C
  H29      1.0000 0.92270  0.48840  0.75030  Biso   1.000  H
  C46      1.0000 0.88880  0.45157  0.79768  Biso   1.000  C
  H30      1.0000 0.87710  0.48850  0.80830  Biso   1.000  H
  N8       1.0000 0.87762  0.40224  0.81718  Biso   1.000  N
  C47      1.0000 0.89339  0.35278  0.80118  Biso   1.000  C
  H31      1.0000 0.88410  0.31680  0.81380  Biso   1.000  H
  C48      1.0000 0.92257  0.34892  0.76721  Biso   1.000  C
  H32      1.0000 0.93450  0.31140  0.75770  Biso   1.000  H
  N9       1.0000 0.15824  0.98632  0.89109  Biso   1.000  N
  C49      1.0000 0.12681  0.96900  0.92091  Biso   1.000  C
  H33      1.0000 0.10590  0.99830  0.93480  Biso   1.000  H
  C50      1.0000 0.12289  0.91087  0.93276  Biso   1.000  C
  H34      1.0000 0.09860  0.90060  0.95360  Biso   1.000  H
  C51      1.0000 0.15488  0.86773  0.91383  Biso   1.000  C
  C52      1.0000 0.18838  0.88575  0.88315  Biso   1.000  C
  H35      1.0000 0.21090  0.85770  0.86920  Biso   1.000  H
  C53      1.0000 0.18873  0.94464  0.87305  Biso   1.000  C
  H36      1.0000 0.21210  0.95620  0.85200  Biso   1.000  H
  C54      1.0000 0.15387  0.80506  0.92555  Biso   1.000  C
  C55      1.0000 0.14922  0.78178  0.96134  Biso   1.000  C
  C56      1.0000 0.14931  0.81565  0.99718  Biso   1.000  C
  C57      1.0000 0.20199  0.83374  0.01310  Biso   1.000  C
  H37      1.0000 0.23840  0.82730  0.00030  Biso   1.000  H
  C58      1.0000 0.20157  0.86120  0.04768  Biso   1.000  C
  H38      1.0000 0.23850  0.87290  0.05830  Biso   1.000  H
  N10      1.0000 0.15224  0.87238  0.06718  Biso   1.000  N
  C59      1.0000 0.10278  0.85661  0.05118  Biso   1.000  C
  H39      1.0000 0.06680  0.86590  0.06380  Biso   1.000  H
  C60      1.0000 0.09892  0.82743  0.01721  Biso   1.000  C
  H40      1.0000 0.06140  0.81550  0.00770  Biso   1.000  H
  N11      1.0000 0.65824  0.48632  0.39109  Biso   1.000  N
  C61      1.0000 0.62681  0.46900  0.42091  Biso   1.000  C
  H41      1.0000 0.60590  0.49830  0.43480  Biso   1.000  H
  C62      1.0000 0.62289  0.41087  0.43276  Biso   1.000  C
  H42      1.0000 0.59860  0.40060  0.45360  Biso   1.000  H
  C63      1.0000 0.65488  0.36773  0.41383  Biso   1.000  C
  C64      1.0000 0.68838  0.38575  0.38315  Biso   1.000  C
  H43      1.0000 0.71090  0.35770  0.36920  Biso   1.000  H
  C65      1.0000 0.68873  0.44464  0.37305  Biso   1.000  C
  H44      1.0000 0.71210  0.45620  0.35200  Biso   1.000  H
  C66      1.0000 0.65387  0.30506  0.42555  Biso   1.000  C
  C67      1.0000 0.64922  0.28178  0.46134  Biso   1.000  C
  C68      1.0000 0.64931  0.31565  0.49718  Biso   1.000  C
  C69      1.0000 0.70199  0.33374  0.51310  Biso   1.000  C
  H45      1.0000 0.73840  0.32730  0.50030  Biso   1.000  H
  C70      1.0000 0.70157  0.36120  0.54768  Biso   1.000  C
  H46      1.0000 0.73850  0.37290  0.55830  Biso   1.000  H
  N12      1.0000 0.65224  0.37238  0.56718  Biso   1.000  N
  C71      1.0000 0.60278  0.35661  0.55118  Biso   1.000  C
  H47      1.0000 0.56680  0.36590  0.56380  Biso   1.000  H
  C72      1.0000 0.59892  0.32743  0.51721  Biso   1.000  C
  H48      1.0000 0.56140  0.31550  0.50770  Biso   1.000  H
  N13      1.0000 0.34176  0.01368  0.39109  Biso   1.000  N
  C73      1.0000 0.37319  0.03100  0.42091  Biso   1.000  C
  H49      1.0000 0.39410  0.00170  0.43480  Biso   1.000  H
  C74      1.0000 0.37711  0.08913  0.43276  Biso   1.000  C
  H50      1.0000 0.40140  0.09940  0.45360  Biso   1.000  H
  C75      1.0000 0.34512  0.13227  0.41383  Biso   1.000  C
  C76      1.0000 0.31162  0.11425  0.38315  Biso   1.000  C
  H51      1.0000 0.28910  0.14230  0.36920  Biso   1.000  H
  C77      1.0000 0.31127  0.05536  0.37305  Biso   1.000  C
  H52      1.0000 0.28790  0.04380  0.35200  Biso   1.000  H
  C78      1.0000 0.34613  0.19494  0.42555  Biso   1.000  C
  C79      1.0000 0.35078  0.21822  0.46134  Biso   1.000  C
  C80      1.0000 0.35069  0.18435  0.49718  Biso   1.000  C
  C81      1.0000 0.29801  0.16626  0.51310  Biso   1.000  C
  H53      1.0000 0.26160  0.17270  0.50030  Biso   1.000  H
  C82      1.0000 0.29843  0.13880  0.54768  Biso   1.000  C
  H54      1.0000 0.26150  0.12710  0.55830  Biso   1.000  H
  N14      1.0000 0.34776  0.12762  0.56718  Biso   1.000  N
  C83      1.0000 0.39722  0.14339  0.55118  Biso   1.000  C
  H55      1.0000 0.43320  0.13410  0.56380  Biso   1.000  H
  C84      1.0000 0.40108  0.17257  0.51721  Biso   1.000  C
  H56      1.0000 0.43860  0.18450  0.50770  Biso   1.000  H
  N15      1.0000 0.84176  0.51368  0.89109  Biso   1.000  N
  C85      1.0000 0.87319  0.53100  0.92091  Biso   1.000  C
  H57      1.0000 0.89410  0.50170  0.93480  Biso   1.000  H
  C86      1.0000 0.87711  0.58913  0.93276  Biso   1.000  C
  H58      1.0000 0.90140  0.59940  0.95360  Biso   1.000  H
  C87      1.0000 0.84512  0.63227  0.91383  Biso   1.000  C
  C88      1.0000 0.81162  0.61425  0.88315  Biso   1.000  C
  H59      1.0000 0.78910  0.64230  0.86920  Biso   1.000  H
  C89      1.0000 0.81127  0.55536  0.87305  Biso   1.000  C
  H60      1.0000 0.78790  0.54380  0.85200  Biso   1.000  H
  C90      1.0000 0.84613  0.69494  0.92555  Biso   1.000  C
  C91      1.0000 0.85078  0.71822  0.96134  Biso   1.000  C
  C92      1.0000 0.85069  0.68435  0.99718  Biso   1.000  C
  C93      1.0000 0.79801  0.66626  0.01310  Biso   1.000  C
  H61      1.0000 0.76160  0.67270  0.00030  Biso   1.000  H
  C94      1.0000 0.79843  0.63880  0.04768  Biso   1.000  C
  H62      1.0000 0.76150  0.62710  0.05830  Biso   1.000  H
  N16      1.0000 0.84776  0.62762  0.06718  Biso   1.000  N
  C95      1.0000 0.89722  0.64339  0.05118  Biso   1.000  C
  H63      1.0000 0.93320  0.63410  0.06380  Biso   1.000  H
  C96      1.0000 0.90108  0.67257  0.01721  Biso   1.000  C
  H64      1.0000 0.93860  0.68450  0.00770  Biso   1.000  H
  N17      1.0000 0.26368  0.09176  0.85891  Biso   1.000  N
  C97      1.0000 0.28100  0.12319  0.82909  Biso   1.000  C
  H65      1.0000 0.25170  0.14410  0.81520  Biso   1.000  H
  C98      1.0000 0.33913  0.12711  0.81724  Biso   1.000  C
  H66      1.0000 0.34940  0.15140  0.79640  Biso   1.000  H
  C99      1.0000 0.38227  0.09512  0.83617  Biso   1.000  C
  C100     1.0000 0.36425  0.06162  0.86685  Biso   1.000  C
  H67      1.0000 0.39230  0.03910  0.88080  Biso   1.000  H
  C101     1.0000 0.30536  0.06127  0.87695  Biso   1.000  C
  H68      1.0000 0.29380  0.03790  0.89800  Biso   1.000  H
  C102     1.0000 0.44494  0.09613  0.82445  Biso   1.000  C
  C103     1.0000 0.46822  0.10078  0.78866  Biso   1.000  C
  C104     1.0000 0.43435  0.10069  0.75282  Biso   1.000  C
  C105     1.0000 0.41626  0.04801  0.73690  Biso   1.000  C
  H69      1.0000 0.42270  0.01160  0.74970  Biso   1.000  H
  C106     1.0000 0.38880  0.04843  0.70232  Biso   1.000  C
  H70      1.0000 0.37710  0.01150  0.69170  Biso   1.000  H
  N18      1.0000 0.37762  0.09776  0.68282  Biso   1.000  N
  C107     1.0000 0.39339  0.14722  0.69882  Biso   1.000  C
  H71      1.0000 0.38410  0.18320  0.68620  Biso   1.000  H
  C108     1.0000 0.42257  0.15108  0.73279  Biso   1.000  C
  H72      1.0000 0.43450  0.18860  0.74230  Biso   1.000  H
  N19      1.0000 0.76368  0.59176  0.35891  Biso   1.000  N
  C109     1.0000 0.78100  0.62319  0.32909  Biso   1.000  C
  H73      1.0000 0.75170  0.64410  0.31520  Biso   1.000  H
  C110     1.0000 0.83913  0.62711  0.31724  Biso   1.000  C
  H74      1.0000 0.84940  0.65140  0.29640  Biso   1.000  H
  C111     1.0000 0.88227  0.59512  0.33617  Biso   1.000  C
  C112     1.0000 0.86425  0.56162  0.36685  Biso   1.000  C
  H75      1.0000 0.89230  0.53910  0.38080  Biso   1.000  H
  C113     1.0000 0.80536  0.56127  0.37695  Biso   1.000  C
  H76      1.0000 0.79380  0.53790  0.39800  Biso   1.000  H
  C114     1.0000 0.94494  0.59613  0.32445  Biso   1.000  C
  C115     1.0000 0.96822  0.60078  0.28866  Biso   1.000  C
  C116     1.0000 0.93435  0.60069  0.25282  Biso   1.000  C
  C117     1.0000 0.91626  0.54801  0.23690  Biso   1.000  C
  H77      1.0000 0.92270  0.51160  0.24970  Biso   1.000  H
  C118     1.0000 0.88880  0.54843  0.20232  Biso   1.000  C
  H78      1.0000 0.87710  0.51150  0.19170  Biso   1.000  H
  N20      1.0000 0.87762  0.59776  0.18282  Biso   1.000  N
  C119     1.0000 0.89339  0.64722  0.19882  Biso   1.000  C
  H79      1.0000 0.88410  0.68320  0.18620  Biso   1.000  H
  C120     1.0000 0.92257  0.65108  0.23279  Biso   1.000  C
  H80      1.0000 0.93450  0.68860  0.24230  Biso   1.000  H
  N21      1.0000 0.23632  0.90824  0.35891  Biso   1.000  N
  C121     1.0000 0.21900  0.87681  0.32909  Biso   1.000  C
  H81      1.0000 0.24830  0.85590  0.31520  Biso   1.000  H
  C122     1.0000 0.16087  0.87289  0.31724  Biso   1.000  C
  H82      1.0000 0.15060  0.84860  0.29640  Biso   1.000  H
  C123     1.0000 0.11773  0.90488  0.33617  Biso   1.000  C
  C124     1.0000 0.13575  0.93838  0.36685  Biso   1.000  C
  H83      1.0000 0.10770  0.96090  0.38080  Biso   1.000  H
  C125     1.0000 0.19464  0.93873  0.37695  Biso   1.000  C
  H84      1.0000 0.20620  0.96210  0.39800  Biso   1.000  H
  C126     1.0000 0.05506  0.90387  0.32445  Biso   1.000  C
  C127     1.0000 0.03178  0.89922  0.28866  Biso   1.000  C
  C128     1.0000 0.06565  0.89931  0.25282  Biso   1.000  C
  C129     1.0000 0.08374  0.95199  0.23690  Biso   1.000  C
  H85      1.0000 0.07730  0.98840  0.24970  Biso   1.000  H
  C130     1.0000 0.11120  0.95157  0.20232  Biso   1.000  C
  H86      1.0000 0.12290  0.98850  0.19170  Biso   1.000  H
  N22      1.0000 0.12238  0.90224  0.18282  Biso   1.000  N
  C131     1.0000 0.10661  0.85278  0.19882  Biso   1.000  C
  H87      1.0000 0.11590  0.81680  0.18620  Biso   1.000  H
  C132     1.0000 0.07743  0.84892  0.23279  Biso   1.000  C
  H88      1.0000 0.06550  0.81140  0.24230  Biso   1.000  H
  N23      1.0000 0.73632  0.40824  0.85891  Biso   1.000  N
  C133     1.0000 0.71900  0.37681  0.82909  Biso   1.000  C
  H89      1.0000 0.74830  0.35590  0.81520  Biso   1.000  H
  C134     1.0000 0.66087  0.37289  0.81724  Biso   1.000  C
  H90      1.0000 0.65060  0.34860  0.79640  Biso   1.000  H
  C135     1.0000 0.61773  0.40488  0.83617  Biso   1.000  C
  C136     1.0000 0.63575  0.43838  0.86685  Biso   1.000  C
  H91      1.0000 0.60770  0.46090  0.88080  Biso   1.000  H
  C137     1.0000 0.69464  0.43873  0.87695  Biso   1.000  C
  H92      1.0000 0.70620  0.46210  0.89800  Biso   1.000  H
  C138     1.0000 0.55506  0.40387  0.82445  Biso   1.000  C
  C139     1.0000 0.53178  0.39922  0.78866  Biso   1.000  C
  C140     1.0000 0.56565  0.39931  0.75282  Biso   1.000  C
  C141     1.0000 0.58374  0.45199  0.73690  Biso   1.000  C
  H93      1.0000 0.57730  0.48840  0.74970  Biso   1.000  H
  C142     1.0000 0.61120  0.45157  0.70232  Biso   1.000  C
  H94      1.0000 0.62290  0.48850  0.69170  Biso   1.000  H
  N24      1.0000 0.62238  0.40224  0.68282  Biso   1.000  N
  C143     1.0000 0.60661  0.35278  0.69882  Biso   1.000  C
  H95      1.0000 0.61590  0.31680  0.68620  Biso   1.000  H
  C144     1.0000 0.57743  0.34892  0.73279  Biso   1.000  C
  H96      1.0000 0.56550  0.31140  0.74230  Biso   1.000  H
  N25      1.0000 0.34176  0.98632  0.60891  Biso   1.000  N
  C145     1.0000 0.37319  0.96900  0.57909  Biso   1.000  C
  H97      1.0000 0.39410  0.99830  0.56520  Biso   1.000  H
  C146     1.0000 0.37711  0.91087  0.56724  Biso   1.000  C
  H98      1.0000 0.40140  0.90060  0.54640  Biso   1.000  H
  C147     1.0000 0.34512  0.86773  0.58617  Biso   1.000  C
  C148     1.0000 0.31162  0.88575  0.61685  Biso   1.000  C
  H99      1.0000 0.28910  0.85770  0.63080  Biso   1.000  H
  C149     1.0000 0.31127  0.94464  0.62695  Biso   1.000  C
  H100     1.0000 0.28790  0.95620  0.64800  Biso   1.000  H
  C150     1.0000 0.34613  0.80506  0.57445  Biso   1.000  C
  C151     1.0000 0.35078  0.78178  0.53866  Biso   1.000  C
  C152     1.0000 0.35069  0.81565  0.50282  Biso   1.000  C
  C153     1.0000 0.29801  0.83374  0.48690  Biso   1.000  C
  H101     1.0000 0.26160  0.82730  0.49970  Biso   1.000  H
  C154     1.0000 0.29843  0.86120  0.45232  Biso   1.000  C
  H102     1.0000 0.26150  0.87290  0.44170  Biso   1.000  H
  N26      1.0000 0.34776  0.87238  0.43282  Biso   1.000  N
  C155     1.0000 0.39722  0.85661  0.44882  Biso   1.000  C
  H103     1.0000 0.43320  0.86590  0.43620  Biso   1.000  H
  C156     1.0000 0.40108  0.82743  0.48279  Biso   1.000  C
  H104     1.0000 0.43860  0.81550  0.49230  Biso   1.000  H
  N27      1.0000 0.84176  0.48632  0.10891  Biso   1.000  N
  C157     1.0000 0.87319  0.46900  0.07909  Biso   1.000  C
  H105     1.0000 0.89410  0.49830  0.06520  Biso   1.000  H
  C158     1.0000 0.87711  0.41087  0.06724  Biso   1.000  C
  H106     1.0000 0.90140  0.40060  0.04640  Biso   1.000  H
  C159     1.0000 0.84512  0.36773  0.08617  Biso   1.000  C
  C160     1.0000 0.81162  0.38575  0.11685  Biso   1.000  C
  H107     1.0000 0.78910  0.35770  0.13080  Biso   1.000  H
  C161     1.0000 0.81127  0.44464  0.12695  Biso   1.000  C
  H108     1.0000 0.78790  0.45620  0.14800  Biso   1.000  H
  C162     1.0000 0.84613  0.30506  0.07445  Biso   1.000  C
  C163     1.0000 0.85078  0.28178  0.03866  Biso   1.000  C
  C164     1.0000 0.85069  0.31565  0.00282  Biso   1.000  C
  C165     1.0000 0.79801  0.33374  0.98690  Biso   1.000  C
  H109     1.0000 0.76160  0.32730  0.99970  Biso   1.000  H
  C166     1.0000 0.79843  0.36120  0.95232  Biso   1.000  C
  H110     1.0000 0.76150  0.37290  0.94170  Biso   1.000  H
  N28      1.0000 0.84776  0.37238  0.93282  Biso   1.000  N
  C167     1.0000 0.89722  0.35661  0.94882  Biso   1.000  C
  H111     1.0000 0.93320  0.36590  0.93620  Biso   1.000  H
  C168     1.0000 0.90108  0.32743  0.98279  Biso   1.000  C
  H112     1.0000 0.93860  0.31550  0.99230  Biso   1.000  H
  N29      1.0000 0.15824  0.01368  0.10891  Biso   1.000  N
  C169     1.0000 0.12681  0.03100  0.07909  Biso   1.000  C
  H113     1.0000 0.10590  0.00170  0.06520  Biso   1.000  H
  C170     1.0000 0.12289  0.08913  0.06724  Biso   1.000  C
  H114     1.0000 0.09860  0.09940  0.04640  Biso   1.000  H
  C171     1.0000 0.15488  0.13227  0.08617  Biso   1.000  C
  C172     1.0000 0.18838  0.11425  0.11685  Biso   1.000  C
  H115     1.0000 0.21090  0.14230  0.13080  Biso   1.000  H
  C173     1.0000 0.18873  0.05536  0.12695  Biso   1.000  C
  H116     1.0000 0.21210  0.04380  0.14800  Biso   1.000  H
  C174     1.0000 0.15387  0.19494  0.07445  Biso   1.000  C
  C175     1.0000 0.14922  0.21822  0.03866  Biso   1.000  C
  C176     1.0000 0.14931  0.18435  0.00282  Biso   1.000  C
  C177     1.0000 0.20199  0.16626  0.98690  Biso   1.000  C
  H117     1.0000 0.23840  0.17270  0.99970  Biso   1.000  H
  C178     1.0000 0.20157  0.13880  0.95232  Biso   1.000  C
  H118     1.0000 0.23850  0.12710  0.94170  Biso   1.000  H
  N30      1.0000 0.15224  0.12762  0.93282  Biso   1.000  N
  C179     1.0000 0.10278  0.14339  0.94882  Biso   1.000  C
  H119     1.0000 0.06680  0.13410  0.93620  Biso   1.000  H
  C180     1.0000 0.09892  0.17257  0.98279  Biso   1.000  C
  H120     1.0000 0.06140  0.18450  0.99230  Biso   1.000  H
  N31      1.0000 0.65824  0.51368  0.60891  Biso   1.000  N
  C181     1.0000 0.62681  0.53100  0.57909  Biso   1.000  C
  H121     1.0000 0.60590  0.50170  0.56520  Biso   1.000  H
  C182     1.0000 0.62289  0.58913  0.56724  Biso   1.000  C
  H122     1.0000 0.59860  0.59940  0.54640  Biso   1.000  H
  C183     1.0000 0.65488  0.63227  0.58617  Biso   1.000  C
  C184     1.0000 0.68838  0.61425  0.61685  Biso   1.000  C
  H123     1.0000 0.71090  0.64230  0.63080  Biso   1.000  H
  C185     1.0000 0.68873  0.55536  0.62695  Biso   1.000  C
  H124     1.0000 0.71210  0.54380  0.64800  Biso   1.000  H
  C186     1.0000 0.65387  0.69494  0.57445  Biso   1.000  C
  C187     1.0000 0.64922  0.71822  0.53866  Biso   1.000  C
  C188     1.0000 0.64931  0.68435  0.50282  Biso   1.000  C
  C189     1.0000 0.70199  0.66626  0.48690  Biso   1.000  C
  H125     1.0000 0.73840  0.67270  0.49970  Biso   1.000  H
  C190     1.0000 0.70157  0.63880  0.45232  Biso   1.000  C
  H126     1.0000 0.73850  0.62710  0.44170  Biso   1.000  H
  N32      1.0000 0.65224  0.62762  0.43282  Biso   1.000  N
  C191     1.0000 0.60278  0.64339  0.44882  Biso   1.000  C
  H127     1.0000 0.56680  0.63410  0.43620  Biso   1.000  H
  C192     1.0000 0.59892  0.67257  0.48279  Biso   1.000  C
  H128     1.0000 0.56140  0.68450  0.49230  Biso   1.000  H
  N33      1.0000 0.76368  0.90824  0.35891  Biso   1.000  N
  C193     1.0000 0.78100  0.87681  0.32909  Biso   1.000  C
  H129     1.0000 0.75170  0.85590  0.31520  Biso   1.000  H
  C194     1.0000 0.83913  0.87289  0.31724  Biso   1.000  C
  H130     1.0000 0.84940  0.84860  0.29640  Biso   1.000  H
  C195     1.0000 0.88227  0.90488  0.33617  Biso   1.000  C
  C196     1.0000 0.86425  0.93838  0.36685  Biso   1.000  C
  H131     1.0000 0.89230  0.96090  0.38080  Biso   1.000  H
  C197     1.0000 0.80536  0.93873  0.37695  Biso   1.000  C
  H132     1.0000 0.79380  0.96210  0.39800  Biso   1.000  H
  C198     1.0000 0.94494  0.90387  0.32445  Biso   1.000  C
  C199     1.0000 0.96822  0.89922  0.28866  Biso   1.000  C
  C200     1.0000 0.93435  0.89931  0.25282  Biso   1.000  C
  C201     1.0000 0.91626  0.95199  0.23690  Biso   1.000  C
  H133     1.0000 0.92270  0.98840  0.24970  Biso   1.000  H
  C202     1.0000 0.88880  0.95157  0.20232  Biso   1.000  C
  H134     1.0000 0.87710  0.98850  0.19170  Biso   1.000  H
  N34      1.0000 0.87762  0.90224  0.18282  Biso   1.000  N
  C203     1.0000 0.89339  0.85278  0.19882  Biso   1.000  C
  H135     1.0000 0.88410  0.81680  0.18620  Biso   1.000  H
  C204     1.0000 0.92257  0.84892  0.23279  Biso   1.000  C
  H136     1.0000 0.93450  0.81140  0.24230  Biso   1.000  H
  N35      1.0000 0.26368  0.40824  0.85891  Biso   1.000  N
  C205     1.0000 0.28100  0.37681  0.82909  Biso   1.000  C
  H137     1.0000 0.25170  0.35590  0.81520  Biso   1.000  H
  C206     1.0000 0.33913  0.37289  0.81724  Biso   1.000  C
  H138     1.0000 0.34940  0.34860  0.79640  Biso   1.000  H
  C207     1.0000 0.38227  0.40488  0.83617  Biso   1.000  C
  C208     1.0000 0.36425  0.43838  0.86685  Biso   1.000  C
  H139     1.0000 0.39230  0.46090  0.88080  Biso   1.000  H
  C209     1.0000 0.30536  0.43873  0.87695  Biso   1.000  C
  H140     1.0000 0.29380  0.46210  0.89800  Biso   1.000  H
  C210     1.0000 0.44494  0.40387  0.82445  Biso   1.000  C
  C211     1.0000 0.46822  0.39922  0.78866  Biso   1.000  C
  C212     1.0000 0.43435  0.39931  0.75282  Biso   1.000  C
  C213     1.0000 0.41626  0.45199  0.73690  Biso   1.000  C
  H141     1.0000 0.42270  0.48840  0.74970  Biso   1.000  H
  C214     1.0000 0.38880  0.45157  0.70232  Biso   1.000  C
  H142     1.0000 0.37710  0.48850  0.69170  Biso   1.000  H
  N36      1.0000 0.37762  0.40224  0.68282  Biso   1.000  N
  C215     1.0000 0.39339  0.35278  0.69882  Biso   1.000  C
  H143     1.0000 0.38410  0.31680  0.68620  Biso   1.000  H
  C216     1.0000 0.42257  0.34892  0.73279  Biso   1.000  C
  H144     1.0000 0.43450  0.31140  0.74230  Biso   1.000  H
  N37      1.0000 0.73632  0.09176  0.85891  Biso   1.000  N
  C217     1.0000 0.71900  0.12319  0.82909  Biso   1.000  C
  H145     1.0000 0.74830  0.14410  0.81520  Biso   1.000  H
  C218     1.0000 0.66087  0.12711  0.81724  Biso   1.000  C
  H146     1.0000 0.65060  0.15140  0.79640  Biso   1.000  H
  C219     1.0000 0.61773  0.09512  0.83617  Biso   1.000  C
  C220     1.0000 0.63575  0.06162  0.86685  Biso   1.000  C
  H147     1.0000 0.60770  0.03910  0.88080  Biso   1.000  H
  C221     1.0000 0.69464  0.06127  0.87695  Biso   1.000  C
  H148     1.0000 0.70620  0.03790  0.89800  Biso   1.000  H
  C222     1.0000 0.55506  0.09613  0.82445  Biso   1.000  C
  C223     1.0000 0.53178  0.10078  0.78866  Biso   1.000  C
  C224     1.0000 0.56565  0.10069  0.75282  Biso   1.000  C
  C225     1.0000 0.58374  0.04801  0.73690  Biso   1.000  C
  H149     1.0000 0.57730  0.01160  0.74970  Biso   1.000  H
  C226     1.0000 0.61120  0.04843  0.70232  Biso   1.000  C
  H150     1.0000 0.62290  0.01150  0.69170  Biso   1.000  H
  N38      1.0000 0.62238  0.09776  0.68282  Biso   1.000  N
  C227     1.0000 0.60661  0.14722  0.69882  Biso   1.000  C
  H151     1.0000 0.61590  0.18320  0.68620  Biso   1.000  H
  C228     1.0000 0.57743  0.15108  0.73279  Biso   1.000  C
  H152     1.0000 0.56550  0.18860  0.74230  Biso   1.000  H
  N39      1.0000 0.23632  0.59176  0.35891  Biso   1.000  N
  C229     1.0000 0.21900  0.62319  0.32909  Biso   1.000  C
  H153     1.0000 0.24830  0.64410  0.31520  Biso   1.000  H
  C230     1.0000 0.16087  0.62711  0.31724  Biso   1.000  C
  H154     1.0000 0.15060  0.65140  0.29640  Biso   1.000  H
  C231     1.0000 0.11773  0.59512  0.33617  Biso   1.000  C
  C232     1.0000 0.13575  0.56162  0.36685  Biso   1.000  C
  H155     1.0000 0.10770  0.53910  0.38080  Biso   1.000  H
  C233     1.0000 0.19464  0.56127  0.37695  Biso   1.000  C
  H156     1.0000 0.20620  0.53790  0.39800  Biso   1.000  H
  C234     1.0000 0.05506  0.59613  0.32445  Biso   1.000  C
  C235     1.0000 0.03178  0.60078  0.28866  Biso   1.000  C
  C236     1.0000 0.06565  0.60069  0.25282  Biso   1.000  C
  C237     1.0000 0.08374  0.54801  0.23690  Biso   1.000  C
  H157     1.0000 0.07730  0.51160  0.24970  Biso   1.000  H
  C238     1.0000 0.11120  0.54843  0.20232  Biso   1.000  C
  H158     1.0000 0.12290  0.51150  0.19170  Biso   1.000  H
  N40      1.0000 0.12238  0.59776  0.18282  Biso   1.000  N
  C239     1.0000 0.10661  0.64722  0.19882  Biso   1.000  C
  H159     1.0000 0.11590  0.68320  0.18620  Biso   1.000  H
  C240     1.0000 0.07743  0.65108  0.23279  Biso   1.000  C
  H160     1.0000 0.06550  0.68860  0.24230  Biso   1.000  H
  N41      1.0000 0.84176  0.01368  0.10891  Biso   1.000  N
  C241     1.0000 0.87319  0.03100  0.07909  Biso   1.000  C
  H161     1.0000 0.89410  0.00170  0.06520  Biso   1.000  H
  C242     1.0000 0.87711  0.08913  0.06724  Biso   1.000  C
  H162     1.0000 0.90140  0.09940  0.04640  Biso   1.000  H
  C243     1.0000 0.84512  0.13227  0.08617  Biso   1.000  C
  C244     1.0000 0.81162  0.11425  0.11685  Biso   1.000  C
  H163     1.0000 0.78910  0.14230  0.13080  Biso   1.000  H
  C245     1.0000 0.81127  0.05536  0.12695  Biso   1.000  C
  H164     1.0000 0.78790  0.04380  0.14800  Biso   1.000  H
  C246     1.0000 0.84613  0.19494  0.07445  Biso   1.000  C
  C247     1.0000 0.85078  0.21822  0.03866  Biso   1.000  C
  C248     1.0000 0.85069  0.18435  0.00282  Biso   1.000  C
  C249     1.0000 0.79801  0.16626  0.98690  Biso   1.000  C
  H165     1.0000 0.76160  0.17270  0.99970  Biso   1.000  H
  C250     1.0000 0.79843  0.13880  0.95232  Biso   1.000  C
  H166     1.0000 0.76150  0.12710  0.94170  Biso   1.000  H
  N42      1.0000 0.84776  0.12762  0.93282  Biso   1.000  N
  C251     1.0000 0.89722  0.14339  0.94882  Biso   1.000  C
  H167     1.0000 0.93320  0.13410  0.93620  Biso   1.000  H
  C252     1.0000 0.90108  0.17257  0.98279  Biso   1.000  C
  H168     1.0000 0.93860  0.18450  0.99230  Biso   1.000  H
  N43      1.0000 0.34176  0.51368  0.60891  Biso   1.000  N
  C253     1.0000 0.37319  0.53100  0.57909  Biso   1.000  C
  H169     1.0000 0.39410  0.50170  0.56520  Biso   1.000  H
  C254     1.0000 0.37711  0.58913  0.56724  Biso   1.000  C
  H170     1.0000 0.40140  0.59940  0.54640  Biso   1.000  H
  C255     1.0000 0.34512  0.63227  0.58617  Biso   1.000  C
  C256     1.0000 0.31162  0.61425  0.61685  Biso   1.000  C
  H171     1.0000 0.28910  0.64230  0.63080  Biso   1.000  H
  C257     1.0000 0.31127  0.55536  0.62695  Biso   1.000  C
  H172     1.0000 0.28790  0.54380  0.64800  Biso   1.000  H
  C258     1.0000 0.34613  0.69494  0.57445  Biso   1.000  C
  C259     1.0000 0.35078  0.71822  0.53866  Biso   1.000  C
  C260     1.0000 0.35069  0.68435  0.50282  Biso   1.000  C
  C261     1.0000 0.29801  0.66626  0.48690  Biso   1.000  C
  H173     1.0000 0.26160  0.67270  0.49970  Biso   1.000  H
  C262     1.0000 0.29843  0.63880  0.45232  Biso   1.000  C
  H174     1.0000 0.26150  0.62710  0.44170  Biso   1.000  H
  N44      1.0000 0.34776  0.62762  0.43282  Biso   1.000  N
  C263     1.0000 0.39722  0.64339  0.44882  Biso   1.000  C
  H175     1.0000 0.43320  0.63410  0.43620  Biso   1.000  H
  C264     1.0000 0.40108  0.67257  0.48279  Biso   1.000  C
  H176     1.0000 0.43860  0.68450  0.49230  Biso   1.000  H
  N45      1.0000 0.65824  0.98632  0.60891  Biso   1.000  N
  C265     1.0000 0.62681  0.96900  0.57909  Biso   1.000  C
  H177     1.0000 0.60590  0.99830  0.56520  Biso   1.000  H
  C266     1.0000 0.62289  0.91087  0.56724  Biso   1.000  C
  H178     1.0000 0.59860  0.90060  0.54640  Biso   1.000  H
  C267     1.0000 0.65488  0.86773  0.58617  Biso   1.000  C
  C268     1.0000 0.68838  0.88575  0.61685  Biso   1.000  C
  H179     1.0000 0.71090  0.85770  0.63080  Biso   1.000  H
  C269     1.0000 0.68873  0.94464  0.62695  Biso   1.000  C
  H180     1.0000 0.71210  0.95620  0.64800  Biso   1.000  H
  C270     1.0000 0.65387  0.80506  0.57445  Biso   1.000  C
  C271     1.0000 0.64922  0.78178  0.53866  Biso   1.000  C
  C272     1.0000 0.64931  0.81565  0.50282  Biso   1.000  C
  C273     1.0000 0.70199  0.83374  0.48690  Biso   1.000  C
  H181     1.0000 0.73840  0.82730  0.49970  Biso   1.000  H
  C274     1.0000 0.70157  0.86120  0.45232  Biso   1.000  C
  H182     1.0000 0.73850  0.87290  0.44170  Biso   1.000  H
  N46      1.0000 0.65224  0.87238  0.43282  Biso   1.000  N
  C275     1.0000 0.60278  0.85661  0.44882  Biso   1.000  C
  H183     1.0000 0.56680  0.86590  0.43620  Biso   1.000  H
  C276     1.0000 0.59892  0.82743  0.48279  Biso   1.000  C
  H184     1.0000 0.56140  0.81550  0.49230  Biso   1.000  H
  N47      1.0000 0.15824  0.48632  0.10891  Biso   1.000  N
  C277     1.0000 0.12681  0.46900  0.07909  Biso   1.000  C
  H185     1.0000 0.10590  0.49830  0.06520  Biso   1.000  H
  C278     1.0000 0.12289  0.41087  0.06724  Biso   1.000  C
  H186     1.0000 0.09860  0.40060  0.04640  Biso   1.000  H
  C279     1.0000 0.15488  0.36773  0.08617  Biso   1.000  C
  C280     1.0000 0.18838  0.38575  0.11685  Biso   1.000  C
  H187     1.0000 0.21090  0.35770  0.13080  Biso   1.000  H
  C281     1.0000 0.18873  0.44464  0.12695  Biso   1.000  C
  H188     1.0000 0.21210  0.45620  0.14800  Biso   1.000  H
  C282     1.0000 0.15387  0.30506  0.07445  Biso   1.000  C
  C283     1.0000 0.14922  0.28178  0.03866  Biso   1.000  C
  C284     1.0000 0.14931  0.31565  0.00282  Biso   1.000  C
  C285     1.0000 0.20199  0.33374  0.98690  Biso   1.000  C
  H189     1.0000 0.23840  0.32730  0.99970  Biso   1.000  H
  C286     1.0000 0.20157  0.36120  0.95232  Biso   1.000  C
  H190     1.0000 0.23850  0.37290  0.94170  Biso   1.000  H
  N48      1.0000 0.15224  0.37238  0.93282  Biso   1.000  N
  C287     1.0000 0.10278  0.35661  0.94882  Biso   1.000  C
  H191     1.0000 0.06680  0.36590  0.93620  Biso   1.000  H
  C288     1.0000 0.09892  0.32743  0.98279  Biso   1.000  C
  H192     1.0000 0.06140  0.31550  0.99230  Biso   1.000  H
  N49      1.0000 0.73632  0.90824  0.14109  Biso   1.000  N
  C289     1.0000 0.71900  0.87681  0.17091  Biso   1.000  C
  H193     1.0000 0.74830  0.85590  0.18480  Biso   1.000  H
  C290     1.0000 0.66087  0.87289  0.18276  Biso   1.000  C
  H194     1.0000 0.65060  0.84860  0.20360  Biso   1.000  H
  C291     1.0000 0.61773  0.90488  0.16383  Biso   1.000  C
  C292     1.0000 0.63575  0.93838  0.13315  Biso   1.000  C
  H195     1.0000 0.60770  0.96090  0.11920  Biso   1.000  H
  C293     1.0000 0.69464  0.93873  0.12305  Biso   1.000  C
  H196     1.0000 0.70620  0.96210  0.10200  Biso   1.000  H
  C294     1.0000 0.55506  0.90387  0.17555  Biso   1.000  C
  C295     1.0000 0.53178  0.89922  0.21134  Biso   1.000  C
  C296     1.0000 0.56565  0.89931  0.24718  Biso   1.000  C
  C297     1.0000 0.58374  0.95199  0.26310  Biso   1.000  C
  H197     1.0000 0.57730  0.98840  0.25030  Biso   1.000  H
  C298     1.0000 0.61120  0.95157  0.29768  Biso   1.000  C
  H198     1.0000 0.62290  0.98850  0.30830  Biso   1.000  H
  N50      1.0000 0.62238  0.90224  0.31718  Biso   1.000  N
  C299     1.0000 0.60661  0.85278  0.30118  Biso   1.000  C
  H199     1.0000 0.61590  0.81680  0.31380  Biso   1.000  H
  C300     1.0000 0.57743  0.84892  0.26721  Biso   1.000  C
  H200     1.0000 0.56550  0.81140  0.25770  Biso   1.000  H
  N51      1.0000 0.23632  0.40824  0.64109  Biso   1.000  N
  C301     1.0000 0.21900  0.37681  0.67091  Biso   1.000  C
  H201     1.0000 0.24830  0.35590  0.68480  Biso   1.000  H
  C302     1.0000 0.16087  0.37289  0.68276  Biso   1.000  C
  H202     1.0000 0.15060  0.34860  0.70360  Biso   1.000  H
  C303     1.0000 0.11773  0.40488  0.66383  Biso   1.000  C
  C304     1.0000 0.13575  0.43838  0.63315  Biso   1.000  C
  H203     1.0000 0.10770  0.46090  0.61920  Biso   1.000  H
  C305     1.0000 0.19464  0.43873  0.62305  Biso   1.000  C
  H204     1.0000 0.20620  0.46210  0.60200  Biso   1.000  H
  C306     1.0000 0.05506  0.40387  0.67555  Biso   1.000  C
  C307     1.0000 0.03178  0.39922  0.71134  Biso   1.000  C
  C308     1.0000 0.06565  0.39931  0.74718  Biso   1.000  C
  C309     1.0000 0.08374  0.45199  0.76310  Biso   1.000  C
  H205     1.0000 0.07730  0.48840  0.75030  Biso   1.000  H
  C310     1.0000 0.11120  0.45157  0.79768  Biso   1.000  C
  H206     1.0000 0.12290  0.48850  0.80830  Biso   1.000  H
  N52      1.0000 0.12238  0.40224  0.81718  Biso   1.000  N
  C311     1.0000 0.10661  0.35278  0.80118  Biso   1.000  C
  H207     1.0000 0.11590  0.31680  0.81380  Biso   1.000  H
  C312     1.0000 0.07743  0.34892  0.76721  Biso   1.000  C
  H208     1.0000 0.06550  0.31140  0.75770  Biso   1.000  H
  N53      1.0000 0.76368  0.09176  0.64109  Biso   1.000  N
  C313     1.0000 0.78100  0.12319  0.67091  Biso   1.000  C
  H209     1.0000 0.75170  0.14410  0.68480  Biso   1.000  H
  C314     1.0000 0.83913  0.12711  0.68276  Biso   1.000  C
  H210     1.0000 0.84940  0.15140  0.70360  Biso   1.000  H
  C315     1.0000 0.88227  0.09512  0.66383  Biso   1.000  C
  C316     1.0000 0.86425  0.06162  0.63315  Biso   1.000  C
  H211     1.0000 0.89230  0.03910  0.61920  Biso   1.000  H
  C317     1.0000 0.80536  0.06127  0.62305  Biso   1.000  C
  H212     1.0000 0.79380  0.03790  0.60200  Biso   1.000  H
  C318     1.0000 0.94494  0.09613  0.67555  Biso   1.000  C
  C319     1.0000 0.96822  0.10078  0.71134  Biso   1.000  C
  C320     1.0000 0.93435  0.10069  0.74718  Biso   1.000  C
  C321     1.0000 0.91626  0.04801  0.76310  Biso   1.000  C
  H213     1.0000 0.92270  0.01160  0.75030  Biso   1.000  H
  C322     1.0000 0.88880  0.04843  0.79768  Biso   1.000  C
  H214     1.0000 0.87710  0.01150  0.80830  Biso   1.000  H
  N54      1.0000 0.87762  0.09776  0.81718  Biso   1.000  N
  C323     1.0000 0.89339  0.14722  0.80118  Biso   1.000  C
  H215     1.0000 0.88410  0.18320  0.81380  Biso   1.000  H
  C324     1.0000 0.92257  0.15108  0.76721  Biso   1.000  C
  H216     1.0000 0.93450  0.18860  0.75770  Biso   1.000  H
  N55      1.0000 0.26368  0.59176  0.14109  Biso   1.000  N
  C325     1.0000 0.28100  0.62319  0.17091  Biso   1.000  C
  H217     1.0000 0.25170  0.64410  0.18480  Biso   1.000  H
  C326     1.0000 0.33913  0.62711  0.18276  Biso   1.000  C
  H218     1.0000 0.34940  0.65140  0.20360  Biso   1.000  H
  C327     1.0000 0.38227  0.59512  0.16383  Biso   1.000  C
  C328     1.0000 0.36425  0.56162  0.13315  Biso   1.000  C
  H219     1.0000 0.39230  0.53910  0.11920  Biso   1.000  H
  C329     1.0000 0.30536  0.56127  0.12305  Biso   1.000  C
  H220     1.0000 0.29380  0.53790  0.10200  Biso   1.000  H
  C330     1.0000 0.44494  0.59613  0.17555  Biso   1.000  C
  C331     1.0000 0.46822  0.60078  0.21134  Biso   1.000  C
  C332     1.0000 0.43435  0.60069  0.24718  Biso   1.000  C
  C333     1.0000 0.41626  0.54801  0.26310  Biso   1.000  C
  H221     1.0000 0.42270  0.51160  0.25030  Biso   1.000  H
  C334     1.0000 0.38880  0.54843  0.29768  Biso   1.000  C
  H222     1.0000 0.37710  0.51150  0.30830  Biso   1.000  H
  N56      1.0000 0.37762  0.59776  0.31718  Biso   1.000  N
  C335     1.0000 0.39339  0.64722  0.30118  Biso   1.000  C
  H223     1.0000 0.38410  0.68320  0.31380  Biso   1.000  H
  C336     1.0000 0.42257  0.65108  0.26721  Biso   1.000  C
  H224     1.0000 0.43450  0.68860  0.25770  Biso   1.000  H
  N57      1.0000 0.65824  0.01368  0.39109  Biso   1.000  N
  C337     1.0000 0.62681  0.03100  0.42091  Biso   1.000  C
  H225     1.0000 0.60590  0.00170  0.43480  Biso   1.000  H
  C338     1.0000 0.62289  0.08913  0.43276  Biso   1.000  C
  H226     1.0000 0.59860  0.09940  0.45360  Biso   1.000  H
  C339     1.0000 0.65488  0.13227  0.41383  Biso   1.000  C
  C340     1.0000 0.68838  0.11425  0.38315  Biso   1.000  C
  H227     1.0000 0.71090  0.14230  0.36920  Biso   1.000  H
  C341     1.0000 0.68873  0.05536  0.37305  Biso   1.000  C
  H228     1.0000 0.71210  0.04380  0.35200  Biso   1.000  H
  C342     1.0000 0.65387  0.19494  0.42555  Biso   1.000  C
  C343     1.0000 0.64922  0.21822  0.46134  Biso   1.000  C
  C344     1.0000 0.64931  0.18435  0.49718  Biso   1.000  C
  C345     1.0000 0.70199  0.16626  0.51310  Biso   1.000  C
  H229     1.0000 0.73840  0.17270  0.50030  Biso   1.000  H
  C346     1.0000 0.70157  0.13880  0.54768  Biso   1.000  C
  H230     1.0000 0.73850  0.12710  0.55830  Biso   1.000  H
  N58      1.0000 0.65224  0.12762  0.56718  Biso   1.000  N
  C347     1.0000 0.60278  0.14339  0.55118  Biso   1.000  C
  H231     1.0000 0.56680  0.13410  0.56380  Biso   1.000  H
  C348     1.0000 0.59892  0.17257  0.51721  Biso   1.000  C
  H232     1.0000 0.56140  0.18450  0.50770  Biso   1.000  H
  N59      1.0000 0.15824  0.51368  0.89109  Biso   1.000  N
  C349     1.0000 0.12681  0.53100  0.92091  Biso   1.000  C
  H233     1.0000 0.10590  0.50170  0.93480  Biso   1.000  H
  C350     1.0000 0.12289  0.58913  0.93276  Biso   1.000  C
  H234     1.0000 0.09860  0.59940  0.95360  Biso   1.000  H
  C351     1.0000 0.15488  0.63227  0.91383  Biso   1.000  C
  C352     1.0000 0.18838  0.61425  0.88315  Biso   1.000  C
  H235     1.0000 0.21090  0.64230  0.86920  Biso   1.000  H
  C353     1.0000 0.18873  0.55536  0.87305  Biso   1.000  C
  H236     1.0000 0.21210  0.54380  0.85200  Biso   1.000  H
  C354     1.0000 0.15387  0.69494  0.92555  Biso   1.000  C
  C355     1.0000 0.14922  0.71822  0.96134  Biso   1.000  C
  C356     1.0000 0.14931  0.68435  0.99718  Biso   1.000  C
  C357     1.0000 0.20199  0.66626  0.01310  Biso   1.000  C
  H237     1.0000 0.23840  0.67270  0.00030  Biso   1.000  H
  C358     1.0000 0.20157  0.63880  0.04768  Biso   1.000  C
  H238     1.0000 0.23850  0.62710  0.05830  Biso   1.000  H
  N60      1.0000 0.15224  0.62762  0.06718  Biso   1.000  N
  C359     1.0000 0.10278  0.64339  0.05118  Biso   1.000  C
  H239     1.0000 0.06680  0.63410  0.06380  Biso   1.000  H
  C360     1.0000 0.09892  0.67257  0.01721  Biso   1.000  C
  H240     1.0000 0.06140  0.68450  0.00770  Biso   1.000  H
  N61      1.0000 0.84176  0.98632  0.89109  Biso   1.000  N
  C361     1.0000 0.87319  0.96900  0.92091  Biso   1.000  C
  H241     1.0000 0.89410  0.99830  0.93480  Biso   1.000  H
  C362     1.0000 0.87711  0.91087  0.93276  Biso   1.000  C
  H242     1.0000 0.90140  0.90060  0.95360  Biso   1.000  H
  C363     1.0000 0.84512  0.86773  0.91383  Biso   1.000  C
  C364     1.0000 0.81162  0.88575  0.88315  Biso   1.000  C
  H243     1.0000 0.78910  0.85770  0.86920  Biso   1.000  H
  C365     1.0000 0.81127  0.94464  0.87305  Biso   1.000  C
  H244     1.0000 0.78790  0.95620  0.85200  Biso   1.000  H
  C366     1.0000 0.84613  0.80506  0.92555  Biso   1.000  C
  C367     1.0000 0.85078  0.78178  0.96134  Biso   1.000  C
  C368     1.0000 0.85069  0.81565  0.99718  Biso   1.000  C
  C369     1.0000 0.79801  0.83374  0.01310  Biso   1.000  C
  H245     1.0000 0.76160  0.82730  0.00030  Biso   1.000  H
  C370     1.0000 0.79843  0.86120  0.04768  Biso   1.000  C
  H246     1.0000 0.76150  0.87290  0.05830  Biso   1.000  H
  N62      1.0000 0.84776  0.87238  0.06718  Biso   1.000  N
  C371     1.0000 0.89722  0.85661  0.05118  Biso   1.000  C
  H247     1.0000 0.93320  0.86590  0.06380  Biso   1.000  H
  C372     1.0000 0.90108  0.82743  0.01721  Biso   1.000  C
  H248     1.0000 0.93860  0.81550  0.00770  Biso   1.000  H
  N63      1.0000 0.34176  0.48632  0.39109  Biso   1.000  N
  C373     1.0000 0.37319  0.46900  0.42091  Biso   1.000  C
  H249     1.0000 0.39410  0.49830  0.43480  Biso   1.000  H
  C374     1.0000 0.37711  0.41087  0.43276  Biso   1.000  C
  H250     1.0000 0.40140  0.40060  0.45360  Biso   1.000  H
  C375     1.0000 0.34512  0.36773  0.41383  Biso   1.000  C
  C376     1.0000 0.31162  0.38575  0.38315  Biso   1.000  C
  H251     1.0000 0.28910  0.35770  0.36920  Biso   1.000  H
  C377     1.0000 0.31127  0.44464  0.37305  Biso   1.000  C
  H252     1.0000 0.28790  0.45620  0.35200  Biso   1.000  H
  C378     1.0000 0.34613  0.30506  0.42555  Biso   1.000  C
  C379     1.0000 0.35078  0.28178  0.46134  Biso   1.000  C
  C380     1.0000 0.35069  0.31565  0.49718  Biso   1.000  C
  C381     1.0000 0.29801  0.33374  0.51310  Biso   1.000  C
  H253     1.0000 0.26160  0.32730  0.50030  Biso   1.000  H
  C382     1.0000 0.29843  0.36120  0.54768  Biso   1.000  C
  H254     1.0000 0.26150  0.37290  0.55830  Biso   1.000  H
  N64      1.0000 0.34776  0.37238  0.56718  Biso   1.000  N
  C383     1.0000 0.39722  0.35661  0.55118  Biso   1.000  C
  H255     1.0000 0.43320  0.36590  0.56380  Biso   1.000  H
  C384     1.0000 0.40108  0.32743  0.51721  Biso   1.000  C
  H256     1.0000 0.43860  0.31550  0.50770  Biso   1.000  H
  Ag1      1.0000 0.33857  0.08857  0.62500  Biso   1.000  Ag
  Ag2      1.0000 0.83857  0.58857  0.12500  Biso   1.000  Ag
  Ag3      1.0000 0.16143  0.91143  0.12500  Biso   1.000  Ag
  Ag4      1.0000 0.66143  0.41143  0.62500  Biso   1.000  Ag
  Ag5      1.0000 0.16143  0.08857  0.87500  Biso   1.000  Ag
  Ag6      1.0000 0.66143  0.58857  0.37500  Biso   1.000  Ag
  Ag7      1.0000 0.33857  0.91143  0.37500  Biso   1.000  Ag
  Ag8      1.0000 0.83857  0.41143  0.87500  Biso   1.000  Ag
  Ag9      1.0000 0.66143  0.91143  0.37500  Biso   1.000  Ag
  Ag10     1.0000 0.16143  0.41143  0.87500  Biso   1.000  Ag
  Ag11     1.0000 0.83857  0.08857  0.87500  Biso   1.000  Ag
  Ag12     1.0000 0.33857  0.58857  0.37500  Biso   1.000  Ag
  Ag13     1.0000 0.83857  0.91143  0.12500  Biso   1.000  Ag
  Ag14     1.0000 0.33857  0.41143  0.62500  Biso   1.000  Ag
  Ag15     1.0000 0.66143  0.08857  0.62500  Biso   1.000  Ag
  Ag16     1.0000 0.16143  0.58857  0.12500  Biso   1.000  Ag
  S1       1.0000 0.00000  0.09296  0.64217  Biso   1.000  S
  S2       1.0000 0.50000  0.59296  0.14217  Biso   1.000  S
  S3       1.0000 0.50000  0.90704  0.14217  Biso   1.000  S
  S4       1.0000 0.00000  0.40704  0.64217  Biso   1.000  S
  S5       1.0000 0.15704  0.75000  0.89217  Biso   1.000  S
  S6       1.0000 0.34296  0.25000  0.39217  Biso   1.000  S
  S7       1.0000 0.50000  0.09296  0.85783  Biso   1.000  S
  S8       1.0000 0.00000  0.59296  0.35783  Biso   1.000  S
  S9       1.0000 0.00000  0.90704  0.35783  Biso   1.000  S
  S10      1.0000 0.50000  0.40704  0.85783  Biso   1.000  S
  S11      1.0000 0.34296  0.75000  0.60783  Biso   1.000  S
  S12      1.0000 0.15704  0.25000  0.10783  Biso   1.000  S
  S13      1.0000 0.84296  0.25000  0.10783  Biso   1.000  S
  S14      1.0000 0.65704  0.75000  0.60783  Biso   1.000  S
  S15      1.0000 0.65704  0.25000  0.39217  Biso   1.000  S
  S16      1.0000 0.84296  0.75000  0.89217  Biso   1.000  S
