data_image0
_cell_length_a       38.531
_cell_length_b       20.84
_cell_length_c       38.688
_cell_angle_alpha    90
_cell_angle_beta     91.6
_cell_angle_gamma    90

_symmetry_space_group_name_H-M    "P 1"
_symmetry_int_tables_number       1

loop_
  _symmetry_equiv_pos_as_xyz
  'x, y, z'

loop_
  _atom_site_label
  _atom_site_occupancy
  _atom_site_fract_x
  _atom_site_fract_y
  _atom_site_fract_z
  _atom_site_thermal_displace_type
  _atom_site_B_iso_or_equiv
  _atom_site_type_symbol
  C1       1.0000 0.30870  0.47050  0.02220  Biso   1.000  C
  H1       1.0000 0.30990  0.42930  0.01180  Biso   1.000  H
  C2       1.0000 0.33870  0.50660  0.02730  Biso   1.000  C
  H2       1.0000 0.36040  0.49000  0.02050  Biso   1.000  H
  C3       1.0000 0.33690  0.56690  0.04250  Biso   1.000  C
  C4       1.0000 0.30510  0.59110  0.05250  Biso   1.000  C
  C5       1.0000 0.27510  0.55500  0.04730  Biso   1.000  C
  C6       1.0000 0.27690  0.49470  0.03220  Biso   1.000  C
  H3       1.0000 0.25630  0.47000  0.02860  Biso   1.000  H
  O1       1.0000 0.30240  0.65580  0.05850  Biso   1.000  O
  C7       1.0000 0.29180  0.69240  0.02950  Biso   1.000  C
  H4       1.0000 0.26620  0.69100  0.02630  Biso   1.000  H
  H5       1.0000 0.30230  0.67510  0.00830  Biso   1.000  H
  C8       1.0000 0.30440  0.76390  0.03610  Biso   1.000  C
  C9       1.0000 0.28200  0.81400  0.04400  Biso   1.000  C
  H6       1.0000 0.25780  0.80640  0.04550  Biso   1.000  H
  C10      1.0000 0.29500  0.87320  0.04950  Biso   1.000  C
  H7       1.0000 0.28040  0.90750  0.05620  Biso   1.000  H
  C11      1.0000 0.33050  0.88310  0.04520  Biso   1.000  C
  H8       1.0000 0.33980  0.92410  0.05100  Biso   1.000  H
  N1       1.0000 0.35270  0.83790  0.03340  Biso   1.000  N
  C12      1.0000 0.33860  0.77590  0.02910  Biso   1.000  C
  H9       1.0000 0.35280  0.74200  0.02140  Biso   1.000  H
  C13      1.0000 0.24010  0.57600  0.05930  Biso   1.000  C
  H10      1.0000 0.22230  0.56820  0.04080  Biso   1.000  H
  H11      1.0000 0.24050  0.62250  0.06450  Biso   1.000  H
  C14      1.0000 0.20460  0.44560  0.11690  Biso   1.000  C
  H12      1.0000 0.19100  0.40780  0.11450  Biso   1.000  H
  C15      1.0000 0.21110  0.48320  0.08810  Biso   1.000  C
  H13      1.0000 0.20200  0.47100  0.06600  Biso   1.000  H
  C16      1.0000 0.23100  0.53850  0.09170  Biso   1.000  C
  C17      1.0000 0.24440  0.55640  0.12400  Biso   1.000  C
  C18      1.0000 0.23780  0.51880  0.15280  Biso   1.000  C
  C19      1.0000 0.21790  0.46340  0.14920  Biso   1.000  C
  H14      1.0000 0.21340  0.43780  0.16890  Biso   1.000  H
  O2       1.0000 0.26290  0.61030  0.12800  Biso   1.000  O
  C20      1.0000 0.30960  0.78890  0.12960  Biso   1.000  C
  H15      1.0000 0.33380  0.79230  0.12600  Biso   1.000  H
  C21      1.0000 0.29430  0.73010  0.13060  Biso   1.000  C
  H16      1.0000 0.30770  0.69200  0.12890  Biso   1.000  H
  C22      1.0000 0.26030  0.72750  0.13400  Biso   1.000  C
  C23      1.0000 0.24090  0.78120  0.14000  Biso   1.000  C
  H17      1.0000 0.21690  0.77680  0.14450  Biso   1.000  H
  N2       1.0000 0.25560  0.84190  0.13950  Biso   1.000  N
  C24      1.0000 0.28980  0.84410  0.13390  Biso   1.000  C
  H18      1.0000 0.30090  0.88470  0.13280  Biso   1.000  H
  C25      1.0000 0.23780  0.66250  0.13490  Biso   1.000  C
  H19      1.0000 0.22740  0.65670  0.15780  Biso   1.000  H
  H20      1.0000 0.21900  0.66340  0.11690  Biso   1.000  H
  C26      1.0000 0.25360  0.53560  0.18850  Biso   1.000  C
  H21      1.0000 0.23900  0.51620  0.20650  Biso   1.000  H
  H22      1.0000 0.25280  0.58270  0.19160  Biso   1.000  H
  C27      1.0000 0.32850  0.42100  0.20500  Biso   1.000  C
  H23      1.0000 0.33110  0.37650  0.20970  Biso   1.000  H
  C28      1.0000 0.29540  0.44740  0.20140  Biso   1.000  C
  H24      1.0000 0.27550  0.42090  0.20360  Biso   1.000  H
  C29      1.0000 0.29150  0.51250  0.19450  Biso   1.000  C
  C30      1.0000 0.32060  0.55120  0.19130  Biso   1.000  C
  C31      1.0000 0.35360  0.52490  0.19500  Biso   1.000  C
  C32      1.0000 0.35750  0.45980  0.20180  Biso   1.000  C
  H25      1.0000 0.38010  0.44180  0.20440  Biso   1.000  H
  O3       1.0000 0.31510  0.61620  0.18550  Biso   1.000  O
  C33      1.0000 0.32320  0.65440  0.21640  Biso   1.000  C
  H26      1.0000 0.34360  0.63600  0.22900  Biso   1.000  H
  H27      1.0000 0.32890  0.69900  0.20970  Biso   1.000  H
  C34      1.0000 0.29200  0.65450  0.23980  Biso   1.000  C
  C35      1.0000 0.26120  0.67990  0.23100  Biso   1.000  C
  H28      1.0000 0.25990  0.70640  0.21100  Biso   1.000  H
  C36      1.0000 0.23060  0.67080  0.24890  Biso   1.000  C
  H29      1.0000 0.20840  0.68470  0.24060  Biso   1.000  H
  C37      1.0000 0.23650  0.63670  0.28260  Biso   1.000  C
  H30      1.0000 0.21780  0.63250  0.29780  Biso   1.000  H
  N3       1.0000 0.26860  0.61120  0.29230  Biso   1.000  N
  C38      1.0000 0.29610  0.61790  0.27210  Biso   1.000  C
  H31      1.0000 0.31780  0.59930  0.27850  Biso   1.000  H
  C39      1.0000 0.38530  0.56150  0.18540  Biso   1.000  C
  H32      1.0000 0.40460  0.55110  0.20180  Biso   1.000  H
  H33      1.0000 0.38060  0.60810  0.18700  Biso   1.000  H
  C40      1.0000 0.41940  0.47060  0.10670  Biso   1.000  C
  H34      1.0000 0.43200  0.43260  0.10190  Biso   1.000  H
  C41      1.0000 0.41450  0.48910  0.14070  Biso   1.000  C
  H35      1.0000 0.42370  0.46370  0.15920  Biso   1.000  H
  C42      1.0000 0.39600  0.54470  0.14780  Biso   1.000  C
  C43      1.0000 0.38250  0.58180  0.12070  Biso   1.000  C
  C44      1.0000 0.38740  0.56340  0.08670  Biso   1.000  C
  C45      1.0000 0.40580  0.50780  0.07970  Biso   1.000  C
  H36      1.0000 0.40920  0.49520  0.05640  Biso   1.000  H
  O4       1.0000 0.36930  0.64230  0.12600  Biso   1.000  O
  C46      1.0000 0.39610  0.69180  0.13540  Biso   1.000  C
  H37      1.0000 0.38470  0.73100  0.14400  Biso   1.000  H
  H38      1.0000 0.41200  0.67520  0.15380  Biso   1.000  H
  C47      1.0000 0.41480  0.70630  0.10580  Biso   1.000  C
  C48      1.0000 0.44360  0.67220  0.09570  Biso   1.000  C
  H39      1.0000 0.45330  0.63950  0.11010  Biso   1.000  H
  C49      1.0000 0.45870  0.68730  0.06240  Biso   1.000  C
  H40      1.0000 0.47660  0.66160  0.05320  Biso   1.000  H
  C50      1.0000 0.44600  0.73990  0.04500  Biso   1.000  C
  H41      1.0000 0.45680  0.75090  0.02410  Biso   1.000  H
  N4       1.0000 0.41960  0.77740  0.05460  Biso   1.000  N
  C51      1.0000 0.40650  0.76070  0.08490  Biso   1.000  C
  H42      1.0000 0.38950  0.78880  0.09370  Biso   1.000  H
  C52      1.0000 0.36930  0.59840  0.05390  Biso   1.000  C
  H43      1.0000 0.36440  0.64360  0.05990  Biso   1.000  H
  H44      1.0000 0.38560  0.59850  0.03460  Biso   1.000  H
  C53      1.0000 0.37020  0.34260  0.04760  Biso   1.000  C
  H45      1.0000 0.36950  0.38120  0.06070  Biso   1.000  H
  C54      1.0000 0.40160  0.32010  0.03570  Biso   1.000  C
  H46      1.0000 0.42240  0.34330  0.04070  Biso   1.000  H
  C55      1.0000 0.40270  0.26370  0.01670  Biso   1.000  C
  C56      1.0000 0.37230  0.22970  0.00950  Biso   1.000  C
  C57      1.0000 0.34080  0.25220  0.02140  Biso   1.000  C
  C58      1.0000 0.33980  0.30860  0.04050  Biso   1.000  C
  H47      1.0000 0.31830  0.32400  0.04860  Biso   1.000  H
  O5       1.0000 0.37380  0.17410  0.98900  Biso   1.000  O
  C59      1.0000 0.37920  0.11760  0.01240  Biso   1.000  C
  H48      1.0000 0.40120  0.12260  0.02600  Biso   1.000  H
  H49      1.0000 0.36000  0.11470  0.02880  Biso   1.000  H
  C60      1.0000 0.38050  0.06160  0.99240  Biso   1.000  C
  C61      1.0000 0.37670  0.05570  0.95790  Biso   1.000  C
  H50      1.0000 0.37260  0.09370  0.94490  Biso   1.000  H
  C62      1.0000 0.37840  0.99910  0.94030  Biso   1.000  C
  H51      1.0000 0.37600  0.99680  0.91580  Biso   1.000  H
  C63      1.0000 0.38420  0.94360  0.96150  Biso   1.000  C
  H52      1.0000 0.38510  0.90270  0.95070  Biso   1.000  H
  N5       1.0000 0.38840  0.94670  0.99570  Biso   1.000  N
  C64      1.0000 0.38600  0.00420  0.01000  Biso   1.000  C
  H53      1.0000 0.38830  0.00650  0.03450  Biso   1.000  H
  C65      1.0000 0.30640  0.21580  0.01010  Biso   1.000  C
  H54      1.0000 0.31080  0.16920  0.00850  Biso   1.000  H
  H55      1.0000 0.28840  0.22280  0.02750  Biso   1.000  H
  C66      1.0000 0.26940  0.32710  0.93860  Biso   1.000  C
  H56      1.0000 0.25960  0.36880  0.93650  Biso   1.000  H
  C67      1.0000 0.27920  0.30340  0.97100  Biso   1.000  C
  H57      1.0000 0.27610  0.32890  0.99100  Biso   1.000  H
  C68      1.0000 0.29350  0.24240  0.97410  Biso   1.000  C
  C69      1.0000 0.29810  0.20510  0.94480  Biso   1.000  C
  C70      1.0000 0.28830  0.22880  0.91240  Biso   1.000  C
  C71      1.0000 0.27400  0.28980  0.90930  Biso   1.000  C
  H58      1.0000 0.26730  0.30610  0.88710  Biso   1.000  H
  O6       1.0000 0.30620  0.13730  0.94520  Biso   1.000  O
  C72      1.0000 0.27530  0.10070  0.95450  Biso   1.000  C
  H59      1.0000 0.27190  0.10240  0.97970  Biso   1.000  H
  H60      1.0000 0.25430  0.11820  0.94250  Biso   1.000  H
  C73      1.0000 0.28160  0.03500  0.94340  Biso   1.000  C
  C74      1.0000 0.29300  0.98410  0.96690  Biso   1.000  C
  H61      1.0000 0.29730  0.99400  0.99060  Biso   1.000  H
  C75      1.0000 0.29750  0.92240  0.95570  Biso   1.000  C
  H62      1.0000 0.30480  0.89040  0.97180  Biso   1.000  H
  C76      1.0000 0.29160  0.90590  0.92180  Biso   1.000  C
  H63      1.0000 0.29440  0.86270  0.91460  Biso   1.000  H
  N6       1.0000 0.28150  0.95240  0.89800  Biso   1.000  N
  C77      1.0000 0.27680  0.01760  0.90780  Biso   1.000  C
  H64      1.0000 0.27050  0.04910  0.89100  Biso   1.000  H
  C78      1.0000 0.29900  0.19330  0.87750  Biso   1.000  C
  H65      1.0000 0.30670  0.14900  0.88270  Biso   1.000  H
  H66      1.0000 0.27880  0.19120  0.86120  Biso   1.000  H
  C79      1.0000 0.35320  0.32660  0.83360  Biso   1.000  C
  H67      1.0000 0.34980  0.36610  0.82170  Biso   1.000  H
  C80      1.0000 0.32470  0.29060  0.84340  Biso   1.000  C
  H68      1.0000 0.30190  0.30550  0.83830  Biso   1.000  H
  C81      1.0000 0.32970  0.23270  0.86070  Biso   1.000  C
  C82      1.0000 0.36320  0.21090  0.86820  Biso   1.000  C
  C83      1.0000 0.39170  0.24690  0.85840  Biso   1.000  C
  C84      1.0000 0.38660  0.30470  0.84100  Biso   1.000  C
  H69      1.0000 0.40610  0.32930  0.83430  Biso   1.000  H
  O7       1.0000 0.37090  0.15170  0.88310  Biso   1.000  O
  C85      1.0000 0.38000  0.10100  0.85750  Biso   1.000  C
  H70      1.0000 0.39850  0.11740  0.84260  Biso   1.000  H
  H71      1.0000 0.38920  0.06300  0.87010  Biso   1.000  H
  C86      1.0000 0.35220  0.08300  0.83730  Biso   1.000  C
  C87      1.0000 0.33710  0.11770  0.80480  Biso   1.000  C
  H72      1.0000 0.34820  0.15420  0.79540  Biso   1.000  H
  C88      1.0000 0.30670  0.09300  0.79020  Biso   1.000  C
  H73      1.0000 0.29710  0.11490  0.77060  Biso   1.000  H
  C89      1.0000 0.29030  0.04330  0.80060  Biso   1.000  C
  H74      1.0000 0.26890  0.03200  0.78940  Biso   1.000  H
  N7       1.0000 0.30340  0.00420  0.82860  Biso   1.000  N
  C90      1.0000 0.33170  0.02380  0.84410  Biso   1.000  C
  H75      1.0000 0.34050  0.99710  0.86220  Biso   1.000  H
  C91      1.0000 0.43030  0.23070  0.86900  Biso   1.000  C
  H76      1.0000 0.43290  0.18360  0.87090  Biso   1.000  H
  H77      1.0000 0.44560  0.24560  0.85050  Biso   1.000  H
  C92      1.0000 0.45600  0.36240  0.93170  Biso   1.000  C
  H78      1.0000 0.46190  0.40650  0.93030  Biso   1.000  H
  C93      1.0000 0.45060  0.32680  0.90160  Biso   1.000  C
  H79      1.0000 0.45290  0.34660  0.87970  Biso   1.000  H
  C94      1.0000 0.44190  0.26220  0.90370  Biso   1.000  C
  C95      1.0000 0.43860  0.23320  0.93580  Biso   1.000  C
  C96      1.0000 0.44400  0.26880  0.96580  Biso   1.000  C
  C97      1.0000 0.45270  0.33340  0.96380  Biso   1.000  C
  H80      1.0000 0.45640  0.35770  0.98430  Biso   1.000  H
  O8       1.0000 0.43160  0.16820  0.93960  Biso   1.000  O
  C98      1.0000 0.45760  0.12640  0.92860  Biso   1.000  C
  C99      1.0000 0.49690  0.07590  0.01630  Biso   1.000  C
  C100     1.0000 0.47360  0.08340  0.98880  Biso   1.000  C
  H81      1.0000 0.45020  0.07040  0.99130  Biso   1.000  H
  C101     1.0000 0.48340  0.10960  0.95740  Biso   1.000  C
  C102     1.0000 0.51780  0.12270  0.95620  Biso   1.000  C
  H82      1.0000 0.52500  0.14020  0.93490  Biso   1.000  H
  N8       1.0000 0.54450  0.11480  0.98120  Biso   1.000  N
  C103     1.0000 0.53160  0.09150  0.01320  Biso   1.000  C
  H83      1.0000 0.54700  0.08680  0.03260  Biso   1.000  H
  C104     1.0000 0.43690  0.24030  0.00180  Biso   1.000  C
  H84      1.0000 0.43640  0.19290  0.00000  Biso   1.000  H
  H85      1.0000 0.45630  0.25200  0.01800  Biso   1.000  H
  Zn1      1.0000 0.27351  0.92524  0.84435  Biso   1.000  Zn
  Zn2      1.0000 0.40501  0.86133  0.02588  Biso   1.000  Zn
  N9       1.0000 0.32360  0.87310  0.85120  Biso   1.000  N
  C105     1.0000 0.34830  0.85200  0.85450  Biso   1.000  C
  C106     1.0000 0.38370  0.82250  0.86240  Biso   1.000  C
  H86      1.0000 0.40190  0.85160  0.85470  Biso   1.000  H
  H87      1.0000 0.38560  0.78140  0.85020  Biso   1.000  H
  H88      1.0000 0.38660  0.81520  0.88730  Biso   1.000  H
  C107     1.0000 0.80870  0.97050  0.52220  Biso   1.000  C
  H89      1.0000 0.80990  0.92930  0.51180  Biso   1.000  H
  C108     1.0000 0.83870  0.00660  0.52730  Biso   1.000  C
  H90      1.0000 0.86040  0.99000  0.52050  Biso   1.000  H
  C109     1.0000 0.83690  0.06690  0.54250  Biso   1.000  C
  C110     1.0000 0.80510  0.09110  0.55250  Biso   1.000  C
  C111     1.0000 0.77510  0.05500  0.54730  Biso   1.000  C
  C112     1.0000 0.77690  0.99470  0.53220  Biso   1.000  C
  H91      1.0000 0.75630  0.97000  0.52860  Biso   1.000  H
  O9       1.0000 0.80240  0.15580  0.55850  Biso   1.000  O
  C113     1.0000 0.79180  0.19240  0.52950  Biso   1.000  C
  H92      1.0000 0.76620  0.19100  0.52630  Biso   1.000  H
  H93      1.0000 0.80230  0.17510  0.50830  Biso   1.000  H
  C114     1.0000 0.80440  0.26390  0.53610  Biso   1.000  C
  C115     1.0000 0.78200  0.31400  0.54400  Biso   1.000  C
  H94      1.0000 0.75780  0.30640  0.54550  Biso   1.000  H
  C116     1.0000 0.79500  0.37320  0.54950  Biso   1.000  C
  H95      1.0000 0.78040  0.40750  0.55620  Biso   1.000  H
  C117     1.0000 0.83050  0.38310  0.54520  Biso   1.000  C
  H96      1.0000 0.83980  0.42410  0.55100  Biso   1.000  H
  N10      1.0000 0.85270  0.33790  0.53340  Biso   1.000  N
  C118     1.0000 0.83860  0.27590  0.52910  Biso   1.000  C
  H97      1.0000 0.85280  0.24200  0.52140  Biso   1.000  H
  C119     1.0000 0.74010  0.07600  0.55930  Biso   1.000  C
  H98      1.0000 0.72230  0.06820  0.54080  Biso   1.000  H
  H99      1.0000 0.74050  0.12250  0.56450  Biso   1.000  H
  C120     1.0000 0.70460  0.94560  0.61690  Biso   1.000  C
  H100     1.0000 0.69100  0.90780  0.61450  Biso   1.000  H
  C121     1.0000 0.71110  0.98320  0.58810  Biso   1.000  C
  H101     1.0000 0.70200  0.97100  0.56600  Biso   1.000  H
  C122     1.0000 0.73100  0.03850  0.59170  Biso   1.000  C
  C123     1.0000 0.74440  0.05640  0.62400  Biso   1.000  C
  C124     1.0000 0.73780  0.01880  0.65280  Biso   1.000  C
  C125     1.0000 0.71790  0.96340  0.64920  Biso   1.000  C
  H102     1.0000 0.71340  0.93780  0.66890  Biso   1.000  H
  O10      1.0000 0.76290  0.11030  0.62800  Biso   1.000  O
  C126     1.0000 0.80960  0.28890  0.62960  Biso   1.000  C
  H103     1.0000 0.83380  0.29230  0.62600  Biso   1.000  H
  C127     1.0000 0.79430  0.23010  0.63060  Biso   1.000  C
  H104     1.0000 0.80770  0.19200  0.62890  Biso   1.000  H
  C128     1.0000 0.76030  0.22750  0.63400  Biso   1.000  C
  C129     1.0000 0.74090  0.28120  0.64000  Biso   1.000  C
  H105     1.0000 0.71690  0.27680  0.64450  Biso   1.000  H
  N11      1.0000 0.75560  0.34190  0.63950  Biso   1.000  N
  C130     1.0000 0.78980  0.34410  0.63390  Biso   1.000  C
  H106     1.0000 0.80090  0.38470  0.63280  Biso   1.000  H
  C131     1.0000 0.73780  0.16250  0.63490  Biso   1.000  C
  H107     1.0000 0.72740  0.15670  0.65780  Biso   1.000  H
  H108     1.0000 0.71900  0.16340  0.61690  Biso   1.000  H
  C132     1.0000 0.75360  0.03560  0.68850  Biso   1.000  C
  H109     1.0000 0.73900  0.01620  0.70650  Biso   1.000  H
  H110     1.0000 0.75280  0.08270  0.69160  Biso   1.000  H
  C133     1.0000 0.82850  0.92100  0.70500  Biso   1.000  C
  H111     1.0000 0.83110  0.87650  0.70970  Biso   1.000  H
  C134     1.0000 0.79540  0.94740  0.70140  Biso   1.000  C
  H112     1.0000 0.77550  0.92090  0.70360  Biso   1.000  H
  C135     1.0000 0.79150  0.01250  0.69450  Biso   1.000  C
  C136     1.0000 0.82060  0.05120  0.69130  Biso   1.000  C
  C137     1.0000 0.85360  0.02490  0.69500  Biso   1.000  C
  C138     1.0000 0.85750  0.95980  0.70180  Biso   1.000  C
  H113     1.0000 0.88010  0.94180  0.70440  Biso   1.000  H
  O11      1.0000 0.81510  0.11620  0.68550  Biso   1.000  O
  C139     1.0000 0.82320  0.15440  0.71640  Biso   1.000  C
  H114     1.0000 0.84360  0.13600  0.72900  Biso   1.000  H
  H115     1.0000 0.82890  0.19900  0.70970  Biso   1.000  H
  C140     1.0000 0.79200  0.15450  0.73980  Biso   1.000  C
  C141     1.0000 0.76120  0.17990  0.73100  Biso   1.000  C
  H116     1.0000 0.75990  0.20640  0.71100  Biso   1.000  H
  C142     1.0000 0.73060  0.17080  0.74890  Biso   1.000  C
  H117     1.0000 0.70840  0.18470  0.74060  Biso   1.000  H
  C143     1.0000 0.73650  0.13670  0.78260  Biso   1.000  C
  H118     1.0000 0.71780  0.13250  0.79780  Biso   1.000  H
  N12      1.0000 0.76860  0.11120  0.79230  Biso   1.000  N
  C144     1.0000 0.79610  0.11790  0.77210  Biso   1.000  C
  H119     1.0000 0.81780  0.09930  0.77850  Biso   1.000  H
  C145     1.0000 0.88530  0.06150  0.68540  Biso   1.000  C
  H120     1.0000 0.90460  0.05110  0.70180  Biso   1.000  H
  H121     1.0000 0.88060  0.10810  0.68700  Biso   1.000  H
  C146     1.0000 0.91940  0.97060  0.60670  Biso   1.000  C
  H122     1.0000 0.93200  0.93260  0.60190  Biso   1.000  H
  C147     1.0000 0.91450  0.98910  0.64070  Biso   1.000  C
  H123     1.0000 0.92370  0.96370  0.65920  Biso   1.000  H
  C148     1.0000 0.89600  0.04470  0.64780  Biso   1.000  C
  C149     1.0000 0.88250  0.08180  0.62070  Biso   1.000  C
  C150     1.0000 0.88740  0.06340  0.58670  Biso   1.000  C
  C151     1.0000 0.90580  0.00780  0.57970  Biso   1.000  C
  H124     1.0000 0.90920  0.99520  0.55640  Biso   1.000  H
  O12      1.0000 0.86930  0.14230  0.62600  Biso   1.000  O
  C152     1.0000 0.89610  0.19180  0.63540  Biso   1.000  C
  H125     1.0000 0.88470  0.23100  0.64400  Biso   1.000  H
  H126     1.0000 0.91200  0.17520  0.65380  Biso   1.000  H
  C153     1.0000 0.91480  0.20630  0.60580  Biso   1.000  C
  C154     1.0000 0.94360  0.17220  0.59570  Biso   1.000  C
  H127     1.0000 0.95330  0.13950  0.61010  Biso   1.000  H
  C155     1.0000 0.95870  0.18730  0.56240  Biso   1.000  C
  H128     1.0000 0.97660  0.16160  0.55320  Biso   1.000  H
  C156     1.0000 0.94600  0.23990  0.54500  Biso   1.000  C
  H129     1.0000 0.95680  0.25090  0.52410  Biso   1.000  H
  N13      1.0000 0.91960  0.27740  0.55460  Biso   1.000  N
  C157     1.0000 0.90650  0.26070  0.58490  Biso   1.000  C
  H130     1.0000 0.88950  0.28880  0.59370  Biso   1.000  H
  C158     1.0000 0.86930  0.09840  0.55390  Biso   1.000  C
  H131     1.0000 0.86440  0.14360  0.55990  Biso   1.000  H
  H132     1.0000 0.88560  0.09850  0.53460  Biso   1.000  H
  C159     1.0000 0.87020  0.84260  0.54760  Biso   1.000  C
  H133     1.0000 0.86950  0.88120  0.56070  Biso   1.000  H
  C160     1.0000 0.90160  0.82010  0.53570  Biso   1.000  C
  H134     1.0000 0.92240  0.84330  0.54070  Biso   1.000  H
  C161     1.0000 0.90270  0.76370  0.51670  Biso   1.000  C
  C162     1.0000 0.87230  0.72970  0.50950  Biso   1.000  C
  C163     1.0000 0.84080  0.75220  0.52140  Biso   1.000  C
  C164     1.0000 0.83980  0.80860  0.54050  Biso   1.000  C
  H135     1.0000 0.81830  0.82400  0.54860  Biso   1.000  H
  O13      1.0000 0.87380  0.67410  0.48900  Biso   1.000  O
  C165     1.0000 0.87920  0.61760  0.51240  Biso   1.000  C
  H136     1.0000 0.90120  0.62260  0.52600  Biso   1.000  H
  H137     1.0000 0.86000  0.61470  0.52880  Biso   1.000  H
  C166     1.0000 0.88050  0.56160  0.49240  Biso   1.000  C
  C167     1.0000 0.87670  0.55570  0.45790  Biso   1.000  C
  H138     1.0000 0.87260  0.59370  0.44490  Biso   1.000  H
  C168     1.0000 0.87840  0.49910  0.44030  Biso   1.000  C
  H139     1.0000 0.87600  0.49680  0.41580  Biso   1.000  H
  C169     1.0000 0.88420  0.44360  0.46150  Biso   1.000  C
  H140     1.0000 0.88510  0.40270  0.45070  Biso   1.000  H
  N14      1.0000 0.88840  0.44670  0.49570  Biso   1.000  N
  C170     1.0000 0.88600  0.50420  0.51000  Biso   1.000  C
  H141     1.0000 0.88830  0.50650  0.53450  Biso   1.000  H
  C171     1.0000 0.80640  0.71580  0.51010  Biso   1.000  C
  H142     1.0000 0.81080  0.66920  0.50850  Biso   1.000  H
  H143     1.0000 0.78840  0.72280  0.52750  Biso   1.000  H
  C172     1.0000 0.76940  0.82710  0.43860  Biso   1.000  C
  H144     1.0000 0.75960  0.86880  0.43650  Biso   1.000  H
  C173     1.0000 0.77920  0.80340  0.47100  Biso   1.000  C
  H145     1.0000 0.77610  0.82890  0.49100  Biso   1.000  H
  C174     1.0000 0.79350  0.74240  0.47410  Biso   1.000  C
  C175     1.0000 0.79810  0.70510  0.44480  Biso   1.000  C
  C176     1.0000 0.78830  0.72880  0.41240  Biso   1.000  C
  C177     1.0000 0.77400  0.78980  0.40930  Biso   1.000  C
  H146     1.0000 0.76730  0.80610  0.38710  Biso   1.000  H
  O14      1.0000 0.80620  0.63730  0.44520  Biso   1.000  O
  C178     1.0000 0.77530  0.60070  0.45450  Biso   1.000  C
  H147     1.0000 0.77190  0.60240  0.47970  Biso   1.000  H
  H148     1.0000 0.75430  0.61820  0.44250  Biso   1.000  H
  C179     1.0000 0.78160  0.53500  0.44340  Biso   1.000  C
  C180     1.0000 0.79300  0.48410  0.46690  Biso   1.000  C
  H149     1.0000 0.79730  0.49400  0.49060  Biso   1.000  H
  C181     1.0000 0.79750  0.42240  0.45570  Biso   1.000  C
  H150     1.0000 0.80480  0.39040  0.47180  Biso   1.000  H
  C182     1.0000 0.79160  0.40590  0.42180  Biso   1.000  C
  H151     1.0000 0.79440  0.36270  0.41460  Biso   1.000  H
  N15      1.0000 0.78150  0.45240  0.39800  Biso   1.000  N
  C183     1.0000 0.77680  0.51760  0.40780  Biso   1.000  C
  H152     1.0000 0.77050  0.54910  0.39100  Biso   1.000  H
  C184     1.0000 0.79900  0.69330  0.37750  Biso   1.000  C
  H153     1.0000 0.80670  0.64900  0.38270  Biso   1.000  H
  H154     1.0000 0.77880  0.69120  0.36120  Biso   1.000  H
  C185     1.0000 0.85320  0.82660  0.33360  Biso   1.000  C
  H155     1.0000 0.84980  0.86610  0.32170  Biso   1.000  H
  C186     1.0000 0.82470  0.79060  0.34340  Biso   1.000  C
  H156     1.0000 0.80190  0.80550  0.33830  Biso   1.000  H
  C187     1.0000 0.82970  0.73270  0.36070  Biso   1.000  C
  C188     1.0000 0.86320  0.71090  0.36820  Biso   1.000  C
  C189     1.0000 0.89170  0.74690  0.35840  Biso   1.000  C
  C190     1.0000 0.88660  0.80470  0.34100  Biso   1.000  C
  H157     1.0000 0.90610  0.82930  0.33430  Biso   1.000  H
  O15      1.0000 0.87090  0.65170  0.38310  Biso   1.000  O
  C191     1.0000 0.88000  0.60100  0.35750  Biso   1.000  C
  H158     1.0000 0.89850  0.61740  0.34260  Biso   1.000  H
  H159     1.0000 0.88920  0.56300  0.37010  Biso   1.000  H
  C192     1.0000 0.85220  0.58300  0.33730  Biso   1.000  C
  C193     1.0000 0.83710  0.61770  0.30480  Biso   1.000  C
  H160     1.0000 0.84820  0.65420  0.29540  Biso   1.000  H
  C194     1.0000 0.80670  0.59300  0.29020  Biso   1.000  C
  H161     1.0000 0.79710  0.61490  0.27060  Biso   1.000  H
  C195     1.0000 0.79030  0.54330  0.30060  Biso   1.000  C
  H162     1.0000 0.76890  0.53200  0.28940  Biso   1.000  H
  N16      1.0000 0.80340  0.50420  0.32860  Biso   1.000  N
  C196     1.0000 0.83170  0.52380  0.34410  Biso   1.000  C
  H163     1.0000 0.84050  0.49710  0.36220  Biso   1.000  H
  C197     1.0000 0.93030  0.73070  0.36900  Biso   1.000  C
  H164     1.0000 0.93290  0.68360  0.37090  Biso   1.000  H
  H165     1.0000 0.94560  0.74560  0.35050  Biso   1.000  H
  C198     1.0000 0.95600  0.86240  0.43170  Biso   1.000  C
  H166     1.0000 0.96190  0.90650  0.43030  Biso   1.000  H
  C199     1.0000 0.95060  0.82680  0.40160  Biso   1.000  C
  H167     1.0000 0.95290  0.84660  0.37970  Biso   1.000  H
  C200     1.0000 0.94190  0.76220  0.40370  Biso   1.000  C
  C201     1.0000 0.93860  0.73320  0.43580  Biso   1.000  C
  C202     1.0000 0.94400  0.76880  0.46580  Biso   1.000  C
  C203     1.0000 0.95270  0.83340  0.46380  Biso   1.000  C
  H168     1.0000 0.95640  0.85770  0.48430  Biso   1.000  H
  O16      1.0000 0.93160  0.66820  0.43960  Biso   1.000  O
  C204     1.0000 0.95760  0.62640  0.42860  Biso   1.000  C
  C205     1.0000 0.99690  0.57590  0.51630  Biso   1.000  C
  C206     1.0000 0.97360  0.58340  0.48880  Biso   1.000  C
  H169     1.0000 0.95020  0.57040  0.49130  Biso   1.000  H
  C207     1.0000 0.98340  0.60960  0.45740  Biso   1.000  C
  C208     1.0000 0.01780  0.62270  0.45620  Biso   1.000  C
  H170     1.0000 0.02500  0.64020  0.43490  Biso   1.000  H
  N17      1.0000 0.04450  0.61480  0.48120  Biso   1.000  N
  C209     1.0000 0.03160  0.59150  0.51320  Biso   1.000  C
  H171     1.0000 0.04700  0.58680  0.53260  Biso   1.000  H
  C210     1.0000 0.93690  0.74030  0.50180  Biso   1.000  C
  H172     1.0000 0.93640  0.69290  0.50000  Biso   1.000  H
  H173     1.0000 0.95630  0.75200  0.51800  Biso   1.000  H
  Zn3      1.0000 0.77351  0.42524  0.34435  Biso   1.000  Zn
  Zn4      1.0000 0.90501  0.36133  0.52588  Biso   1.000  Zn
  N18      1.0000 0.82360  0.37310  0.35120  Biso   1.000  N
  C211     1.0000 0.84830  0.35200  0.35450  Biso   1.000  C
  C212     1.0000 0.88370  0.32250  0.36240  Biso   1.000  C
  H174     1.0000 0.90190  0.35160  0.35470  Biso   1.000  H
  H175     1.0000 0.88560  0.28140  0.35020  Biso   1.000  H
  H176     1.0000 0.88660  0.31520  0.38730  Biso   1.000  H
  C213     1.0000 0.19130  0.47050  0.97780  Biso   1.000  C
  H177     1.0000 0.19010  0.42930  0.98820  Biso   1.000  H
  C214     1.0000 0.16130  0.50660  0.97270  Biso   1.000  C
  H178     1.0000 0.13960  0.49000  0.97950  Biso   1.000  H
  C215     1.0000 0.16310  0.56690  0.95750  Biso   1.000  C
  C216     1.0000 0.19490  0.59110  0.94750  Biso   1.000  C
  C217     1.0000 0.22490  0.55500  0.95270  Biso   1.000  C
  C218     1.0000 0.22310  0.49470  0.96780  Biso   1.000  C
  H179     1.0000 0.24370  0.47000  0.97140  Biso   1.000  H
  O17      1.0000 0.19760  0.65580  0.94150  Biso   1.000  O
  C219     1.0000 0.20820  0.69240  0.97050  Biso   1.000  C
  H180     1.0000 0.23380  0.69100  0.97370  Biso   1.000  H
  H181     1.0000 0.19770  0.67510  0.99170  Biso   1.000  H
  C220     1.0000 0.19560  0.76390  0.96390  Biso   1.000  C
  C221     1.0000 0.21800  0.81400  0.95600  Biso   1.000  C
  H182     1.0000 0.24220  0.80640  0.95450  Biso   1.000  H
  C222     1.0000 0.20500  0.87320  0.95050  Biso   1.000  C
  H183     1.0000 0.21960  0.90750  0.94380  Biso   1.000  H
  C223     1.0000 0.16950  0.88310  0.95480  Biso   1.000  C
  H184     1.0000 0.16020  0.92410  0.94900  Biso   1.000  H
  N19      1.0000 0.14730  0.83790  0.96660  Biso   1.000  N
  C224     1.0000 0.16140  0.77590  0.97090  Biso   1.000  C
  H185     1.0000 0.14720  0.74200  0.97860  Biso   1.000  H
  C225     1.0000 0.25990  0.57600  0.94070  Biso   1.000  C
  H186     1.0000 0.27770  0.56820  0.95920  Biso   1.000  H
  H187     1.0000 0.25950  0.62250  0.93550  Biso   1.000  H
  C226     1.0000 0.29540  0.44560  0.88310  Biso   1.000  C
  H188     1.0000 0.30900  0.40780  0.88550  Biso   1.000  H
  C227     1.0000 0.28890  0.48320  0.91190  Biso   1.000  C
  H189     1.0000 0.29800  0.47100  0.93400  Biso   1.000  H
  C228     1.0000 0.26900  0.53850  0.90830  Biso   1.000  C
  C229     1.0000 0.25560  0.55640  0.87600  Biso   1.000  C
  C230     1.0000 0.26220  0.51880  0.84720  Biso   1.000  C
  C231     1.0000 0.28210  0.46340  0.85080  Biso   1.000  C
  H190     1.0000 0.28660  0.43780  0.83110  Biso   1.000  H
  O18      1.0000 0.23710  0.61030  0.87200  Biso   1.000  O
  C232     1.0000 0.19040  0.78890  0.87040  Biso   1.000  C
  H191     1.0000 0.16620  0.79230  0.87400  Biso   1.000  H
  C233     1.0000 0.20570  0.73010  0.86940  Biso   1.000  C
  H192     1.0000 0.19230  0.69200  0.87110  Biso   1.000  H
  C234     1.0000 0.23970  0.72750  0.86600  Biso   1.000  C
  C235     1.0000 0.25910  0.78120  0.86000  Biso   1.000  C
  H193     1.0000 0.28310  0.77680  0.85550  Biso   1.000  H
  N20      1.0000 0.24440  0.84190  0.86050  Biso   1.000  N
  C236     1.0000 0.21020  0.84410  0.86610  Biso   1.000  C
  H194     1.0000 0.19910  0.88470  0.86720  Biso   1.000  H
  C237     1.0000 0.26220  0.66250  0.86510  Biso   1.000  C
  H195     1.0000 0.27260  0.65670  0.84220  Biso   1.000  H
  H196     1.0000 0.28100  0.66340  0.88310  Biso   1.000  H
  C238     1.0000 0.24640  0.53560  0.81150  Biso   1.000  C
  H197     1.0000 0.26100  0.51620  0.79350  Biso   1.000  H
  H198     1.0000 0.24720  0.58270  0.80840  Biso   1.000  H
  C239     1.0000 0.17150  0.42100  0.79500  Biso   1.000  C
  H199     1.0000 0.16890  0.37650  0.79030  Biso   1.000  H
  C240     1.0000 0.20460  0.44740  0.79860  Biso   1.000  C
  H200     1.0000 0.22450  0.42090  0.79640  Biso   1.000  H
  C241     1.0000 0.20850  0.51250  0.80550  Biso   1.000  C
  C242     1.0000 0.17940  0.55120  0.80870  Biso   1.000  C
  C243     1.0000 0.14640  0.52490  0.80500  Biso   1.000  C
  C244     1.0000 0.14250  0.45980  0.79820  Biso   1.000  C
  H201     1.0000 0.11990  0.44180  0.79560  Biso   1.000  H
  O19      1.0000 0.18490  0.61620  0.81450  Biso   1.000  O
  C245     1.0000 0.17680  0.65440  0.78360  Biso   1.000  C
  H202     1.0000 0.15640  0.63600  0.77100  Biso   1.000  H
  H203     1.0000 0.17110  0.69900  0.79030  Biso   1.000  H
  C246     1.0000 0.20800  0.65450  0.76020  Biso   1.000  C
  C247     1.0000 0.23880  0.67990  0.76900  Biso   1.000  C
  H204     1.0000 0.24010  0.70640  0.78900  Biso   1.000  H
  C248     1.0000 0.26940  0.67080  0.75110  Biso   1.000  C
  H205     1.0000 0.29160  0.68470  0.75940  Biso   1.000  H
  C249     1.0000 0.26350  0.63670  0.71740  Biso   1.000  C
  H206     1.0000 0.28220  0.63250  0.70220  Biso   1.000  H
  N21      1.0000 0.23140  0.61120  0.70770  Biso   1.000  N
  C250     1.0000 0.20390  0.61790  0.72790  Biso   1.000  C
  H207     1.0000 0.18220  0.59930  0.72150  Biso   1.000  H
  C251     1.0000 0.11470  0.56150  0.81460  Biso   1.000  C
  H208     1.0000 0.09540  0.55110  0.79820  Biso   1.000  H
  H209     1.0000 0.11940  0.60810  0.81300  Biso   1.000  H
  C252     1.0000 0.08060  0.47060  0.89330  Biso   1.000  C
  H210     1.0000 0.06800  0.43260  0.89810  Biso   1.000  H
  C253     1.0000 0.08550  0.48910  0.85930  Biso   1.000  C
  H211     1.0000 0.07630  0.46370  0.84080  Biso   1.000  H
  C254     1.0000 0.10400  0.54470  0.85220  Biso   1.000  C
  C255     1.0000 0.11750  0.58180  0.87930  Biso   1.000  C
  C256     1.0000 0.11260  0.56340  0.91330  Biso   1.000  C
  C257     1.0000 0.09420  0.50780  0.92030  Biso   1.000  C
  H212     1.0000 0.09080  0.49520  0.94360  Biso   1.000  H
  O20      1.0000 0.13070  0.64230  0.87400  Biso   1.000  O
  C258     1.0000 0.10390  0.69180  0.86460  Biso   1.000  C
  H213     1.0000 0.11530  0.73100  0.85600  Biso   1.000  H
  H214     1.0000 0.08800  0.67520  0.84620  Biso   1.000  H
  C259     1.0000 0.08520  0.70630  0.89420  Biso   1.000  C
  C260     1.0000 0.05640  0.67220  0.90430  Biso   1.000  C
  H215     1.0000 0.04670  0.63950  0.88990  Biso   1.000  H
  C261     1.0000 0.04130  0.68730  0.93760  Biso   1.000  C
  H216     1.0000 0.02340  0.66160  0.94680  Biso   1.000  H
  C262     1.0000 0.05400  0.73990  0.95500  Biso   1.000  C
  H217     1.0000 0.04320  0.75090  0.97590  Biso   1.000  H
  N22      1.0000 0.08040  0.77740  0.94540  Biso   1.000  N
  C263     1.0000 0.09350  0.76070  0.91510  Biso   1.000  C
  H218     1.0000 0.11050  0.78880  0.90630  Biso   1.000  H
  C264     1.0000 0.13070  0.59840  0.94610  Biso   1.000  C
  H219     1.0000 0.13560  0.64360  0.94010  Biso   1.000  H
  H220     1.0000 0.11440  0.59850  0.96540  Biso   1.000  H
  C265     1.0000 0.12980  0.34260  0.95240  Biso   1.000  C
  H221     1.0000 0.13050  0.38120  0.93930  Biso   1.000  H
  C266     1.0000 0.09840  0.32010  0.96430  Biso   1.000  C
  H222     1.0000 0.07760  0.34330  0.95930  Biso   1.000  H
  C267     1.0000 0.09730  0.26370  0.98330  Biso   1.000  C
  C268     1.0000 0.12770  0.22970  0.99050  Biso   1.000  C
  C269     1.0000 0.15920  0.25220  0.97860  Biso   1.000  C
  C270     1.0000 0.16020  0.30860  0.95950  Biso   1.000  C
  H223     1.0000 0.18170  0.32400  0.95140  Biso   1.000  H
  O21      1.0000 0.12620  0.17410  0.01100  Biso   1.000  O
  C271     1.0000 0.12080  0.11760  0.98760  Biso   1.000  C
  H224     1.0000 0.09880  0.12260  0.97400  Biso   1.000  H
  H225     1.0000 0.14000  0.11470  0.97120  Biso   1.000  H
  C272     1.0000 0.11950  0.06160  0.00760  Biso   1.000  C
  C273     1.0000 0.12330  0.05570  0.04210  Biso   1.000  C
  H226     1.0000 0.12740  0.09370  0.05510  Biso   1.000  H
  C274     1.0000 0.12160  0.99910  0.05970  Biso   1.000  C
  H227     1.0000 0.12400  0.99680  0.08420  Biso   1.000  H
  C275     1.0000 0.11580  0.94360  0.03850  Biso   1.000  C
  H228     1.0000 0.11490  0.90270  0.04930  Biso   1.000  H
  N23      1.0000 0.11160  0.94670  0.00430  Biso   1.000  N
  C276     1.0000 0.11400  0.00420  0.99000  Biso   1.000  C
  H229     1.0000 0.11170  0.00650  0.96550  Biso   1.000  H
  C277     1.0000 0.19360  0.21580  0.98990  Biso   1.000  C
  H230     1.0000 0.18920  0.16920  0.99150  Biso   1.000  H
  H231     1.0000 0.21160  0.22280  0.97250  Biso   1.000  H
  C278     1.0000 0.23060  0.32710  0.06140  Biso   1.000  C
  H232     1.0000 0.24040  0.36880  0.06350  Biso   1.000  H
  C279     1.0000 0.22080  0.30340  0.02900  Biso   1.000  C
  H233     1.0000 0.22390  0.32890  0.00900  Biso   1.000  H
  C280     1.0000 0.20650  0.24240  0.02590  Biso   1.000  C
  C281     1.0000 0.20190  0.20510  0.05520  Biso   1.000  C
  C282     1.0000 0.21170  0.22880  0.08760  Biso   1.000  C
  C283     1.0000 0.22600  0.28980  0.09070  Biso   1.000  C
  H234     1.0000 0.23270  0.30610  0.11290  Biso   1.000  H
  O22      1.0000 0.19380  0.13730  0.05480  Biso   1.000  O
  C284     1.0000 0.22470  0.10070  0.04550  Biso   1.000  C
  H235     1.0000 0.22810  0.10240  0.02030  Biso   1.000  H
  H236     1.0000 0.24570  0.11820  0.05750  Biso   1.000  H
  C285     1.0000 0.21840  0.03500  0.05660  Biso   1.000  C
  C286     1.0000 0.20700  0.98410  0.03310  Biso   1.000  C
  H237     1.0000 0.20270  0.99400  0.00940  Biso   1.000  H
  C287     1.0000 0.20250  0.92240  0.04430  Biso   1.000  C
  H238     1.0000 0.19520  0.89040  0.02820  Biso   1.000  H
  C288     1.0000 0.20840  0.90590  0.07820  Biso   1.000  C
  H239     1.0000 0.20560  0.86270  0.08540  Biso   1.000  H
  N24      1.0000 0.21850  0.95240  0.10200  Biso   1.000  N
  C289     1.0000 0.22320  0.01760  0.09220  Biso   1.000  C
  H240     1.0000 0.22950  0.04910  0.10900  Biso   1.000  H
  C290     1.0000 0.20100  0.19330  0.12250  Biso   1.000  C
  H241     1.0000 0.19330  0.14900  0.11730  Biso   1.000  H
  H242     1.0000 0.22120  0.19120  0.13880  Biso   1.000  H
  C291     1.0000 0.14680  0.32660  0.16640  Biso   1.000  C
  H243     1.0000 0.15020  0.36610  0.17830  Biso   1.000  H
  C292     1.0000 0.17530  0.29060  0.15660  Biso   1.000  C
  H244     1.0000 0.19810  0.30550  0.16170  Biso   1.000  H
  C293     1.0000 0.17030  0.23270  0.13930  Biso   1.000  C
  C294     1.0000 0.13680  0.21090  0.13180  Biso   1.000  C
  C295     1.0000 0.10830  0.24690  0.14160  Biso   1.000  C
  C296     1.0000 0.11340  0.30470  0.15900  Biso   1.000  C
  H245     1.0000 0.09390  0.32930  0.16570  Biso   1.000  H
  O23      1.0000 0.12910  0.15170  0.11690  Biso   1.000  O
  C297     1.0000 0.12000  0.10100  0.14250  Biso   1.000  C
  H246     1.0000 0.10150  0.11740  0.15740  Biso   1.000  H
  H247     1.0000 0.11080  0.06300  0.12990  Biso   1.000  H
  C298     1.0000 0.14780  0.08300  0.16270  Biso   1.000  C
  C299     1.0000 0.16290  0.11770  0.19520  Biso   1.000  C
  H248     1.0000 0.15180  0.15420  0.20460  Biso   1.000  H
  C300     1.0000 0.19330  0.09300  0.20980  Biso   1.000  C
  H249     1.0000 0.20290  0.11490  0.22940  Biso   1.000  H
  C301     1.0000 0.20970  0.04330  0.19940  Biso   1.000  C
  H250     1.0000 0.23110  0.03200  0.21060  Biso   1.000  H
  N25      1.0000 0.19660  0.00420  0.17140  Biso   1.000  N
  C302     1.0000 0.16830  0.02380  0.15590  Biso   1.000  C
  H251     1.0000 0.15950  0.99710  0.13780  Biso   1.000  H
  C303     1.0000 0.06970  0.23070  0.13100  Biso   1.000  C
  H252     1.0000 0.06710  0.18360  0.12910  Biso   1.000  H
  H253     1.0000 0.05440  0.24560  0.14950  Biso   1.000  H
  C304     1.0000 0.04400  0.36240  0.06830  Biso   1.000  C
  H254     1.0000 0.03810  0.40650  0.06970  Biso   1.000  H
  C305     1.0000 0.04940  0.32680  0.09840  Biso   1.000  C
  H255     1.0000 0.04710  0.34660  0.12030  Biso   1.000  H
  C306     1.0000 0.05810  0.26220  0.09630  Biso   1.000  C
  C307     1.0000 0.06140  0.23320  0.06420  Biso   1.000  C
  C308     1.0000 0.05600  0.26880  0.03420  Biso   1.000  C
  C309     1.0000 0.04730  0.33340  0.03620  Biso   1.000  C
  H256     1.0000 0.04360  0.35770  0.01570  Biso   1.000  H
  O24      1.0000 0.06840  0.16820  0.06040  Biso   1.000  O
  C310     1.0000 0.04240  0.12640  0.07140  Biso   1.000  C
  C311     1.0000 0.00310  0.07590  0.98370  Biso   1.000  C
  C312     1.0000 0.02640  0.08340  0.01120  Biso   1.000  C
  H257     1.0000 0.04980  0.07040  0.00870  Biso   1.000  H
  C313     1.0000 0.01660  0.10960  0.04260  Biso   1.000  C
  C314     1.0000 0.98220  0.12270  0.04380  Biso   1.000  C
  H258     1.0000 0.97500  0.14020  0.06510  Biso   1.000  H
  N26      1.0000 0.95550  0.11480  0.01880  Biso   1.000  N
  C315     1.0000 0.96840  0.09150  0.98680  Biso   1.000  C
  H259     1.0000 0.95300  0.08680  0.96740  Biso   1.000  H
  C316     1.0000 0.06310  0.24030  0.99820  Biso   1.000  C
  H260     1.0000 0.06360  0.19290  0.00000  Biso   1.000  H
  H261     1.0000 0.04370  0.25200  0.98200  Biso   1.000  H
  Zn5      1.0000 0.22649  0.92524  0.15565  Biso   1.000  Zn
  Zn6      1.0000 0.09499  0.86133  0.97412  Biso   1.000  Zn
  N27      1.0000 0.17640  0.87310  0.14880  Biso   1.000  N
  C317     1.0000 0.15170  0.85200  0.14550  Biso   1.000  C
  C318     1.0000 0.11630  0.82250  0.13760  Biso   1.000  C
  H262     1.0000 0.09810  0.85160  0.14530  Biso   1.000  H
  H263     1.0000 0.11440  0.78140  0.14980  Biso   1.000  H
  H264     1.0000 0.11340  0.81520  0.11270  Biso   1.000  H
  C319     1.0000 0.69130  0.97050  0.47780  Biso   1.000  C
  H265     1.0000 0.69010  0.92930  0.48820  Biso   1.000  H
  C320     1.0000 0.66130  0.00660  0.47270  Biso   1.000  C
  H266     1.0000 0.63960  0.99000  0.47950  Biso   1.000  H
  C321     1.0000 0.66310  0.06690  0.45750  Biso   1.000  C
  C322     1.0000 0.69490  0.09110  0.44750  Biso   1.000  C
  C323     1.0000 0.72490  0.05500  0.45270  Biso   1.000  C
  C324     1.0000 0.72310  0.99470  0.46780  Biso   1.000  C
  H267     1.0000 0.74370  0.97000  0.47140  Biso   1.000  H
  O25      1.0000 0.69760  0.15580  0.44150  Biso   1.000  O
  C325     1.0000 0.70820  0.19240  0.47050  Biso   1.000  C
  H268     1.0000 0.73380  0.19100  0.47370  Biso   1.000  H
  H269     1.0000 0.69770  0.17510  0.49170  Biso   1.000  H
  C326     1.0000 0.69560  0.26390  0.46390  Biso   1.000  C
  C327     1.0000 0.71800  0.31400  0.45600  Biso   1.000  C
  H270     1.0000 0.74220  0.30640  0.45450  Biso   1.000  H
  C328     1.0000 0.70500  0.37320  0.45050  Biso   1.000  C
  H271     1.0000 0.71960  0.40750  0.44380  Biso   1.000  H
  C329     1.0000 0.66950  0.38310  0.45480  Biso   1.000  C
  H272     1.0000 0.66020  0.42410  0.44900  Biso   1.000  H
  N28      1.0000 0.64730  0.33790  0.46660  Biso   1.000  N
  C330     1.0000 0.66140  0.27590  0.47090  Biso   1.000  C
  H273     1.0000 0.64720  0.24200  0.47860  Biso   1.000  H
  C331     1.0000 0.75990  0.07600  0.44070  Biso   1.000  C
  H274     1.0000 0.77770  0.06820  0.45920  Biso   1.000  H
  H275     1.0000 0.75950  0.12250  0.43550  Biso   1.000  H
  C332     1.0000 0.79540  0.94560  0.38310  Biso   1.000  C
  H276     1.0000 0.80900  0.90780  0.38550  Biso   1.000  H
  C333     1.0000 0.78890  0.98320  0.41190  Biso   1.000  C
  H277     1.0000 0.79800  0.97100  0.43400  Biso   1.000  H
  C334     1.0000 0.76900  0.03850  0.40830  Biso   1.000  C
  C335     1.0000 0.75560  0.05640  0.37600  Biso   1.000  C
  C336     1.0000 0.76220  0.01880  0.34720  Biso   1.000  C
  C337     1.0000 0.78210  0.96340  0.35080  Biso   1.000  C
  H278     1.0000 0.78660  0.93780  0.33110  Biso   1.000  H
  O26      1.0000 0.73710  0.11030  0.37200  Biso   1.000  O
  C338     1.0000 0.69040  0.28890  0.37040  Biso   1.000  C
  H279     1.0000 0.66620  0.29230  0.37400  Biso   1.000  H
  C339     1.0000 0.70570  0.23010  0.36940  Biso   1.000  C
  H280     1.0000 0.69230  0.19200  0.37110  Biso   1.000  H
  C340     1.0000 0.73970  0.22750  0.36600  Biso   1.000  C
  C341     1.0000 0.75910  0.28120  0.36000  Biso   1.000  C
  H281     1.0000 0.78310  0.27680  0.35550  Biso   1.000  H
  N29      1.0000 0.74440  0.34190  0.36050  Biso   1.000  N
  C342     1.0000 0.71020  0.34410  0.36610  Biso   1.000  C
  H282     1.0000 0.69910  0.38470  0.36720  Biso   1.000  H
  C343     1.0000 0.76220  0.16250  0.36510  Biso   1.000  C
  H283     1.0000 0.77260  0.15670  0.34220  Biso   1.000  H
  H284     1.0000 0.78100  0.16340  0.38310  Biso   1.000  H
  C344     1.0000 0.74640  0.03560  0.31150  Biso   1.000  C
  H285     1.0000 0.76100  0.01620  0.29350  Biso   1.000  H
  H286     1.0000 0.74720  0.08270  0.30840  Biso   1.000  H
  C345     1.0000 0.67150  0.92100  0.29500  Biso   1.000  C
  H287     1.0000 0.66890  0.87650  0.29030  Biso   1.000  H
  C346     1.0000 0.70460  0.94740  0.29860  Biso   1.000  C
  H288     1.0000 0.72450  0.92090  0.29640  Biso   1.000  H
  C347     1.0000 0.70850  0.01250  0.30550  Biso   1.000  C
  C348     1.0000 0.67940  0.05120  0.30870  Biso   1.000  C
  C349     1.0000 0.64640  0.02490  0.30500  Biso   1.000  C
  C350     1.0000 0.64250  0.95980  0.29820  Biso   1.000  C
  H289     1.0000 0.61990  0.94180  0.29560  Biso   1.000  H
  O27      1.0000 0.68490  0.11620  0.31450  Biso   1.000  O
  C351     1.0000 0.67680  0.15440  0.28360  Biso   1.000  C
  H290     1.0000 0.65640  0.13600  0.27100  Biso   1.000  H
  H291     1.0000 0.67110  0.19900  0.29030  Biso   1.000  H
  C352     1.0000 0.70800  0.15450  0.26020  Biso   1.000  C
  C353     1.0000 0.73880  0.17990  0.26900  Biso   1.000  C
  H292     1.0000 0.74010  0.20640  0.28900  Biso   1.000  H
  C354     1.0000 0.76940  0.17080  0.25110  Biso   1.000  C
  H293     1.0000 0.79160  0.18470  0.25940  Biso   1.000  H
  C355     1.0000 0.76350  0.13670  0.21740  Biso   1.000  C
  H294     1.0000 0.78220  0.13250  0.20220  Biso   1.000  H
  N30      1.0000 0.73140  0.11120  0.20770  Biso   1.000  N
  C356     1.0000 0.70390  0.11790  0.22790  Biso   1.000  C
  H295     1.0000 0.68220  0.09930  0.22150  Biso   1.000  H
  C357     1.0000 0.61470  0.06150  0.31460  Biso   1.000  C
  H296     1.0000 0.59540  0.05110  0.29820  Biso   1.000  H
  H297     1.0000 0.61940  0.10810  0.31300  Biso   1.000  H
  C358     1.0000 0.58060  0.97060  0.39330  Biso   1.000  C
  H298     1.0000 0.56800  0.93260  0.39810  Biso   1.000  H
  C359     1.0000 0.58550  0.98910  0.35930  Biso   1.000  C
  H299     1.0000 0.57630  0.96370  0.34080  Biso   1.000  H
  C360     1.0000 0.60400  0.04470  0.35220  Biso   1.000  C
  C361     1.0000 0.61750  0.08180  0.37930  Biso   1.000  C
  C362     1.0000 0.61260  0.06340  0.41330  Biso   1.000  C
  C363     1.0000 0.59420  0.00780  0.42030  Biso   1.000  C
  H300     1.0000 0.59080  0.99520  0.44360  Biso   1.000  H
  O28      1.0000 0.63070  0.14230  0.37400  Biso   1.000  O
  C364     1.0000 0.60390  0.19180  0.36460  Biso   1.000  C
  H301     1.0000 0.61530  0.23100  0.35600  Biso   1.000  H
  H302     1.0000 0.58800  0.17520  0.34620  Biso   1.000  H
  C365     1.0000 0.58520  0.20630  0.39420  Biso   1.000  C
  C366     1.0000 0.55640  0.17220  0.40430  Biso   1.000  C
  H303     1.0000 0.54670  0.13950  0.38990  Biso   1.000  H
  C367     1.0000 0.54130  0.18730  0.43760  Biso   1.000  C
  H304     1.0000 0.52340  0.16160  0.44680  Biso   1.000  H
  C368     1.0000 0.55400  0.23990  0.45500  Biso   1.000  C
  H305     1.0000 0.54320  0.25090  0.47590  Biso   1.000  H
  N31      1.0000 0.58040  0.27740  0.44540  Biso   1.000  N
  C369     1.0000 0.59350  0.26070  0.41510  Biso   1.000  C
  H306     1.0000 0.61050  0.28880  0.40630  Biso   1.000  H
  C370     1.0000 0.63070  0.09840  0.44610  Biso   1.000  C
  H307     1.0000 0.63560  0.14360  0.44010  Biso   1.000  H
  H308     1.0000 0.61440  0.09850  0.46540  Biso   1.000  H
  C371     1.0000 0.62980  0.84260  0.45240  Biso   1.000  C
  H309     1.0000 0.63050  0.88120  0.43930  Biso   1.000  H
  C372     1.0000 0.59840  0.82010  0.46430  Biso   1.000  C
  H310     1.0000 0.57760  0.84330  0.45930  Biso   1.000  H
  C373     1.0000 0.59730  0.76370  0.48330  Biso   1.000  C
  C374     1.0000 0.62770  0.72970  0.49050  Biso   1.000  C
  C375     1.0000 0.65920  0.75220  0.47860  Biso   1.000  C
  C376     1.0000 0.66020  0.80860  0.45950  Biso   1.000  C
  H311     1.0000 0.68170  0.82400  0.45140  Biso   1.000  H
  O29      1.0000 0.62620  0.67410  0.51100  Biso   1.000  O
  C377     1.0000 0.62080  0.61760  0.48760  Biso   1.000  C
  H312     1.0000 0.59880  0.62260  0.47400  Biso   1.000  H
  H313     1.0000 0.64000  0.61470  0.47120  Biso   1.000  H
  C378     1.0000 0.61950  0.56160  0.50760  Biso   1.000  C
  C379     1.0000 0.62330  0.55570  0.54210  Biso   1.000  C
  H314     1.0000 0.62740  0.59370  0.55510  Biso   1.000  H
  C380     1.0000 0.62160  0.49910  0.55970  Biso   1.000  C
  H315     1.0000 0.62400  0.49680  0.58420  Biso   1.000  H
  C381     1.0000 0.61580  0.44360  0.53850  Biso   1.000  C
  H316     1.0000 0.61490  0.40270  0.54930  Biso   1.000  H
  N32      1.0000 0.61160  0.44670  0.50430  Biso   1.000  N
  C382     1.0000 0.61400  0.50420  0.49000  Biso   1.000  C
  H317     1.0000 0.61170  0.50650  0.46550  Biso   1.000  H
  C383     1.0000 0.69360  0.71580  0.48990  Biso   1.000  C
  H318     1.0000 0.68920  0.66920  0.49150  Biso   1.000  H
  H319     1.0000 0.71160  0.72280  0.47250  Biso   1.000  H
  C384     1.0000 0.73060  0.82710  0.56140  Biso   1.000  C
  H320     1.0000 0.74040  0.86880  0.56350  Biso   1.000  H
  C385     1.0000 0.72080  0.80340  0.52900  Biso   1.000  C
  H321     1.0000 0.72390  0.82890  0.50900  Biso   1.000  H
  C386     1.0000 0.70650  0.74240  0.52590  Biso   1.000  C
  C387     1.0000 0.70190  0.70510  0.55520  Biso   1.000  C
  C388     1.0000 0.71170  0.72880  0.58760  Biso   1.000  C
  C389     1.0000 0.72600  0.78980  0.59070  Biso   1.000  C
  H322     1.0000 0.73270  0.80610  0.61290  Biso   1.000  H
  O30      1.0000 0.69380  0.63730  0.55480  Biso   1.000  O
  C390     1.0000 0.72470  0.60070  0.54550  Biso   1.000  C
  H323     1.0000 0.72810  0.60240  0.52030  Biso   1.000  H
  H324     1.0000 0.74570  0.61820  0.55750  Biso   1.000  H
  C391     1.0000 0.71840  0.53500  0.55660  Biso   1.000  C
  C392     1.0000 0.70700  0.48410  0.53310  Biso   1.000  C
  H325     1.0000 0.70270  0.49400  0.50940  Biso   1.000  H
  C393     1.0000 0.70250  0.42240  0.54430  Biso   1.000  C
  H326     1.0000 0.69520  0.39040  0.52820  Biso   1.000  H
  C394     1.0000 0.70840  0.40590  0.57820  Biso   1.000  C
  H327     1.0000 0.70560  0.36270  0.58540  Biso   1.000  H
  N33      1.0000 0.71850  0.45240  0.60200  Biso   1.000  N
  C395     1.0000 0.72320  0.51760  0.59220  Biso   1.000  C
  H328     1.0000 0.72950  0.54910  0.60900  Biso   1.000  H
  C396     1.0000 0.70100  0.69330  0.62250  Biso   1.000  C
  H329     1.0000 0.69330  0.64900  0.61730  Biso   1.000  H
  H330     1.0000 0.72120  0.69120  0.63880  Biso   1.000  H
  C397     1.0000 0.64680  0.82660  0.66640  Biso   1.000  C
  H331     1.0000 0.65020  0.86610  0.67830  Biso   1.000  H
  C398     1.0000 0.67530  0.79060  0.65660  Biso   1.000  C
  H332     1.0000 0.69810  0.80550  0.66170  Biso   1.000  H
  C399     1.0000 0.67030  0.73270  0.63930  Biso   1.000  C
  C400     1.0000 0.63680  0.71090  0.63180  Biso   1.000  C
  C401     1.0000 0.60830  0.74690  0.64160  Biso   1.000  C
  C402     1.0000 0.61340  0.80470  0.65900  Biso   1.000  C
  H333     1.0000 0.59390  0.82930  0.66570  Biso   1.000  H
  O31      1.0000 0.62910  0.65170  0.61690  Biso   1.000  O
  C403     1.0000 0.62000  0.60100  0.64250  Biso   1.000  C
  H334     1.0000 0.60150  0.61740  0.65740  Biso   1.000  H
  H335     1.0000 0.61080  0.56300  0.62990  Biso   1.000  H
  C404     1.0000 0.64780  0.58300  0.66270  Biso   1.000  C
  C405     1.0000 0.66290  0.61770  0.69520  Biso   1.000  C
  H336     1.0000 0.65180  0.65420  0.70460  Biso   1.000  H
  C406     1.0000 0.69330  0.59300  0.70980  Biso   1.000  C
  H337     1.0000 0.70290  0.61490  0.72940  Biso   1.000  H
  C407     1.0000 0.70970  0.54330  0.69940  Biso   1.000  C
  H338     1.0000 0.73110  0.53200  0.71060  Biso   1.000  H
  N34      1.0000 0.69660  0.50420  0.67140  Biso   1.000  N
  C408     1.0000 0.66830  0.52380  0.65590  Biso   1.000  C
  H339     1.0000 0.65950  0.49710  0.63780  Biso   1.000  H
  C409     1.0000 0.56970  0.73070  0.63100  Biso   1.000  C
  H340     1.0000 0.56710  0.68360  0.62910  Biso   1.000  H
  H341     1.0000 0.55440  0.74560  0.64950  Biso   1.000  H
  C410     1.0000 0.54400  0.86240  0.56830  Biso   1.000  C
  H342     1.0000 0.53810  0.90650  0.56970  Biso   1.000  H
  C411     1.0000 0.54940  0.82680  0.59840  Biso   1.000  C
  H343     1.0000 0.54710  0.84660  0.62030  Biso   1.000  H
  C412     1.0000 0.55810  0.76220  0.59630  Biso   1.000  C
  C413     1.0000 0.56140  0.73320  0.56420  Biso   1.000  C
  C414     1.0000 0.55600  0.76880  0.53420  Biso   1.000  C
  C415     1.0000 0.54730  0.83340  0.53620  Biso   1.000  C
  H344     1.0000 0.54360  0.85770  0.51570  Biso   1.000  H
  O32      1.0000 0.56840  0.66820  0.56040  Biso   1.000  O
  C416     1.0000 0.54240  0.62640  0.57140  Biso   1.000  C
  C417     1.0000 0.50310  0.57590  0.48370  Biso   1.000  C
  C418     1.0000 0.52640  0.58340  0.51120  Biso   1.000  C
  H345     1.0000 0.54980  0.57040  0.50870  Biso   1.000  H
  C419     1.0000 0.51660  0.60960  0.54260  Biso   1.000  C
  C420     1.0000 0.48220  0.62270  0.54380  Biso   1.000  C
  H346     1.0000 0.47500  0.64020  0.56510  Biso   1.000  H
  N35      1.0000 0.45550  0.61480  0.51880  Biso   1.000  N
  C421     1.0000 0.46840  0.59150  0.48680  Biso   1.000  C
  H347     1.0000 0.45300  0.58680  0.46740  Biso   1.000  H
  C422     1.0000 0.56310  0.74030  0.49820  Biso   1.000  C
  H348     1.0000 0.56360  0.69290  0.50000  Biso   1.000  H
  H349     1.0000 0.54370  0.75200  0.48200  Biso   1.000  H
  Zn7      1.0000 0.72649  0.42524  0.65565  Biso   1.000  Zn
  Zn8      1.0000 0.59499  0.36133  0.47412  Biso   1.000  Zn
  N36      1.0000 0.67640  0.37310  0.64880  Biso   1.000  N
  C423     1.0000 0.65170  0.35200  0.64550  Biso   1.000  C
  C424     1.0000 0.61630  0.32250  0.63760  Biso   1.000  C
  H350     1.0000 0.59810  0.35160  0.64530  Biso   1.000  H
  H351     1.0000 0.61440  0.28140  0.64980  Biso   1.000  H
  H352     1.0000 0.61340  0.31520  0.61270  Biso   1.000  H
  C425     1.0000 0.69130  0.52950  0.97780  Biso   1.000  C
  H353     1.0000 0.69010  0.57070  0.98820  Biso   1.000  H
  C426     1.0000 0.66130  0.49340  0.97270  Biso   1.000  C
  H354     1.0000 0.63960  0.51000  0.97950  Biso   1.000  H
  C427     1.0000 0.66310  0.43310  0.95750  Biso   1.000  C
  C428     1.0000 0.69490  0.40890  0.94750  Biso   1.000  C
  C429     1.0000 0.72490  0.44500  0.95270  Biso   1.000  C
  C430     1.0000 0.72310  0.50530  0.96780  Biso   1.000  C
  H355     1.0000 0.74370  0.53000  0.97140  Biso   1.000  H
  O33      1.0000 0.69760  0.34420  0.94150  Biso   1.000  O
  C431     1.0000 0.70820  0.30760  0.97050  Biso   1.000  C
  H356     1.0000 0.73380  0.30900  0.97370  Biso   1.000  H
  H357     1.0000 0.69770  0.32490  0.99170  Biso   1.000  H
  C432     1.0000 0.69560  0.23610  0.96390  Biso   1.000  C
  C433     1.0000 0.71800  0.18600  0.95600  Biso   1.000  C
  H358     1.0000 0.74220  0.19360  0.95450  Biso   1.000  H
  C434     1.0000 0.70500  0.12680  0.95050  Biso   1.000  C
  H359     1.0000 0.71960  0.09250  0.94380  Biso   1.000  H
  C435     1.0000 0.66950  0.11690  0.95480  Biso   1.000  C
  H360     1.0000 0.66020  0.07590  0.94900  Biso   1.000  H
  N37      1.0000 0.64730  0.16210  0.96660  Biso   1.000  N
  C436     1.0000 0.66140  0.22410  0.97090  Biso   1.000  C
  H361     1.0000 0.64720  0.25800  0.97860  Biso   1.000  H
  C437     1.0000 0.75990  0.42400  0.94070  Biso   1.000  C
  H362     1.0000 0.77770  0.43180  0.95920  Biso   1.000  H
  H363     1.0000 0.75950  0.37750  0.93550  Biso   1.000  H
  C438     1.0000 0.79540  0.55440  0.88310  Biso   1.000  C
  H364     1.0000 0.80900  0.59220  0.88550  Biso   1.000  H
  C439     1.0000 0.78890  0.51680  0.91190  Biso   1.000  C
  H365     1.0000 0.79800  0.52900  0.93400  Biso   1.000  H
  C440     1.0000 0.76900  0.46150  0.90830  Biso   1.000  C
  C441     1.0000 0.75560  0.44360  0.87600  Biso   1.000  C
  C442     1.0000 0.76220  0.48120  0.84720  Biso   1.000  C
  C443     1.0000 0.78210  0.53660  0.85080  Biso   1.000  C
  H366     1.0000 0.78660  0.56220  0.83110  Biso   1.000  H
  O34      1.0000 0.73710  0.38970  0.87200  Biso   1.000  O
  C444     1.0000 0.69040  0.21110  0.87040  Biso   1.000  C
  H367     1.0000 0.66620  0.20770  0.87400  Biso   1.000  H
  C445     1.0000 0.70570  0.26990  0.86940  Biso   1.000  C
  H368     1.0000 0.69230  0.30800  0.87110  Biso   1.000  H
  C446     1.0000 0.73970  0.27250  0.86600  Biso   1.000  C
  C447     1.0000 0.75910  0.21880  0.86000  Biso   1.000  C
  H369     1.0000 0.78310  0.22320  0.85550  Biso   1.000  H
  N38      1.0000 0.74440  0.15810  0.86050  Biso   1.000  N
  C448     1.0000 0.71020  0.15590  0.86610  Biso   1.000  C
  H370     1.0000 0.69910  0.11530  0.86720  Biso   1.000  H
  C449     1.0000 0.76220  0.33750  0.86510  Biso   1.000  C
  H371     1.0000 0.77260  0.34330  0.84220  Biso   1.000  H
  H372     1.0000 0.78100  0.33660  0.88310  Biso   1.000  H
  C450     1.0000 0.74640  0.46440  0.81150  Biso   1.000  C
  H373     1.0000 0.76100  0.48380  0.79350  Biso   1.000  H
  H374     1.0000 0.74720  0.41730  0.80840  Biso   1.000  H
  C451     1.0000 0.67150  0.57900  0.79500  Biso   1.000  C
  H375     1.0000 0.66890  0.62350  0.79030  Biso   1.000  H
  C452     1.0000 0.70460  0.55260  0.79860  Biso   1.000  C
  H376     1.0000 0.72450  0.57910  0.79640  Biso   1.000  H
  C453     1.0000 0.70850  0.48750  0.80550  Biso   1.000  C
  C454     1.0000 0.67940  0.44880  0.80870  Biso   1.000  C
  C455     1.0000 0.64640  0.47510  0.80500  Biso   1.000  C
  C456     1.0000 0.64250  0.54020  0.79820  Biso   1.000  C
  H377     1.0000 0.61990  0.55820  0.79560  Biso   1.000  H
  O35      1.0000 0.68490  0.38380  0.81450  Biso   1.000  O
  C457     1.0000 0.67680  0.34560  0.78360  Biso   1.000  C
  H378     1.0000 0.65640  0.36400  0.77100  Biso   1.000  H
  H379     1.0000 0.67110  0.30100  0.79030  Biso   1.000  H
  C458     1.0000 0.70800  0.34550  0.76020  Biso   1.000  C
  C459     1.0000 0.73880  0.32010  0.76900  Biso   1.000  C
  H380     1.0000 0.74010  0.29360  0.78900  Biso   1.000  H
  C460     1.0000 0.76940  0.32920  0.75110  Biso   1.000  C
  H381     1.0000 0.79160  0.31530  0.75940  Biso   1.000  H
  C461     1.0000 0.76350  0.36330  0.71740  Biso   1.000  C
  H382     1.0000 0.78220  0.36750  0.70220  Biso   1.000  H
  N39      1.0000 0.73140  0.38880  0.70770  Biso   1.000  N
  C462     1.0000 0.70390  0.38210  0.72790  Biso   1.000  C
  H383     1.0000 0.68220  0.40070  0.72150  Biso   1.000  H
  C463     1.0000 0.61470  0.43850  0.81460  Biso   1.000  C
  H384     1.0000 0.59540  0.44890  0.79820  Biso   1.000  H
  H385     1.0000 0.61940  0.39190  0.81300  Biso   1.000  H
  C464     1.0000 0.58060  0.52940  0.89330  Biso   1.000  C
  H386     1.0000 0.56800  0.56740  0.89810  Biso   1.000  H
  C465     1.0000 0.58550  0.51090  0.85930  Biso   1.000  C
  H387     1.0000 0.57630  0.53630  0.84080  Biso   1.000  H
  C466     1.0000 0.60400  0.45530  0.85220  Biso   1.000  C
  C467     1.0000 0.61750  0.41820  0.87930  Biso   1.000  C
  C468     1.0000 0.61260  0.43660  0.91330  Biso   1.000  C
  C469     1.0000 0.59420  0.49220  0.92030  Biso   1.000  C
  H388     1.0000 0.59080  0.50480  0.94360  Biso   1.000  H
  O36      1.0000 0.63070  0.35770  0.87400  Biso   1.000  O
  C470     1.0000 0.60390  0.30820  0.86460  Biso   1.000  C
  H389     1.0000 0.61530  0.26900  0.85600  Biso   1.000  H
  H390     1.0000 0.58800  0.32480  0.84620  Biso   1.000  H
  C471     1.0000 0.58520  0.29370  0.89420  Biso   1.000  C
  C472     1.0000 0.55640  0.32780  0.90430  Biso   1.000  C
  H391     1.0000 0.54670  0.36050  0.88990  Biso   1.000  H
  C473     1.0000 0.54130  0.31270  0.93760  Biso   1.000  C
  H392     1.0000 0.52340  0.33840  0.94680  Biso   1.000  H
  C474     1.0000 0.55400  0.26010  0.95500  Biso   1.000  C
  H393     1.0000 0.54320  0.24910  0.97590  Biso   1.000  H
  N40      1.0000 0.58040  0.22260  0.94540  Biso   1.000  N
  C475     1.0000 0.59350  0.23930  0.91510  Biso   1.000  C
  H394     1.0000 0.61050  0.21120  0.90630  Biso   1.000  H
  C476     1.0000 0.63070  0.40160  0.94610  Biso   1.000  C
  H395     1.0000 0.63560  0.35640  0.94010  Biso   1.000  H
  H396     1.0000 0.61440  0.40150  0.96540  Biso   1.000  H
  C477     1.0000 0.62980  0.65740  0.95240  Biso   1.000  C
  H397     1.0000 0.63050  0.61880  0.93930  Biso   1.000  H
  C478     1.0000 0.59840  0.67990  0.96430  Biso   1.000  C
  H398     1.0000 0.57760  0.65670  0.95930  Biso   1.000  H
  C479     1.0000 0.59730  0.73630  0.98330  Biso   1.000  C
  C480     1.0000 0.62770  0.77030  0.99050  Biso   1.000  C
  C481     1.0000 0.65920  0.74780  0.97860  Biso   1.000  C
  C482     1.0000 0.66020  0.69140  0.95950  Biso   1.000  C
  H399     1.0000 0.68170  0.67600  0.95140  Biso   1.000  H
  O37      1.0000 0.62620  0.82590  0.01100  Biso   1.000  O
  C483     1.0000 0.62080  0.88240  0.98760  Biso   1.000  C
  H400     1.0000 0.59880  0.87740  0.97400  Biso   1.000  H
  H401     1.0000 0.64000  0.88530  0.97120  Biso   1.000  H
  C484     1.0000 0.61950  0.93840  0.00760  Biso   1.000  C
  C485     1.0000 0.62330  0.94430  0.04210  Biso   1.000  C
  H402     1.0000 0.62740  0.90630  0.05510  Biso   1.000  H
  C486     1.0000 0.62160  0.00090  0.05970  Biso   1.000  C
  H403     1.0000 0.62400  0.00320  0.08420  Biso   1.000  H
  C487     1.0000 0.61580  0.05640  0.03850  Biso   1.000  C
  H404     1.0000 0.61490  0.09730  0.04930  Biso   1.000  H
  N41      1.0000 0.61160  0.05330  0.00430  Biso   1.000  N
  C488     1.0000 0.61400  0.99580  0.99000  Biso   1.000  C
  H405     1.0000 0.61170  0.99350  0.96550  Biso   1.000  H
  C489     1.0000 0.69360  0.78420  0.98990  Biso   1.000  C
  H406     1.0000 0.68920  0.83080  0.99150  Biso   1.000  H
  H407     1.0000 0.71160  0.77720  0.97250  Biso   1.000  H
  C490     1.0000 0.73060  0.67290  0.06140  Biso   1.000  C
  H408     1.0000 0.74040  0.63120  0.06350  Biso   1.000  H
  C491     1.0000 0.72080  0.69660  0.02900  Biso   1.000  C
  H409     1.0000 0.72390  0.67110  0.00900  Biso   1.000  H
  C492     1.0000 0.70650  0.75760  0.02590  Biso   1.000  C
  C493     1.0000 0.70190  0.79490  0.05520  Biso   1.000  C
  C494     1.0000 0.71170  0.77120  0.08760  Biso   1.000  C
  C495     1.0000 0.72600  0.71020  0.09070  Biso   1.000  C
  H410     1.0000 0.73270  0.69390  0.11290  Biso   1.000  H
  O38      1.0000 0.69380  0.86270  0.05480  Biso   1.000  O
  C496     1.0000 0.72470  0.89930  0.04550  Biso   1.000  C
  H411     1.0000 0.72810  0.89760  0.02030  Biso   1.000  H
  H412     1.0000 0.74570  0.88180  0.05750  Biso   1.000  H
  C497     1.0000 0.71840  0.96500  0.05660  Biso   1.000  C
  C498     1.0000 0.70700  0.01590  0.03310  Biso   1.000  C
  H413     1.0000 0.70270  0.00600  0.00940  Biso   1.000  H
  C499     1.0000 0.70250  0.07760  0.04430  Biso   1.000  C
  H414     1.0000 0.69520  0.10960  0.02820  Biso   1.000  H
  C500     1.0000 0.70840  0.09410  0.07820  Biso   1.000  C
  H415     1.0000 0.70560  0.13730  0.08540  Biso   1.000  H
  N42      1.0000 0.71850  0.04760  0.10200  Biso   1.000  N
  C501     1.0000 0.72320  0.98240  0.09220  Biso   1.000  C
  H416     1.0000 0.72950  0.95090  0.10900  Biso   1.000  H
  C502     1.0000 0.70100  0.80670  0.12250  Biso   1.000  C
  H417     1.0000 0.69330  0.85100  0.11730  Biso   1.000  H
  H418     1.0000 0.72120  0.80880  0.13880  Biso   1.000  H
  C503     1.0000 0.64680  0.67340  0.16640  Biso   1.000  C
  H419     1.0000 0.65020  0.63390  0.17830  Biso   1.000  H
  C504     1.0000 0.67530  0.70940  0.15660  Biso   1.000  C
  H420     1.0000 0.69810  0.69450  0.16170  Biso   1.000  H
  C505     1.0000 0.67030  0.76730  0.13930  Biso   1.000  C
  C506     1.0000 0.63680  0.78910  0.13180  Biso   1.000  C
  C507     1.0000 0.60830  0.75310  0.14160  Biso   1.000  C
  C508     1.0000 0.61340  0.69530  0.15900  Biso   1.000  C
  H421     1.0000 0.59390  0.67070  0.16570  Biso   1.000  H
  O39      1.0000 0.62910  0.84830  0.11690  Biso   1.000  O
  C509     1.0000 0.62000  0.89900  0.14250  Biso   1.000  C
  H422     1.0000 0.60150  0.88260  0.15740  Biso   1.000  H
  H423     1.0000 0.61080  0.93700  0.12990  Biso   1.000  H
  C510     1.0000 0.64780  0.91700  0.16270  Biso   1.000  C
  C511     1.0000 0.66290  0.88230  0.19520  Biso   1.000  C
  H424     1.0000 0.65180  0.84580  0.20460  Biso   1.000  H
  C512     1.0000 0.69330  0.90700  0.20980  Biso   1.000  C
  H425     1.0000 0.70290  0.88510  0.22940  Biso   1.000  H
  C513     1.0000 0.70970  0.95670  0.19940  Biso   1.000  C
  H426     1.0000 0.73110  0.96800  0.21060  Biso   1.000  H
  N43      1.0000 0.69660  0.99580  0.17140  Biso   1.000  N
  C514     1.0000 0.66830  0.97620  0.15590  Biso   1.000  C
  H427     1.0000 0.65950  0.00290  0.13780  Biso   1.000  H
  C515     1.0000 0.56970  0.76930  0.13100  Biso   1.000  C
  H428     1.0000 0.56710  0.81640  0.12910  Biso   1.000  H
  H429     1.0000 0.55440  0.75440  0.14950  Biso   1.000  H
  C516     1.0000 0.54400  0.63760  0.06830  Biso   1.000  C
  H430     1.0000 0.53810  0.59350  0.06970  Biso   1.000  H
  C517     1.0000 0.54940  0.67320  0.09840  Biso   1.000  C
  H431     1.0000 0.54710  0.65340  0.12030  Biso   1.000  H
  C518     1.0000 0.55810  0.73780  0.09630  Biso   1.000  C
  C519     1.0000 0.56140  0.76680  0.06420  Biso   1.000  C
  C520     1.0000 0.55600  0.73120  0.03420  Biso   1.000  C
  C521     1.0000 0.54730  0.66660  0.03620  Biso   1.000  C
  H432     1.0000 0.54360  0.64230  0.01570  Biso   1.000  H
  O40      1.0000 0.56840  0.83180  0.06040  Biso   1.000  O
  C522     1.0000 0.54240  0.87360  0.07140  Biso   1.000  C
  C523     1.0000 0.50310  0.92410  0.98370  Biso   1.000  C
  C524     1.0000 0.52640  0.91660  0.01120  Biso   1.000  C
  H433     1.0000 0.54980  0.92960  0.00870  Biso   1.000  H
  C525     1.0000 0.51660  0.89040  0.04260  Biso   1.000  C
  C526     1.0000 0.48220  0.87730  0.04380  Biso   1.000  C
  H434     1.0000 0.47500  0.85980  0.06510  Biso   1.000  H
  N44      1.0000 0.45550  0.88520  0.01880  Biso   1.000  N
  C527     1.0000 0.46840  0.90850  0.98680  Biso   1.000  C
  H435     1.0000 0.45300  0.91320  0.96740  Biso   1.000  H
  C528     1.0000 0.56310  0.75970  0.99820  Biso   1.000  C
  H436     1.0000 0.56360  0.80710  0.00000  Biso   1.000  H
  H437     1.0000 0.54370  0.74800  0.98200  Biso   1.000  H
  Zn9      1.0000 0.72649  0.07476  0.15565  Biso   1.000  Zn
  Zn10     1.0000 0.59499  0.13867  0.97412  Biso   1.000  Zn
  N45      1.0000 0.67640  0.12690  0.14880  Biso   1.000  N
  C529     1.0000 0.65170  0.14800  0.14550  Biso   1.000  C
  C530     1.0000 0.61630  0.17750  0.13760  Biso   1.000  C
  H438     1.0000 0.59810  0.14840  0.14530  Biso   1.000  H
  H439     1.0000 0.61440  0.21860  0.14980  Biso   1.000  H
  H440     1.0000 0.61340  0.18480  0.11270  Biso   1.000  H
  C531     1.0000 0.19130  0.02950  0.47780  Biso   1.000  C
  H441     1.0000 0.19010  0.07070  0.48820  Biso   1.000  H
  C532     1.0000 0.16130  0.99340  0.47270  Biso   1.000  C
  H442     1.0000 0.13960  0.01000  0.47950  Biso   1.000  H
  C533     1.0000 0.16310  0.93310  0.45750  Biso   1.000  C
  C534     1.0000 0.19490  0.90890  0.44750  Biso   1.000  C
  C535     1.0000 0.22490  0.94500  0.45270  Biso   1.000  C
  C536     1.0000 0.22310  0.00530  0.46780  Biso   1.000  C
  H443     1.0000 0.24370  0.03000  0.47140  Biso   1.000  H
  O41      1.0000 0.19760  0.84420  0.44150  Biso   1.000  O
  C537     1.0000 0.20820  0.80760  0.47050  Biso   1.000  C
  H444     1.0000 0.23380  0.80900  0.47370  Biso   1.000  H
  H445     1.0000 0.19770  0.82490  0.49170  Biso   1.000  H
  C538     1.0000 0.19560  0.73610  0.46390  Biso   1.000  C
  C539     1.0000 0.21800  0.68600  0.45600  Biso   1.000  C
  H446     1.0000 0.24220  0.69360  0.45450  Biso   1.000  H
  C540     1.0000 0.20500  0.62680  0.45050  Biso   1.000  C
  H447     1.0000 0.21960  0.59250  0.44380  Biso   1.000  H
  C541     1.0000 0.16950  0.61690  0.45480  Biso   1.000  C
  H448     1.0000 0.16020  0.57590  0.44900  Biso   1.000  H
  N46      1.0000 0.14730  0.66210  0.46660  Biso   1.000  N
  C542     1.0000 0.16140  0.72410  0.47090  Biso   1.000  C
  H449     1.0000 0.14720  0.75800  0.47860  Biso   1.000  H
  C543     1.0000 0.25990  0.92400  0.44070  Biso   1.000  C
  H450     1.0000 0.27770  0.93180  0.45920  Biso   1.000  H
  H451     1.0000 0.25950  0.87750  0.43550  Biso   1.000  H
  C544     1.0000 0.29540  0.05440  0.38310  Biso   1.000  C
  H452     1.0000 0.30900  0.09220  0.38550  Biso   1.000  H
  C545     1.0000 0.28890  0.01680  0.41190  Biso   1.000  C
  H453     1.0000 0.29800  0.02900  0.43400  Biso   1.000  H
  C546     1.0000 0.26900  0.96150  0.40830  Biso   1.000  C
  C547     1.0000 0.25560  0.94360  0.37600  Biso   1.000  C
  C548     1.0000 0.26220  0.98120  0.34720  Biso   1.000  C
  C549     1.0000 0.28210  0.03660  0.35080  Biso   1.000  C
  H454     1.0000 0.28660  0.06220  0.33110  Biso   1.000  H
  O42      1.0000 0.23710  0.88970  0.37200  Biso   1.000  O
  C550     1.0000 0.19040  0.71110  0.37040  Biso   1.000  C
  H455     1.0000 0.16620  0.70770  0.37400  Biso   1.000  H
  C551     1.0000 0.20570  0.76990  0.36940  Biso   1.000  C
  H456     1.0000 0.19230  0.80800  0.37110  Biso   1.000  H
  C552     1.0000 0.23970  0.77250  0.36600  Biso   1.000  C
  C553     1.0000 0.25910  0.71880  0.36000  Biso   1.000  C
  H457     1.0000 0.28310  0.72320  0.35550  Biso   1.000  H
  N47      1.0000 0.24440  0.65810  0.36050  Biso   1.000  N
  C554     1.0000 0.21020  0.65590  0.36610  Biso   1.000  C
  H458     1.0000 0.19910  0.61530  0.36720  Biso   1.000  H
  C555     1.0000 0.26220  0.83750  0.36510  Biso   1.000  C
  H459     1.0000 0.27260  0.84330  0.34220  Biso   1.000  H
  H460     1.0000 0.28100  0.83660  0.38310  Biso   1.000  H
  C556     1.0000 0.24640  0.96440  0.31150  Biso   1.000  C
  H461     1.0000 0.26100  0.98380  0.29350  Biso   1.000  H
  H462     1.0000 0.24720  0.91730  0.30840  Biso   1.000  H
  C557     1.0000 0.17150  0.07900  0.29500  Biso   1.000  C
  H463     1.0000 0.16890  0.12350  0.29030  Biso   1.000  H
  C558     1.0000 0.20460  0.05260  0.29860  Biso   1.000  C
  H464     1.0000 0.22450  0.07910  0.29640  Biso   1.000  H
  C559     1.0000 0.20850  0.98750  0.30550  Biso   1.000  C
  C560     1.0000 0.17940  0.94880  0.30870  Biso   1.000  C
  C561     1.0000 0.14640  0.97510  0.30500  Biso   1.000  C
  C562     1.0000 0.14250  0.04020  0.29820  Biso   1.000  C
  H465     1.0000 0.11990  0.05820  0.29560  Biso   1.000  H
  O43      1.0000 0.18490  0.88380  0.31450  Biso   1.000  O
  C563     1.0000 0.17680  0.84560  0.28360  Biso   1.000  C
  H466     1.0000 0.15640  0.86400  0.27100  Biso   1.000  H
  H467     1.0000 0.17110  0.80100  0.29030  Biso   1.000  H
  C564     1.0000 0.20800  0.84550  0.26020  Biso   1.000  C
  C565     1.0000 0.23880  0.82010  0.26900  Biso   1.000  C
  H468     1.0000 0.24010  0.79360  0.28900  Biso   1.000  H
  C566     1.0000 0.26940  0.82920  0.25110  Biso   1.000  C
  H469     1.0000 0.29160  0.81530  0.25940  Biso   1.000  H
  C567     1.0000 0.26350  0.86330  0.21740  Biso   1.000  C
  H470     1.0000 0.28220  0.86750  0.20220  Biso   1.000  H
  N48      1.0000 0.23140  0.88880  0.20770  Biso   1.000  N
  C568     1.0000 0.20390  0.88210  0.22790  Biso   1.000  C
  H471     1.0000 0.18220  0.90070  0.22150  Biso   1.000  H
  C569     1.0000 0.11470  0.93850  0.31460  Biso   1.000  C
  H472     1.0000 0.09540  0.94890  0.29820  Biso   1.000  H
  H473     1.0000 0.11940  0.89190  0.31300  Biso   1.000  H
  C570     1.0000 0.08060  0.02940  0.39330  Biso   1.000  C
  H474     1.0000 0.06800  0.06740  0.39810  Biso   1.000  H
  C571     1.0000 0.08550  0.01090  0.35930  Biso   1.000  C
  H475     1.0000 0.07630  0.03630  0.34080  Biso   1.000  H
  C572     1.0000 0.10400  0.95530  0.35220  Biso   1.000  C
  C573     1.0000 0.11750  0.91820  0.37930  Biso   1.000  C
  C574     1.0000 0.11260  0.93660  0.41330  Biso   1.000  C
  C575     1.0000 0.09420  0.99220  0.42030  Biso   1.000  C
  H476     1.0000 0.09080  0.00480  0.44360  Biso   1.000  H
  O44      1.0000 0.13070  0.85770  0.37400  Biso   1.000  O
  C576     1.0000 0.10390  0.80820  0.36460  Biso   1.000  C
  H477     1.0000 0.11530  0.76900  0.35600  Biso   1.000  H
  H478     1.0000 0.08800  0.82480  0.34620  Biso   1.000  H
  C577     1.0000 0.08520  0.79370  0.39420  Biso   1.000  C
  C578     1.0000 0.05640  0.82780  0.40430  Biso   1.000  C
  H479     1.0000 0.04670  0.86050  0.38990  Biso   1.000  H
  C579     1.0000 0.04130  0.81270  0.43760  Biso   1.000  C
  H480     1.0000 0.02340  0.83840  0.44680  Biso   1.000  H
  C580     1.0000 0.05400  0.76010  0.45500  Biso   1.000  C
  H481     1.0000 0.04320  0.74910  0.47590  Biso   1.000  H
  N49      1.0000 0.08040  0.72260  0.44540  Biso   1.000  N
  C581     1.0000 0.09350  0.73930  0.41510  Biso   1.000  C
  H482     1.0000 0.11050  0.71120  0.40630  Biso   1.000  H
  C582     1.0000 0.13070  0.90160  0.44610  Biso   1.000  C
  H483     1.0000 0.13560  0.85640  0.44010  Biso   1.000  H
  H484     1.0000 0.11440  0.90150  0.46540  Biso   1.000  H
  C583     1.0000 0.12980  0.15740  0.45240  Biso   1.000  C
  H485     1.0000 0.13050  0.11880  0.43930  Biso   1.000  H
  C584     1.0000 0.09840  0.17990  0.46430  Biso   1.000  C
  H486     1.0000 0.07760  0.15670  0.45930  Biso   1.000  H
  C585     1.0000 0.09730  0.23630  0.48330  Biso   1.000  C
  C586     1.0000 0.12770  0.27030  0.49050  Biso   1.000  C
  C587     1.0000 0.15920  0.24780  0.47860  Biso   1.000  C
  C588     1.0000 0.16020  0.19140  0.45950  Biso   1.000  C
  H487     1.0000 0.18170  0.17600  0.45140  Biso   1.000  H
  O45      1.0000 0.12620  0.32590  0.51100  Biso   1.000  O
  C589     1.0000 0.12080  0.38240  0.48760  Biso   1.000  C
  H488     1.0000 0.09880  0.37740  0.47400  Biso   1.000  H
  H489     1.0000 0.14000  0.38530  0.47120  Biso   1.000  H
  C590     1.0000 0.11950  0.43840  0.50760  Biso   1.000  C
  C591     1.0000 0.12330  0.44430  0.54210  Biso   1.000  C
  H490     1.0000 0.12740  0.40630  0.55510  Biso   1.000  H
  C592     1.0000 0.12160  0.50090  0.55970  Biso   1.000  C
  H491     1.0000 0.12400  0.50320  0.58420  Biso   1.000  H
  C593     1.0000 0.11580  0.55640  0.53850  Biso   1.000  C
  H492     1.0000 0.11490  0.59730  0.54930  Biso   1.000  H
  N50      1.0000 0.11160  0.55330  0.50430  Biso   1.000  N
  C594     1.0000 0.11400  0.49580  0.49000  Biso   1.000  C
  H493     1.0000 0.11170  0.49350  0.46550  Biso   1.000  H
  C595     1.0000 0.19360  0.28420  0.48990  Biso   1.000  C
  H494     1.0000 0.18920  0.33080  0.49150  Biso   1.000  H
  H495     1.0000 0.21160  0.27720  0.47250  Biso   1.000  H
  C596     1.0000 0.23060  0.17290  0.56140  Biso   1.000  C
  H496     1.0000 0.24040  0.13120  0.56350  Biso   1.000  H
  C597     1.0000 0.22080  0.19660  0.52900  Biso   1.000  C
  H497     1.0000 0.22390  0.17110  0.50900  Biso   1.000  H
  C598     1.0000 0.20650  0.25760  0.52590  Biso   1.000  C
  C599     1.0000 0.20190  0.29490  0.55520  Biso   1.000  C
  C600     1.0000 0.21170  0.27120  0.58760  Biso   1.000  C
  C601     1.0000 0.22600  0.21020  0.59070  Biso   1.000  C
  H498     1.0000 0.23270  0.19390  0.61290  Biso   1.000  H
  O46      1.0000 0.19380  0.36270  0.55480  Biso   1.000  O
  C602     1.0000 0.22470  0.39930  0.54550  Biso   1.000  C
  H499     1.0000 0.22810  0.39760  0.52030  Biso   1.000  H
  H500     1.0000 0.24570  0.38180  0.55750  Biso   1.000  H
  C603     1.0000 0.21840  0.46500  0.55660  Biso   1.000  C
  C604     1.0000 0.20700  0.51590  0.53310  Biso   1.000  C
  H501     1.0000 0.20270  0.50600  0.50940  Biso   1.000  H
  C605     1.0000 0.20250  0.57760  0.54430  Biso   1.000  C
  H502     1.0000 0.19520  0.60960  0.52820  Biso   1.000  H
  C606     1.0000 0.20840  0.59410  0.57820  Biso   1.000  C
  H503     1.0000 0.20560  0.63730  0.58540  Biso   1.000  H
  N51      1.0000 0.21850  0.54760  0.60200  Biso   1.000  N
  C607     1.0000 0.22320  0.48240  0.59220  Biso   1.000  C
  H504     1.0000 0.22950  0.45090  0.60900  Biso   1.000  H
  C608     1.0000 0.20100  0.30670  0.62250  Biso   1.000  C
  H505     1.0000 0.19330  0.35100  0.61730  Biso   1.000  H
  H506     1.0000 0.22120  0.30880  0.63880  Biso   1.000  H
  C609     1.0000 0.14680  0.17340  0.66640  Biso   1.000  C
  H507     1.0000 0.15020  0.13390  0.67830  Biso   1.000  H
  C610     1.0000 0.17530  0.20940  0.65660  Biso   1.000  C
  H508     1.0000 0.19810  0.19450  0.66170  Biso   1.000  H
  C611     1.0000 0.17030  0.26730  0.63930  Biso   1.000  C
  C612     1.0000 0.13680  0.28910  0.63180  Biso   1.000  C
  C613     1.0000 0.10830  0.25310  0.64160  Biso   1.000  C
  C614     1.0000 0.11340  0.19530  0.65900  Biso   1.000  C
  H509     1.0000 0.09390  0.17070  0.66570  Biso   1.000  H
  O47      1.0000 0.12910  0.34830  0.61690  Biso   1.000  O
  C615     1.0000 0.12000  0.39900  0.64250  Biso   1.000  C
  H510     1.0000 0.10150  0.38260  0.65740  Biso   1.000  H
  H511     1.0000 0.11080  0.43700  0.62990  Biso   1.000  H
  C616     1.0000 0.14780  0.41700  0.66270  Biso   1.000  C
  C617     1.0000 0.16290  0.38230  0.69520  Biso   1.000  C
  H512     1.0000 0.15180  0.34580  0.70460  Biso   1.000  H
  C618     1.0000 0.19330  0.40700  0.70980  Biso   1.000  C
  H513     1.0000 0.20290  0.38510  0.72940  Biso   1.000  H
  C619     1.0000 0.20970  0.45670  0.69940  Biso   1.000  C
  H514     1.0000 0.23110  0.46800  0.71060  Biso   1.000  H
  N52      1.0000 0.19660  0.49580  0.67140  Biso   1.000  N
  C620     1.0000 0.16830  0.47620  0.65590  Biso   1.000  C
  H515     1.0000 0.15950  0.50290  0.63780  Biso   1.000  H
  C621     1.0000 0.06970  0.26930  0.63100  Biso   1.000  C
  H516     1.0000 0.06710  0.31640  0.62910  Biso   1.000  H
  H517     1.0000 0.05440  0.25440  0.64950  Biso   1.000  H
  C622     1.0000 0.04400  0.13760  0.56830  Biso   1.000  C
  H518     1.0000 0.03810  0.09350  0.56970  Biso   1.000  H
  C623     1.0000 0.04940  0.17320  0.59840  Biso   1.000  C
  H519     1.0000 0.04710  0.15340  0.62030  Biso   1.000  H
  C624     1.0000 0.05810  0.23780  0.59630  Biso   1.000  C
  C625     1.0000 0.06140  0.26680  0.56420  Biso   1.000  C
  C626     1.0000 0.05600  0.23120  0.53420  Biso   1.000  C
  C627     1.0000 0.04730  0.16660  0.53620  Biso   1.000  C
  H520     1.0000 0.04360  0.14230  0.51570  Biso   1.000  H
  O48      1.0000 0.06840  0.33180  0.56040  Biso   1.000  O
  C628     1.0000 0.04240  0.37360  0.57140  Biso   1.000  C
  C629     1.0000 0.00310  0.42410  0.48370  Biso   1.000  C
  C630     1.0000 0.02640  0.41660  0.51120  Biso   1.000  C
  H521     1.0000 0.04980  0.42960  0.50870  Biso   1.000  H
  C631     1.0000 0.01660  0.39040  0.54260  Biso   1.000  C
  C632     1.0000 0.98220  0.37730  0.54380  Biso   1.000  C
  H522     1.0000 0.97500  0.35980  0.56510  Biso   1.000  H
  N53      1.0000 0.95550  0.38520  0.51880  Biso   1.000  N
  C633     1.0000 0.96840  0.40850  0.48680  Biso   1.000  C
  H523     1.0000 0.95300  0.41320  0.46740  Biso   1.000  H
  C634     1.0000 0.06310  0.25970  0.49820  Biso   1.000  C
  H524     1.0000 0.06360  0.30710  0.50000  Biso   1.000  H
  H525     1.0000 0.04370  0.24800  0.48200  Biso   1.000  H
  Zn11     1.0000 0.22649  0.57476  0.65565  Biso   1.000  Zn
  Zn12     1.0000 0.09499  0.63867  0.47412  Biso   1.000  Zn
  N54      1.0000 0.17640  0.62690  0.64880  Biso   1.000  N
  C635     1.0000 0.15170  0.64800  0.64550  Biso   1.000  C
  C636     1.0000 0.11630  0.67750  0.63760  Biso   1.000  C
  H526     1.0000 0.09810  0.64840  0.64530  Biso   1.000  H
  H527     1.0000 0.11440  0.71860  0.64980  Biso   1.000  H
  H528     1.0000 0.11340  0.68480  0.61270  Biso   1.000  H
  C637     1.0000 0.80870  0.52950  0.02220  Biso   1.000  C
  H529     1.0000 0.80990  0.57070  0.01180  Biso   1.000  H
  C638     1.0000 0.83870  0.49340  0.02730  Biso   1.000  C
  H530     1.0000 0.86040  0.51000  0.02050  Biso   1.000  H
  C639     1.0000 0.83690  0.43310  0.04250  Biso   1.000  C
  C640     1.0000 0.80510  0.40890  0.05250  Biso   1.000  C
  C641     1.0000 0.77510  0.44500  0.04730  Biso   1.000  C
  C642     1.0000 0.77690  0.50530  0.03220  Biso   1.000  C
  H531     1.0000 0.75630  0.53000  0.02860  Biso   1.000  H
  O49      1.0000 0.80240  0.34420  0.05850  Biso   1.000  O
  C643     1.0000 0.79180  0.30760  0.02950  Biso   1.000  C
  H532     1.0000 0.76620  0.30900  0.02630  Biso   1.000  H
  H533     1.0000 0.80230  0.32490  0.00830  Biso   1.000  H
  C644     1.0000 0.80440  0.23610  0.03610  Biso   1.000  C
  C645     1.0000 0.78200  0.18600  0.04400  Biso   1.000  C
  H534     1.0000 0.75780  0.19360  0.04550  Biso   1.000  H
  C646     1.0000 0.79500  0.12680  0.04950  Biso   1.000  C
  H535     1.0000 0.78040  0.09250  0.05620  Biso   1.000  H
  C647     1.0000 0.83050  0.11690  0.04520  Biso   1.000  C
  H536     1.0000 0.83980  0.07590  0.05100  Biso   1.000  H
  N55      1.0000 0.85270  0.16210  0.03340  Biso   1.000  N
  C648     1.0000 0.83860  0.22410  0.02910  Biso   1.000  C
  H537     1.0000 0.85280  0.25800  0.02140  Biso   1.000  H
  C649     1.0000 0.74010  0.42400  0.05930  Biso   1.000  C
  H538     1.0000 0.72230  0.43180  0.04080  Biso   1.000  H
  H539     1.0000 0.74050  0.37750  0.06450  Biso   1.000  H
  C650     1.0000 0.70460  0.55440  0.11690  Biso   1.000  C
  H540     1.0000 0.69100  0.59220  0.11450  Biso   1.000  H
  C651     1.0000 0.71110  0.51680  0.08810  Biso   1.000  C
  H541     1.0000 0.70200  0.52900  0.06600  Biso   1.000  H
  C652     1.0000 0.73100  0.46150  0.09170  Biso   1.000  C
  C653     1.0000 0.74440  0.44360  0.12400  Biso   1.000  C
  C654     1.0000 0.73780  0.48120  0.15280  Biso   1.000  C
  C655     1.0000 0.71790  0.53660  0.14920  Biso   1.000  C
  H542     1.0000 0.71340  0.56220  0.16890  Biso   1.000  H
  O50      1.0000 0.76290  0.38970  0.12800  Biso   1.000  O
  C656     1.0000 0.80960  0.21110  0.12960  Biso   1.000  C
  H543     1.0000 0.83380  0.20770  0.12600  Biso   1.000  H
  C657     1.0000 0.79430  0.26990  0.13060  Biso   1.000  C
  H544     1.0000 0.80770  0.30800  0.12890  Biso   1.000  H
  C658     1.0000 0.76030  0.27250  0.13400  Biso   1.000  C
  C659     1.0000 0.74090  0.21880  0.14000  Biso   1.000  C
  H545     1.0000 0.71690  0.22320  0.14450  Biso   1.000  H
  N56      1.0000 0.75560  0.15810  0.13950  Biso   1.000  N
  C660     1.0000 0.78980  0.15590  0.13390  Biso   1.000  C
  H546     1.0000 0.80090  0.11530  0.13280  Biso   1.000  H
  C661     1.0000 0.73780  0.33750  0.13490  Biso   1.000  C
  H547     1.0000 0.72740  0.34330  0.15780  Biso   1.000  H
  H548     1.0000 0.71900  0.33660  0.11690  Biso   1.000  H
  C662     1.0000 0.75360  0.46440  0.18850  Biso   1.000  C
  H549     1.0000 0.73900  0.48380  0.20650  Biso   1.000  H
  H550     1.0000 0.75280  0.41730  0.19160  Biso   1.000  H
  C663     1.0000 0.82850  0.57900  0.20500  Biso   1.000  C
  H551     1.0000 0.83110  0.62350  0.20970  Biso   1.000  H
  C664     1.0000 0.79540  0.55260  0.20140  Biso   1.000  C
  H552     1.0000 0.77550  0.57910  0.20360  Biso   1.000  H
  C665     1.0000 0.79150  0.48750  0.19450  Biso   1.000  C
  C666     1.0000 0.82060  0.44880  0.19130  Biso   1.000  C
  C667     1.0000 0.85360  0.47510  0.19500  Biso   1.000  C
  C668     1.0000 0.85750  0.54020  0.20180  Biso   1.000  C
  H553     1.0000 0.88010  0.55820  0.20440  Biso   1.000  H
  O51      1.0000 0.81510  0.38380  0.18550  Biso   1.000  O
  C669     1.0000 0.82320  0.34560  0.21640  Biso   1.000  C
  H554     1.0000 0.84360  0.36400  0.22900  Biso   1.000  H
  H555     1.0000 0.82890  0.30100  0.20970  Biso   1.000  H
  C670     1.0000 0.79200  0.34550  0.23980  Biso   1.000  C
  C671     1.0000 0.76120  0.32010  0.23100  Biso   1.000  C
  H556     1.0000 0.75990  0.29360  0.21100  Biso   1.000  H
  C672     1.0000 0.73060  0.32920  0.24890  Biso   1.000  C
  H557     1.0000 0.70840  0.31530  0.24060  Biso   1.000  H
  C673     1.0000 0.73650  0.36330  0.28260  Biso   1.000  C
  H558     1.0000 0.71780  0.36750  0.29780  Biso   1.000  H
  N57      1.0000 0.76860  0.38880  0.29230  Biso   1.000  N
  C674     1.0000 0.79610  0.38210  0.27210  Biso   1.000  C
  H559     1.0000 0.81780  0.40070  0.27850  Biso   1.000  H
  C675     1.0000 0.88530  0.43850  0.18540  Biso   1.000  C
  H560     1.0000 0.90460  0.44890  0.20180  Biso   1.000  H
  H561     1.0000 0.88060  0.39190  0.18700  Biso   1.000  H
  C676     1.0000 0.91940  0.52940  0.10670  Biso   1.000  C
  H562     1.0000 0.93200  0.56740  0.10190  Biso   1.000  H
  C677     1.0000 0.91450  0.51090  0.14070  Biso   1.000  C
  H563     1.0000 0.92370  0.53630  0.15920  Biso   1.000  H
  C678     1.0000 0.89600  0.45530  0.14780  Biso   1.000  C
  C679     1.0000 0.88250  0.41820  0.12070  Biso   1.000  C
  C680     1.0000 0.88740  0.43660  0.08670  Biso   1.000  C
  C681     1.0000 0.90580  0.49220  0.07970  Biso   1.000  C
  H564     1.0000 0.90920  0.50480  0.05640  Biso   1.000  H
  O52      1.0000 0.86930  0.35770  0.12600  Biso   1.000  O
  C682     1.0000 0.89610  0.30820  0.13540  Biso   1.000  C
  H565     1.0000 0.88470  0.26900  0.14400  Biso   1.000  H
  H566     1.0000 0.91200  0.32480  0.15380  Biso   1.000  H
  C683     1.0000 0.91480  0.29370  0.10580  Biso   1.000  C
  C684     1.0000 0.94360  0.32780  0.09570  Biso   1.000  C
  H567     1.0000 0.95330  0.36050  0.11010  Biso   1.000  H
  C685     1.0000 0.95870  0.31270  0.06240  Biso   1.000  C
  H568     1.0000 0.97660  0.33840  0.05320  Biso   1.000  H
  C686     1.0000 0.94600  0.26010  0.04500  Biso   1.000  C
  H569     1.0000 0.95680  0.24910  0.02410  Biso   1.000  H
  N58      1.0000 0.91960  0.22260  0.05460  Biso   1.000  N
  C687     1.0000 0.90650  0.23930  0.08490  Biso   1.000  C
  H570     1.0000 0.88950  0.21120  0.09370  Biso   1.000  H
  C688     1.0000 0.86930  0.40160  0.05390  Biso   1.000  C
  H571     1.0000 0.86440  0.35640  0.05990  Biso   1.000  H
  H572     1.0000 0.88560  0.40150  0.03460  Biso   1.000  H
  C689     1.0000 0.87020  0.65740  0.04760  Biso   1.000  C
  H573     1.0000 0.86950  0.61880  0.06070  Biso   1.000  H
  C690     1.0000 0.90160  0.67990  0.03570  Biso   1.000  C
  H574     1.0000 0.92240  0.65670  0.04070  Biso   1.000  H
  C691     1.0000 0.90270  0.73630  0.01670  Biso   1.000  C
  C692     1.0000 0.87230  0.77030  0.00950  Biso   1.000  C
  C693     1.0000 0.84080  0.74780  0.02140  Biso   1.000  C
  C694     1.0000 0.83980  0.69140  0.04050  Biso   1.000  C
  H575     1.0000 0.81830  0.67600  0.04860  Biso   1.000  H
  O53      1.0000 0.87380  0.82590  0.98900  Biso   1.000  O
  C695     1.0000 0.87920  0.88240  0.01240  Biso   1.000  C
  H576     1.0000 0.90120  0.87740  0.02600  Biso   1.000  H
  H577     1.0000 0.86000  0.88530  0.02880  Biso   1.000  H
  C696     1.0000 0.88050  0.93840  0.99240  Biso   1.000  C
  C697     1.0000 0.87670  0.94430  0.95790  Biso   1.000  C
  H578     1.0000 0.87260  0.90630  0.94490  Biso   1.000  H
  C698     1.0000 0.87840  0.00090  0.94030  Biso   1.000  C
  H579     1.0000 0.87600  0.00320  0.91580  Biso   1.000  H
  C699     1.0000 0.88420  0.05640  0.96150  Biso   1.000  C
  H580     1.0000 0.88510  0.09730  0.95070  Biso   1.000  H
  N59      1.0000 0.88840  0.05330  0.99570  Biso   1.000  N
  C700     1.0000 0.88600  0.99580  0.01000  Biso   1.000  C
  H581     1.0000 0.88830  0.99350  0.03450  Biso   1.000  H
  C701     1.0000 0.80640  0.78420  0.01010  Biso   1.000  C
  H582     1.0000 0.81080  0.83080  0.00850  Biso   1.000  H
  H583     1.0000 0.78840  0.77720  0.02750  Biso   1.000  H
  C702     1.0000 0.76940  0.67290  0.93860  Biso   1.000  C
  H584     1.0000 0.75960  0.63120  0.93650  Biso   1.000  H
  C703     1.0000 0.77920  0.69660  0.97100  Biso   1.000  C
  H585     1.0000 0.77610  0.67110  0.99100  Biso   1.000  H
  C704     1.0000 0.79350  0.75760  0.97410  Biso   1.000  C
  C705     1.0000 0.79810  0.79490  0.94480  Biso   1.000  C
  C706     1.0000 0.78830  0.77120  0.91240  Biso   1.000  C
  C707     1.0000 0.77400  0.71020  0.90930  Biso   1.000  C
  H586     1.0000 0.76730  0.69390  0.88710  Biso   1.000  H
  O54      1.0000 0.80620  0.86270  0.94520  Biso   1.000  O
  C708     1.0000 0.77530  0.89930  0.95450  Biso   1.000  C
  H587     1.0000 0.77190  0.89760  0.97970  Biso   1.000  H
  H588     1.0000 0.75430  0.88180  0.94250  Biso   1.000  H
  C709     1.0000 0.78160  0.96500  0.94340  Biso   1.000  C
  C710     1.0000 0.79300  0.01590  0.96690  Biso   1.000  C
  H589     1.0000 0.79730  0.00600  0.99060  Biso   1.000  H
  C711     1.0000 0.79750  0.07760  0.95570  Biso   1.000  C
  H590     1.0000 0.80480  0.10960  0.97180  Biso   1.000  H
  C712     1.0000 0.79160  0.09410  0.92180  Biso   1.000  C
  H591     1.0000 0.79440  0.13730  0.91460  Biso   1.000  H
  N60      1.0000 0.78150  0.04760  0.89800  Biso   1.000  N
  C713     1.0000 0.77680  0.98240  0.90780  Biso   1.000  C
  H592     1.0000 0.77050  0.95090  0.89100  Biso   1.000  H
  C714     1.0000 0.79900  0.80670  0.87750  Biso   1.000  C
  H593     1.0000 0.80670  0.85100  0.88270  Biso   1.000  H
  H594     1.0000 0.77880  0.80880  0.86120  Biso   1.000  H
  C715     1.0000 0.85320  0.67340  0.83360  Biso   1.000  C
  H595     1.0000 0.84980  0.63390  0.82170  Biso   1.000  H
  C716     1.0000 0.82470  0.70940  0.84340  Biso   1.000  C
  H596     1.0000 0.80190  0.69450  0.83830  Biso   1.000  H
  C717     1.0000 0.82970  0.76730  0.86070  Biso   1.000  C
  C718     1.0000 0.86320  0.78910  0.86820  Biso   1.000  C
  C719     1.0000 0.89170  0.75310  0.85840  Biso   1.000  C
  C720     1.0000 0.88660  0.69530  0.84100  Biso   1.000  C
  H597     1.0000 0.90610  0.67070  0.83430  Biso   1.000  H
  O55      1.0000 0.87090  0.84830  0.88310  Biso   1.000  O
  C721     1.0000 0.88000  0.89900  0.85750  Biso   1.000  C
  H598     1.0000 0.89850  0.88260  0.84260  Biso   1.000  H
  H599     1.0000 0.88920  0.93700  0.87010  Biso   1.000  H
  C722     1.0000 0.85220  0.91700  0.83730  Biso   1.000  C
  C723     1.0000 0.83710  0.88230  0.80480  Biso   1.000  C
  H600     1.0000 0.84820  0.84580  0.79540  Biso   1.000  H
  C724     1.0000 0.80670  0.90700  0.79020  Biso   1.000  C
  H601     1.0000 0.79710  0.88510  0.77060  Biso   1.000  H
  C725     1.0000 0.79030  0.95670  0.80060  Biso   1.000  C
  H602     1.0000 0.76890  0.96800  0.78940  Biso   1.000  H
  N61      1.0000 0.80340  0.99580  0.82860  Biso   1.000  N
  C726     1.0000 0.83170  0.97620  0.84410  Biso   1.000  C
  H603     1.0000 0.84050  0.00290  0.86220  Biso   1.000  H
  C727     1.0000 0.93030  0.76930  0.86900  Biso   1.000  C
  H604     1.0000 0.93290  0.81640  0.87090  Biso   1.000  H
  H605     1.0000 0.94560  0.75440  0.85050  Biso   1.000  H
  C728     1.0000 0.95600  0.63760  0.93170  Biso   1.000  C
  H606     1.0000 0.96190  0.59350  0.93030  Biso   1.000  H
  C729     1.0000 0.95060  0.67320  0.90160  Biso   1.000  C
  H607     1.0000 0.95290  0.65340  0.87970  Biso   1.000  H
  C730     1.0000 0.94190  0.73780  0.90370  Biso   1.000  C
  C731     1.0000 0.93860  0.76680  0.93580  Biso   1.000  C
  C732     1.0000 0.94400  0.73120  0.96580  Biso   1.000  C
  C733     1.0000 0.95270  0.66660  0.96380  Biso   1.000  C
  H608     1.0000 0.95640  0.64230  0.98430  Biso   1.000  H
  O56      1.0000 0.93160  0.83180  0.93960  Biso   1.000  O
  C734     1.0000 0.95760  0.87360  0.92860  Biso   1.000  C
  C735     1.0000 0.99690  0.92410  0.01630  Biso   1.000  C
  C736     1.0000 0.97360  0.91660  0.98880  Biso   1.000  C
  H609     1.0000 0.95020  0.92960  0.99130  Biso   1.000  H
  C737     1.0000 0.98340  0.89040  0.95740  Biso   1.000  C
  C738     1.0000 0.01780  0.87730  0.95620  Biso   1.000  C
  H610     1.0000 0.02500  0.85980  0.93490  Biso   1.000  H
  N62      1.0000 0.04450  0.88520  0.98120  Biso   1.000  N
  C739     1.0000 0.03160  0.90850  0.01320  Biso   1.000  C
  H611     1.0000 0.04700  0.91320  0.03260  Biso   1.000  H
  C740     1.0000 0.93690  0.75970  0.00180  Biso   1.000  C
  H612     1.0000 0.93640  0.80710  0.00000  Biso   1.000  H
  H613     1.0000 0.95630  0.74800  0.01800  Biso   1.000  H
  Zn13     1.0000 0.77351  0.07476  0.84435  Biso   1.000  Zn
  Zn14     1.0000 0.90501  0.13867  0.02588  Biso   1.000  Zn
  N63      1.0000 0.82360  0.12690  0.85120  Biso   1.000  N
  C741     1.0000 0.84830  0.14800  0.85450  Biso   1.000  C
  C742     1.0000 0.88370  0.17750  0.86240  Biso   1.000  C
  H614     1.0000 0.90190  0.14840  0.85470  Biso   1.000  H
  H615     1.0000 0.88560  0.21860  0.85020  Biso   1.000  H
  H616     1.0000 0.88660  0.18480  0.88730  Biso   1.000  H
  C743     1.0000 0.30870  0.02950  0.52220  Biso   1.000  C
  H617     1.0000 0.30990  0.07070  0.51180  Biso   1.000  H
  C744     1.0000 0.33870  0.99340  0.52730  Biso   1.000  C
  H618     1.0000 0.36040  0.01000  0.52050  Biso   1.000  H
  C745     1.0000 0.33690  0.93310  0.54250  Biso   1.000  C
  C746     1.0000 0.30510  0.90890  0.55250  Biso   1.000  C
  C747     1.0000 0.27510  0.94500  0.54730  Biso   1.000  C
  C748     1.0000 0.27690  0.00530  0.53220  Biso   1.000  C
  H619     1.0000 0.25630  0.03000  0.52860  Biso   1.000  H
  O57      1.0000 0.30240  0.84420  0.55850  Biso   1.000  O
  C749     1.0000 0.29180  0.80760  0.52950  Biso   1.000  C
  H620     1.0000 0.26620  0.80900  0.52630  Biso   1.000  H
  H621     1.0000 0.30230  0.82490  0.50830  Biso   1.000  H
  C750     1.0000 0.30440  0.73610  0.53610  Biso   1.000  C
  C751     1.0000 0.28200  0.68600  0.54400  Biso   1.000  C
  H622     1.0000 0.25780  0.69360  0.54550  Biso   1.000  H
  C752     1.0000 0.29500  0.62680  0.54950  Biso   1.000  C
  H623     1.0000 0.28040  0.59250  0.55620  Biso   1.000  H
  C753     1.0000 0.33050  0.61690  0.54520  Biso   1.000  C
  H624     1.0000 0.33980  0.57590  0.55100  Biso   1.000  H
  N64      1.0000 0.35270  0.66210  0.53340  Biso   1.000  N
  C754     1.0000 0.33860  0.72410  0.52910  Biso   1.000  C
  H625     1.0000 0.35280  0.75800  0.52140  Biso   1.000  H
  C755     1.0000 0.24010  0.92400  0.55930  Biso   1.000  C
  H626     1.0000 0.22230  0.93180  0.54080  Biso   1.000  H
  H627     1.0000 0.24050  0.87750  0.56450  Biso   1.000  H
  C756     1.0000 0.20460  0.05440  0.61690  Biso   1.000  C
  H628     1.0000 0.19100  0.09220  0.61450  Biso   1.000  H
  C757     1.0000 0.21110  0.01680  0.58810  Biso   1.000  C
  H629     1.0000 0.20200  0.02900  0.56600  Biso   1.000  H
  C758     1.0000 0.23100  0.96150  0.59170  Biso   1.000  C
  C759     1.0000 0.24440  0.94360  0.62400  Biso   1.000  C
  C760     1.0000 0.23780  0.98120  0.65280  Biso   1.000  C
  C761     1.0000 0.21790  0.03660  0.64920  Biso   1.000  C
  H630     1.0000 0.21340  0.06220  0.66890  Biso   1.000  H
  O58      1.0000 0.26290  0.88970  0.62800  Biso   1.000  O
  C762     1.0000 0.30960  0.71110  0.62960  Biso   1.000  C
  H631     1.0000 0.33380  0.70770  0.62600  Biso   1.000  H
  C763     1.0000 0.29430  0.76990  0.63060  Biso   1.000  C
  H632     1.0000 0.30770  0.80800  0.62890  Biso   1.000  H
  C764     1.0000 0.26030  0.77250  0.63400  Biso   1.000  C
  C765     1.0000 0.24090  0.71880  0.64000  Biso   1.000  C
  H633     1.0000 0.21690  0.72320  0.64450  Biso   1.000  H
  N65      1.0000 0.25560  0.65810  0.63950  Biso   1.000  N
  C766     1.0000 0.28980  0.65590  0.63390  Biso   1.000  C
  H634     1.0000 0.30090  0.61530  0.63280  Biso   1.000  H
  C767     1.0000 0.23780  0.83750  0.63490  Biso   1.000  C
  H635     1.0000 0.22740  0.84330  0.65780  Biso   1.000  H
  H636     1.0000 0.21900  0.83660  0.61690  Biso   1.000  H
  C768     1.0000 0.25360  0.96440  0.68850  Biso   1.000  C
  H637     1.0000 0.23900  0.98380  0.70650  Biso   1.000  H
  H638     1.0000 0.25280  0.91730  0.69160  Biso   1.000  H
  C769     1.0000 0.32850  0.07900  0.70500  Biso   1.000  C
  H639     1.0000 0.33110  0.12350  0.70970  Biso   1.000  H
  C770     1.0000 0.29540  0.05260  0.70140  Biso   1.000  C
  H640     1.0000 0.27550  0.07910  0.70360  Biso   1.000  H
  C771     1.0000 0.29150  0.98750  0.69450  Biso   1.000  C
  C772     1.0000 0.32060  0.94880  0.69130  Biso   1.000  C
  C773     1.0000 0.35360  0.97510  0.69500  Biso   1.000  C
  C774     1.0000 0.35750  0.04020  0.70180  Biso   1.000  C
  H641     1.0000 0.38010  0.05820  0.70440  Biso   1.000  H
  O59      1.0000 0.31510  0.88380  0.68550  Biso   1.000  O
  C775     1.0000 0.32320  0.84560  0.71640  Biso   1.000  C
  H642     1.0000 0.34360  0.86400  0.72900  Biso   1.000  H
  H643     1.0000 0.32890  0.80100  0.70970  Biso   1.000  H
  C776     1.0000 0.29200  0.84550  0.73980  Biso   1.000  C
  C777     1.0000 0.26120  0.82010  0.73100  Biso   1.000  C
  H644     1.0000 0.25990  0.79360  0.71100  Biso   1.000  H
  C778     1.0000 0.23060  0.82920  0.74890  Biso   1.000  C
  H645     1.0000 0.20840  0.81530  0.74060  Biso   1.000  H
  C779     1.0000 0.23650  0.86330  0.78260  Biso   1.000  C
  H646     1.0000 0.21780  0.86750  0.79780  Biso   1.000  H
  N66      1.0000 0.26860  0.88880  0.79230  Biso   1.000  N
  C780     1.0000 0.29610  0.88210  0.77210  Biso   1.000  C
  H647     1.0000 0.31780  0.90070  0.77850  Biso   1.000  H
  C781     1.0000 0.38530  0.93850  0.68540  Biso   1.000  C
  H648     1.0000 0.40460  0.94890  0.70180  Biso   1.000  H
  H649     1.0000 0.38060  0.89190  0.68700  Biso   1.000  H
  C782     1.0000 0.41940  0.02940  0.60670  Biso   1.000  C
  H650     1.0000 0.43200  0.06740  0.60190  Biso   1.000  H
  C783     1.0000 0.41450  0.01090  0.64070  Biso   1.000  C
  H651     1.0000 0.42370  0.03630  0.65920  Biso   1.000  H
  C784     1.0000 0.39600  0.95530  0.64780  Biso   1.000  C
  C785     1.0000 0.38250  0.91820  0.62070  Biso   1.000  C
  C786     1.0000 0.38740  0.93660  0.58670  Biso   1.000  C
  C787     1.0000 0.40580  0.99220  0.57970  Biso   1.000  C
  H652     1.0000 0.40920  0.00480  0.55640  Biso   1.000  H
  O60      1.0000 0.36930  0.85770  0.62600  Biso   1.000  O
  C788     1.0000 0.39610  0.80820  0.63540  Biso   1.000  C
  H653     1.0000 0.38470  0.76900  0.64400  Biso   1.000  H
  H654     1.0000 0.41200  0.82480  0.65380  Biso   1.000  H
  C789     1.0000 0.41480  0.79370  0.60580  Biso   1.000  C
  C790     1.0000 0.44360  0.82780  0.59570  Biso   1.000  C
  H655     1.0000 0.45330  0.86050  0.61010  Biso   1.000  H
  C791     1.0000 0.45870  0.81270  0.56240  Biso   1.000  C
  H656     1.0000 0.47660  0.83840  0.55320  Biso   1.000  H
  C792     1.0000 0.44600  0.76010  0.54500  Biso   1.000  C
  H657     1.0000 0.45680  0.74910  0.52410  Biso   1.000  H
  N67      1.0000 0.41960  0.72260  0.55460  Biso   1.000  N
  C793     1.0000 0.40650  0.73930  0.58490  Biso   1.000  C
  H658     1.0000 0.38950  0.71120  0.59370  Biso   1.000  H
  C794     1.0000 0.36930  0.90160  0.55390  Biso   1.000  C
  H659     1.0000 0.36440  0.85640  0.55990  Biso   1.000  H
  H660     1.0000 0.38560  0.90150  0.53460  Biso   1.000  H
  C795     1.0000 0.37020  0.15740  0.54760  Biso   1.000  C
  H661     1.0000 0.36950  0.11880  0.56070  Biso   1.000  H
  C796     1.0000 0.40160  0.17990  0.53570  Biso   1.000  C
  H662     1.0000 0.42240  0.15670  0.54070  Biso   1.000  H
  C797     1.0000 0.40270  0.23630  0.51670  Biso   1.000  C
  C798     1.0000 0.37230  0.27030  0.50950  Biso   1.000  C
  C799     1.0000 0.34080  0.24780  0.52140  Biso   1.000  C
  C800     1.0000 0.33980  0.19140  0.54050  Biso   1.000  C
  H663     1.0000 0.31830  0.17600  0.54860  Biso   1.000  H
  O61      1.0000 0.37380  0.32590  0.48900  Biso   1.000  O
  C801     1.0000 0.37920  0.38240  0.51240  Biso   1.000  C
  H664     1.0000 0.40120  0.37740  0.52600  Biso   1.000  H
  H665     1.0000 0.36000  0.38530  0.52880  Biso   1.000  H
  C802     1.0000 0.38050  0.43840  0.49240  Biso   1.000  C
  C803     1.0000 0.37670  0.44430  0.45790  Biso   1.000  C
  H666     1.0000 0.37260  0.40630  0.44490  Biso   1.000  H
  C804     1.0000 0.37840  0.50090  0.44030  Biso   1.000  C
  H667     1.0000 0.37600  0.50320  0.41580  Biso   1.000  H
  C805     1.0000 0.38420  0.55640  0.46150  Biso   1.000  C
  H668     1.0000 0.38510  0.59730  0.45070  Biso   1.000  H
  N68      1.0000 0.38840  0.55330  0.49570  Biso   1.000  N
  C806     1.0000 0.38600  0.49580  0.51000  Biso   1.000  C
  H669     1.0000 0.38830  0.49350  0.53450  Biso   1.000  H
  C807     1.0000 0.30640  0.28420  0.51010  Biso   1.000  C
  H670     1.0000 0.31080  0.33080  0.50850  Biso   1.000  H
  H671     1.0000 0.28840  0.27720  0.52750  Biso   1.000  H
  C808     1.0000 0.26940  0.17290  0.43860  Biso   1.000  C
  H672     1.0000 0.25960  0.13120  0.43650  Biso   1.000  H
  C809     1.0000 0.27920  0.19660  0.47100  Biso   1.000  C
  H673     1.0000 0.27610  0.17110  0.49100  Biso   1.000  H
  C810     1.0000 0.29350  0.25760  0.47410  Biso   1.000  C
  C811     1.0000 0.29810  0.29490  0.44480  Biso   1.000  C
  C812     1.0000 0.28830  0.27120  0.41240  Biso   1.000  C
  C813     1.0000 0.27400  0.21020  0.40930  Biso   1.000  C
  H674     1.0000 0.26730  0.19390  0.38710  Biso   1.000  H
  O62      1.0000 0.30620  0.36270  0.44520  Biso   1.000  O
  C814     1.0000 0.27530  0.39930  0.45450  Biso   1.000  C
  H675     1.0000 0.27190  0.39760  0.47970  Biso   1.000  H
  H676     1.0000 0.25430  0.38180  0.44250  Biso   1.000  H
  C815     1.0000 0.28160  0.46500  0.44340  Biso   1.000  C
  C816     1.0000 0.29300  0.51590  0.46690  Biso   1.000  C
  H677     1.0000 0.29730  0.50600  0.49060  Biso   1.000  H
  C817     1.0000 0.29750  0.57760  0.45570  Biso   1.000  C
  H678     1.0000 0.30480  0.60960  0.47180  Biso   1.000  H
  C818     1.0000 0.29160  0.59410  0.42180  Biso   1.000  C
  H679     1.0000 0.29440  0.63730  0.41460  Biso   1.000  H
  N69      1.0000 0.28150  0.54760  0.39800  Biso   1.000  N
  C819     1.0000 0.27680  0.48240  0.40780  Biso   1.000  C
  H680     1.0000 0.27050  0.45090  0.39100  Biso   1.000  H
  C820     1.0000 0.29900  0.30670  0.37750  Biso   1.000  C
  H681     1.0000 0.30670  0.35100  0.38270  Biso   1.000  H
  H682     1.0000 0.27880  0.30880  0.36120  Biso   1.000  H
  C821     1.0000 0.35320  0.17340  0.33360  Biso   1.000  C
  H683     1.0000 0.34980  0.13390  0.32170  Biso   1.000  H
  C822     1.0000 0.32470  0.20940  0.34340  Biso   1.000  C
  H684     1.0000 0.30190  0.19450  0.33830  Biso   1.000  H
  C823     1.0000 0.32970  0.26730  0.36070  Biso   1.000  C
  C824     1.0000 0.36320  0.28910  0.36820  Biso   1.000  C
  C825     1.0000 0.39170  0.25310  0.35840  Biso   1.000  C
  C826     1.0000 0.38660  0.19530  0.34100  Biso   1.000  C
  H685     1.0000 0.40610  0.17070  0.33430  Biso   1.000  H
  O63      1.0000 0.37090  0.34830  0.38310  Biso   1.000  O
  C827     1.0000 0.38000  0.39900  0.35750  Biso   1.000  C
  H686     1.0000 0.39850  0.38260  0.34260  Biso   1.000  H
  H687     1.0000 0.38920  0.43700  0.37010  Biso   1.000  H
  C828     1.0000 0.35220  0.41700  0.33730  Biso   1.000  C
  C829     1.0000 0.33710  0.38230  0.30480  Biso   1.000  C
  H688     1.0000 0.34820  0.34580  0.29540  Biso   1.000  H
  C830     1.0000 0.30670  0.40700  0.29020  Biso   1.000  C
  H689     1.0000 0.29710  0.38510  0.27060  Biso   1.000  H
  C831     1.0000 0.29030  0.45670  0.30060  Biso   1.000  C
  H690     1.0000 0.26890  0.46800  0.28940  Biso   1.000  H
  N70      1.0000 0.30340  0.49580  0.32860  Biso   1.000  N
  C832     1.0000 0.33170  0.47620  0.34410  Biso   1.000  C
  H691     1.0000 0.34050  0.50290  0.36220  Biso   1.000  H
  C833     1.0000 0.43030  0.26930  0.36900  Biso   1.000  C
  H692     1.0000 0.43290  0.31640  0.37090  Biso   1.000  H
  H693     1.0000 0.44560  0.25440  0.35050  Biso   1.000  H
  C834     1.0000 0.45600  0.13760  0.43170  Biso   1.000  C
  H694     1.0000 0.46190  0.09350  0.43030  Biso   1.000  H
  C835     1.0000 0.45060  0.17320  0.40160  Biso   1.000  C
  H695     1.0000 0.45290  0.15340  0.37970  Biso   1.000  H
  C836     1.0000 0.44190  0.23780  0.40370  Biso   1.000  C
  C837     1.0000 0.43860  0.26680  0.43580  Biso   1.000  C
  C838     1.0000 0.44400  0.23120  0.46580  Biso   1.000  C
  C839     1.0000 0.45270  0.16660  0.46380  Biso   1.000  C
  H696     1.0000 0.45640  0.14230  0.48430  Biso   1.000  H
  O64      1.0000 0.43160  0.33180  0.43960  Biso   1.000  O
  C840     1.0000 0.45760  0.37360  0.42860  Biso   1.000  C
  C841     1.0000 0.49690  0.42410  0.51630  Biso   1.000  C
  C842     1.0000 0.47360  0.41660  0.48880  Biso   1.000  C
  H697     1.0000 0.45020  0.42960  0.49130  Biso   1.000  H
  C843     1.0000 0.48340  0.39040  0.45740  Biso   1.000  C
  C844     1.0000 0.51780  0.37730  0.45620  Biso   1.000  C
  H698     1.0000 0.52500  0.35980  0.43490  Biso   1.000  H
  N71      1.0000 0.54450  0.38520  0.48120  Biso   1.000  N
  C845     1.0000 0.53160  0.40850  0.51320  Biso   1.000  C
  H699     1.0000 0.54700  0.41320  0.53260  Biso   1.000  H
  C846     1.0000 0.43690  0.25970  0.50180  Biso   1.000  C
  H700     1.0000 0.43640  0.30710  0.50000  Biso   1.000  H
  H701     1.0000 0.45630  0.24800  0.51800  Biso   1.000  H
  Zn15     1.0000 0.27351  0.57476  0.34435  Biso   1.000  Zn
  Zn16     1.0000 0.40501  0.63867  0.52588  Biso   1.000  Zn
  N72      1.0000 0.32360  0.62690  0.35120  Biso   1.000  N
  C847     1.0000 0.34830  0.64800  0.35450  Biso   1.000  C
  C848     1.0000 0.38370  0.67750  0.36240  Biso   1.000  C
  H702     1.0000 0.40190  0.64840  0.35470  Biso   1.000  H
  H703     1.0000 0.38560  0.71860  0.35020  Biso   1.000  H
  H704     1.0000 0.38660  0.68480  0.38730  Biso   1.000  H
