data_image0
_cell_length_a       20.014
_cell_length_b       37.956
_cell_length_c       25.085
_cell_angle_alpha    90
_cell_angle_beta     109.384
_cell_angle_gamma    90

_symmetry_space_group_name_H-M    "P 1"
_symmetry_int_tables_number       1

loop_
  _symmetry_equiv_pos_as_xyz
  'x, y, z'

loop_
  _atom_site_label
  _atom_site_occupancy
  _atom_site_fract_x
  _atom_site_fract_y
  _atom_site_fract_z
  _atom_site_thermal_displace_type
  _atom_site_B_iso_or_equiv
  _atom_site_type_symbol
  Cu1      1.0000 0.53904  0.12661  0.33228  Biso   1.000  Cu
  Cu2      1.0000 0.55122  0.97368  0.36623  Biso   1.000  Cu
  Cu3      1.0000 0.09482  0.25486  0.50078  Biso   1.000  Cu
  Cu4      1.0000 0.79563  0.21764  0.38377  Biso   1.000  Cu
  Cu5      1.0000 0.00591  0.32871  0.43257  Biso   1.000  Cu
  Cu6      1.0000 0.31445  0.20669  0.38200  Biso   1.000  Cu
  Cu7      1.0000 0.14895  0.33082  0.40653  Biso   1.000  Cu
  Cu8      1.0000 0.61018  0.09318  0.24663  Biso   1.000  Cu
  Br1      1.0000 0.13121  0.32100  0.51096  Biso   1.000  Br
  C1       1.0000 0.21900  0.20598  0.54553  Biso   1.000  C
  C2       1.0000 0.14570  0.18362  0.44929  Biso   1.000  C
  H1       1.0000 0.14110  0.20640  0.43480  Biso   1.000  H
  C3       1.0000 0.11620  0.12204  0.43630  Biso   1.000  C
  C4       1.0000 0.16260  0.11575  0.49080  Biso   1.000  C
  H2       1.0000 0.16960  0.09280  0.50440  Biso   1.000  H
  C5       1.0000 0.18880  0.17760  0.50532  Biso   1.000  C
  C6       1.0000 0.19800  0.14274  0.52480  Biso   1.000  C
  H3       1.0000 0.22840  0.13790  0.56110  Biso   1.000  H
  C7       1.0000 0.10970  0.15606  0.41500  Biso   1.000  C
  H4       1.0000 0.08140  0.16050  0.37790  Biso   1.000  H
  C8       1.0000 0.28410  0.23443  0.61903  Biso   1.000  C
  C9       1.0000 0.33870  0.24487  0.67231  Biso   1.000  C
  C10      1.0000 0.37920  0.22016  0.71080  Biso   1.000  C
  H5       1.0000 0.37460  0.19640  0.70110  Biso   1.000  H
  C11      1.0000 0.42650  0.23008  0.76350  Biso   1.000  C
  H6       1.0000 0.45260  0.21300  0.78820  Biso   1.000  H
  C12      1.0000 0.34740  0.28019  0.68870  Biso   1.000  C
  H7       1.0000 0.32150  0.29740  0.66400  Biso   1.000  H
  C13      1.0000 0.43460  0.26525  0.77930  Biso   1.000  C
  C14      1.0000 0.39420  0.29029  0.74140  Biso   1.000  C
  H8       1.0000 0.39860  0.31400  0.75130  Biso   1.000  H
  C15      1.0000 0.60580  0.90402  0.38188  Biso   1.000  C
  C16      1.0000 0.67040  0.91388  0.36996  Biso   1.000  C
  C17      1.0000 0.69690  0.89388  0.33530  Biso   1.000  C
  H9       1.0000 0.67130  0.87450  0.31650  Biso   1.000  H
  C18      1.0000 0.76120  0.90230  0.32820  Biso   1.000  C
  H10      1.0000 0.77770  0.88880  0.30430  Biso   1.000  H
  C19      1.0000 0.70940  0.94306  0.39710  Biso   1.000  C
  H11      1.0000 0.69220  0.95700  0.42020  Biso   1.000  H
  C20      1.0000 0.80070  0.93075  0.35660  Biso   1.000  C
  C21      1.0000 0.77300  0.95161  0.39030  Biso   1.000  C
  H12      1.0000 0.79770  0.97140  0.40820  Biso   1.000  H
  C22      1.0000 0.51220  0.90654  0.40662  Biso   1.000  C
  C23      1.0000 0.45830  0.95642  0.44230  Biso   1.000  C
  H13      1.0000 0.49550  0.97050  0.44050  Biso   1.000  H
  C24      1.0000 0.40710  0.97069  0.46130  Biso   1.000  C
  H14      1.0000 0.41160  0.99400  0.47340  Biso   1.000  H
  C25      1.0000 0.45550  0.92126  0.42560  Biso   1.000  C
  C26      1.0000 0.40110  0.90062  0.43110  Biso   1.000  C
  H15      1.0000 0.40040  0.87660  0.42360  Biso   1.000  H
  C27      1.0000 0.34710  0.91546  0.44790  Biso   1.000  C
  H16      1.0000 0.30960  0.90140  0.44920  Biso   1.000  H
  C28      1.0000 0.34890  0.95140  0.46290  Biso   1.000  C
  C29      1.0000 0.72650  0.14184  0.41284  Biso   1.000  C
  C30      1.0000 0.76280  0.15477  0.46660  Biso   1.000  C
  H17      1.0000 0.75880  0.17850  0.47400  Biso   1.000  H
  C31      1.0000 0.73320  0.10660  0.40240  Biso   1.000  C
  H18      1.0000 0.70890  0.09720  0.36700  Biso   1.000  H
  C32      1.0000 0.68260  0.16556  0.36761  Biso   1.000  C
  C33      1.0000 0.80490  0.13332  0.50950  Biso   1.000  C
  H19      1.0000 0.82760  0.14260  0.54520  Biso   1.000  H
  C34      1.0000 0.77640  0.08497  0.44480  Biso   1.000  C
  H20      1.0000 0.78100  0.06130  0.43720  Biso   1.000  H
  C35      1.0000 0.81300  0.09825  0.49880  Biso   1.000  C
  C36      1.0000 0.64870  0.24266  0.28042  Biso   1.000  C
  C37      1.0000 0.70130  0.24999  0.25645  Biso   1.000  C
  H21      1.0000 0.73950  0.23480  0.26250  Biso   1.000  H
  C38      1.0000 0.69620  0.27993  0.22386  Biso   1.000  C
  H22      1.0000 0.73170  0.28490  0.20860  Biso   1.000  H
  C39      1.0000 0.59290  0.26634  0.27218  Biso   1.000  C
  H23      1.0000 0.55870  0.26210  0.28900  Biso   1.000  H
  C40      1.0000 0.64990  0.20988  0.31179  Biso   1.000  C
  C41      1.0000 0.63900  0.30254  0.21360  Biso   1.000  C
  C42      1.0000 0.58810  0.29604  0.23933  Biso   1.000  C
  H24      1.0000 0.55080  0.31170  0.23430  Biso   1.000  H
  C43      1.0000 0.59320  0.02829  0.30547  Biso   1.000  C
  C44      1.0000 0.63420  0.00538  0.27978  Biso   1.000  C
  C45      1.0000 0.60680  0.97353  0.25440  Biso   1.000  C
  H25      1.0000 0.56450  0.96500  0.25720  Biso   1.000  H
  C46      1.0000 0.70600  0.96643  0.22080  Biso   1.000  C
  C47      1.0000 0.69960  0.01693  0.27740  Biso   1.000  C
  H26      1.0000 0.71900  0.03790  0.29500  Biso   1.000  H
  C48      1.0000 0.64260  0.95456  0.22510  Biso   1.000  C
  H27      1.0000 0.62360  0.93340  0.20790  Biso   1.000  H
  C49      1.0000 0.73530  0.99742  0.24910  Biso   1.000  C
  H28      1.0000 0.77950  0.00490  0.24890  Biso   1.000  H
  C50      1.0000 0.41260  0.03669  0.36630  Biso   1.000  C
  H29      1.0000 0.40440  0.01800  0.34100  Biso   1.000  H
  C51      1.0000 0.43640  0.09182  0.44226  Biso   1.000  C
  H30      1.0000 0.44470  0.11050  0.46770  Biso   1.000  H
  C52      1.0000 0.47640  0.05494  0.38038  Biso   1.000  C
  C53      1.0000 0.52700  0.04933  0.34997  Biso   1.000  C
  C54      1.0000 0.48740  0.08279  0.41929  Biso   1.000  C
  H31      1.0000 0.52980  0.09520  0.42960  Biso   1.000  H
  C55      1.0000 0.37230  0.07365  0.42830  Biso   1.000  C
  C56      1.0000 0.36050  0.04594  0.38960  Biso   1.000  C
  H32      1.0000 0.31790  0.03360  0.37930  Biso   1.000  H
  C57      1.0000 0.96320  0.19272  0.46297  Biso   1.000  C
  C58      1.0000 0.01450  0.18406  0.51522  Biso   1.000  C
  H33      1.0000 0.03890  0.20200  0.53890  Biso   1.000  H
  C59      1.0000 0.92730  0.16537  0.42790  Biso   1.000  C
  H34      1.0000 0.89310  0.17040  0.39330  Biso   1.000  H
  C60      1.0000 0.94260  0.13063  0.44470  Biso   1.000  C
  H35      1.0000 0.91860  0.11260  0.42110  Biso   1.000  H
  C61      1.0000 0.94770  0.22943  0.44509  Biso   1.000  C
  C62      1.0000 0.02910  0.14982  0.53184  Biso   1.000  C
  H36      1.0000 0.06290  0.14480  0.56670  Biso   1.000  H
  C63      1.0000 0.99370  0.12232  0.49690  Biso   1.000  C
  C64      1.0000 0.89210  0.27614  0.40575  Biso   1.000  C
  C65      1.0000 0.76910  0.29932  0.38549  Biso   1.000  C
  H37      1.0000 0.76090  0.28160  0.40820  Biso   1.000  H
  C66      1.0000 0.71640  0.32361  0.36140  Biso   1.000  C
  H38      1.0000 0.67340  0.32200  0.36800  Biso   1.000  H
  C67      1.0000 0.72730  0.35058  0.32742  Biso   1.000  C
  C68      1.0000 0.79190  0.35135  0.31680  Biso   1.000  C
  H39      1.0000 0.79920  0.36850  0.29290  Biso   1.000  H
  C69      1.0000 0.84490  0.32707  0.34131  Biso   1.000  C
  H40      1.0000 0.88760  0.32840  0.33420  Biso   1.000  H
  C70      1.0000 0.83480  0.30060  0.37662  Biso   1.000  C
  C71      1.0000 0.33230  0.14671  0.31122  Biso   1.000  C
  C72      1.0000 0.25890  0.13398  0.28758  Biso   1.000  C
  C73      1.0000 0.23290  0.12303  0.23150  Biso   1.000  C
  H41      1.0000 0.25950  0.12760  0.20810  Biso   1.000  H
  C74      1.0000 0.21780  0.12805  0.32170  Biso   1.000  C
  H42      1.0000 0.23410  0.13490  0.35950  Biso   1.000  H
  C75      1.0000 0.16950  0.10580  0.20950  Biso   1.000  C
  H43      1.0000 0.15440  0.09860  0.17190  Biso   1.000  H
  C76      1.0000 0.12840  0.09910  0.24200  Biso   1.000  C
  C77      1.0000 0.15160  0.11160  0.29890  Biso   1.000  C
  H44      1.0000 0.12260  0.10890  0.32090  Biso   1.000  H
  C78      1.0000 0.48210  0.19976  0.38808  Biso   1.000  C
  C79      1.0000 0.47240  0.23484  0.37265  Biso   1.000  C
  H45      1.0000 0.42990  0.24220  0.34620  Biso   1.000  H
  C80      1.0000 0.52580  0.25908  0.39650  Biso   1.000  C
  H46      1.0000 0.51900  0.28260  0.38540  Biso   1.000  H
  C81      1.0000 0.59900  0.21343  0.45410  Biso   1.000  C
  H47      1.0000 0.64050  0.20610  0.48180  Biso   1.000  H
  C82      1.0000 0.59020  0.24859  0.43730  Biso   1.000  C
  C83      1.0000 0.42900  0.17367  0.35595  Biso   1.000  C
  C84      1.0000 0.54520  0.18941  0.42928  Biso   1.000  C
  H48      1.0000 0.55150  0.16590  0.44030  Biso   1.000  H
  N1       1.0000 0.55048  0.07648  0.32784  Biso   1.000  N
  N2       1.0000 0.55290  0.01851  0.33751  Biso   1.000  N
  N3       1.0000 0.59285  0.06270  0.29893  Biso   1.000  N
  N4       1.0000 0.28177  0.20434  0.58956  Biso   1.000  N
  N5       1.0000 0.22591  0.25406  0.59433  Biso   1.000  N
  N6       1.0000 0.18441  0.23569  0.54694  Biso   1.000  N
  N7       1.0000 0.99596  0.25473  0.45586  Biso   1.000  N
  N8       1.0000 0.95978  0.28500  0.43083  Biso   1.000  N
  N9       1.0000 0.88178  0.24139  0.41393  Biso   1.000  N
  N10      1.0000 0.52924  0.87303  0.40746  Biso   1.000  N
  N11      1.0000 0.59037  0.87111  0.39172  Biso   1.000  N
  N12      1.0000 0.55752  0.92674  0.38935  Biso   1.000  N
  N13      1.0000 0.38513  0.12939  0.30188  Biso   1.000  N
  N14      1.0000 0.44717  0.14676  0.33006  Biso   1.000  N
  N15      1.0000 0.35738  0.17476  0.34545  Biso   1.000  N
  N16      1.0000 0.70685  0.19632  0.35301  Biso   1.000  N
  N17      1.0000 0.61502  0.16027  0.33650  Biso   1.000  N
  N18      1.0000 0.59385  0.18862  0.30081  Biso   1.000  N
  N19      1.0000 0.67480  0.37549  0.30340  Biso   1.000  N
  H49      1.0000 0.63500  0.37440  0.30950  Biso   1.000  H
  H50      1.0000 0.68220  0.39200  0.28250  Biso   1.000  H
  N20      1.0000 0.63190  0.33100  0.17800  Biso   1.000  N
  H51      1.0000 0.66310  0.33480  0.16200  Biso   1.000  H
  H52      1.0000 0.59620  0.34490  0.17190  Biso   1.000  H
  N21      1.0000 0.32290  0.08179  0.45430  Biso   1.000  N
  H53      1.0000 0.33160  0.09820  0.47920  Biso   1.000  H
  H54      1.0000 0.28360  0.07040  0.44530  Biso   1.000  H
  N22      1.0000 0.74170  0.94730  0.19140  Biso   1.000  N
  H55      1.0000 0.72450  0.92770  0.17540  Biso   1.000  H
  H56      1.0000 0.78110  0.95510  0.18910  Biso   1.000  H
  N23      1.0000 0.64520  0.27255  0.46050  Biso   1.000  N
  H57      1.0000 0.68420  0.26560  0.48510  Biso   1.000  H
  H58      1.0000 0.64000  0.29430  0.45030  Biso   1.000  H
  N24      1.0000 0.07710  0.09427  0.40320  Biso   1.000  N
  H59      1.0000 0.04890  0.09830  0.36950  Biso   1.000  H
  H60      1.0000 0.08140  0.07320  0.41670  Biso   1.000  H
  N25      1.0000 0.01120  0.08793  0.51230  Biso   1.000  N
  H61      1.0000 0.04410  0.08320  0.54370  Biso   1.000  H
  H62      1.0000 0.98920  0.07110  0.49070  Biso   1.000  H
  N26      1.0000 0.48290  0.27487  0.83170  Biso   1.000  N
  H63      1.0000 0.50750  0.25900  0.85420  Biso   1.000  H
  H64      1.0000 0.48800  0.29670  0.84150  Biso   1.000  H
  N27      1.0000 0.85420  0.07619  0.54320  Biso   1.000  N
  H65      1.0000 0.87400  0.08470  0.57650  Biso   1.000  H
  H66      1.0000 0.85950  0.05430  0.53680  Biso   1.000  H
  N28      1.0000 0.86730  0.93818  0.35320  Biso   1.000  N
  H67      1.0000 0.88470  0.92500  0.33330  Biso   1.000  H
  H68      1.0000 0.89100  0.95590  0.37120  Biso   1.000  H
  N29      1.0000 0.29680  0.96690  0.47860  Biso   1.000  N
  H69      1.0000 0.29980  0.98880  0.48760  Biso   1.000  H
  H70      1.0000 0.26100  0.95470  0.47950  Biso   1.000  H
  N30      1.0000 0.06200  0.08180  0.21880  Biso   1.000  N
  H71      1.0000 0.04750  0.07540  0.18400  Biso   1.000  H
  H72      1.0000 0.03630  0.07770  0.23970  Biso   1.000  H
  Cu9      1.0000 0.03904  0.62661  0.33228  Biso   1.000  Cu
  Cu10     1.0000 0.05122  0.47368  0.36623  Biso   1.000  Cu
  Cu11     1.0000 0.59482  0.75486  0.50078  Biso   1.000  Cu
  Cu12     1.0000 0.29563  0.71764  0.38377  Biso   1.000  Cu
  Cu13     1.0000 0.50591  0.82871  0.43257  Biso   1.000  Cu
  Cu14     1.0000 0.81445  0.70669  0.38200  Biso   1.000  Cu
  Cu15     1.0000 0.64895  0.83082  0.40653  Biso   1.000  Cu
  Cu16     1.0000 0.11018  0.59318  0.24663  Biso   1.000  Cu
  Br2      1.0000 0.63121  0.82100  0.51096  Biso   1.000  Br
  C85      1.0000 0.71900  0.70598  0.54553  Biso   1.000  C
  C86      1.0000 0.64570  0.68362  0.44929  Biso   1.000  C
  H73      1.0000 0.64110  0.70640  0.43480  Biso   1.000  H
  C87      1.0000 0.61620  0.62204  0.43630  Biso   1.000  C
  C88      1.0000 0.66260  0.61575  0.49080  Biso   1.000  C
  H74      1.0000 0.66960  0.59280  0.50440  Biso   1.000  H
  C89      1.0000 0.68880  0.67760  0.50532  Biso   1.000  C
  C90      1.0000 0.69800  0.64274  0.52480  Biso   1.000  C
  H75      1.0000 0.72840  0.63790  0.56110  Biso   1.000  H
  C91      1.0000 0.60970  0.65606  0.41500  Biso   1.000  C
  H76      1.0000 0.58140  0.66050  0.37790  Biso   1.000  H
  C92      1.0000 0.78410  0.73443  0.61903  Biso   1.000  C
  C93      1.0000 0.83870  0.74487  0.67231  Biso   1.000  C
  C94      1.0000 0.87920  0.72016  0.71080  Biso   1.000  C
  H77      1.0000 0.87460  0.69640  0.70110  Biso   1.000  H
  C95      1.0000 0.92650  0.73008  0.76350  Biso   1.000  C
  H78      1.0000 0.95260  0.71300  0.78820  Biso   1.000  H
  C96      1.0000 0.84740  0.78019  0.68870  Biso   1.000  C
  H79      1.0000 0.82150  0.79740  0.66400  Biso   1.000  H
  C97      1.0000 0.93460  0.76525  0.77930  Biso   1.000  C
  C98      1.0000 0.89420  0.79029  0.74140  Biso   1.000  C
  H80      1.0000 0.89860  0.81400  0.75130  Biso   1.000  H
  C99      1.0000 0.10580  0.40402  0.38188  Biso   1.000  C
  C100     1.0000 0.17040  0.41388  0.36996  Biso   1.000  C
  C101     1.0000 0.19690  0.39388  0.33530  Biso   1.000  C
  H81      1.0000 0.17130  0.37450  0.31650  Biso   1.000  H
  C102     1.0000 0.26120  0.40230  0.32820  Biso   1.000  C
  H82      1.0000 0.27770  0.38880  0.30430  Biso   1.000  H
  C103     1.0000 0.20940  0.44306  0.39710  Biso   1.000  C
  H83      1.0000 0.19220  0.45700  0.42020  Biso   1.000  H
  C104     1.0000 0.30070  0.43075  0.35660  Biso   1.000  C
  C105     1.0000 0.27300  0.45161  0.39030  Biso   1.000  C
  H84      1.0000 0.29770  0.47140  0.40820  Biso   1.000  H
  C106     1.0000 0.01220  0.40654  0.40662  Biso   1.000  C
  C107     1.0000 0.95830  0.45642  0.44230  Biso   1.000  C
  H85      1.0000 0.99550  0.47050  0.44050  Biso   1.000  H
  C108     1.0000 0.90710  0.47069  0.46130  Biso   1.000  C
  H86      1.0000 0.91160  0.49400  0.47340  Biso   1.000  H
  C109     1.0000 0.95550  0.42126  0.42560  Biso   1.000  C
  C110     1.0000 0.90110  0.40062  0.43110  Biso   1.000  C
  H87      1.0000 0.90040  0.37660  0.42360  Biso   1.000  H
  C111     1.0000 0.84710  0.41546  0.44790  Biso   1.000  C
  H88      1.0000 0.80960  0.40140  0.44920  Biso   1.000  H
  C112     1.0000 0.84890  0.45140  0.46290  Biso   1.000  C
  C113     1.0000 0.22650  0.64184  0.41284  Biso   1.000  C
  C114     1.0000 0.26280  0.65477  0.46660  Biso   1.000  C
  H89      1.0000 0.25880  0.67850  0.47400  Biso   1.000  H
  C115     1.0000 0.23320  0.60660  0.40240  Biso   1.000  C
  H90      1.0000 0.20890  0.59720  0.36700  Biso   1.000  H
  C116     1.0000 0.18260  0.66556  0.36761  Biso   1.000  C
  C117     1.0000 0.30490  0.63332  0.50950  Biso   1.000  C
  H91      1.0000 0.32760  0.64260  0.54520  Biso   1.000  H
  C118     1.0000 0.27640  0.58497  0.44480  Biso   1.000  C
  H92      1.0000 0.28100  0.56130  0.43720  Biso   1.000  H
  C119     1.0000 0.31300  0.59825  0.49880  Biso   1.000  C
  C120     1.0000 0.14870  0.74266  0.28042  Biso   1.000  C
  C121     1.0000 0.20130  0.74999  0.25645  Biso   1.000  C
  H93      1.0000 0.23950  0.73480  0.26250  Biso   1.000  H
  C122     1.0000 0.19620  0.77993  0.22386  Biso   1.000  C
  H94      1.0000 0.23170  0.78490  0.20860  Biso   1.000  H
  C123     1.0000 0.09290  0.76634  0.27218  Biso   1.000  C
  H95      1.0000 0.05870  0.76210  0.28900  Biso   1.000  H
  C124     1.0000 0.14990  0.70988  0.31179  Biso   1.000  C
  C125     1.0000 0.13900  0.80254  0.21360  Biso   1.000  C
  C126     1.0000 0.08810  0.79604  0.23933  Biso   1.000  C
  H96      1.0000 0.05080  0.81170  0.23430  Biso   1.000  H
  C127     1.0000 0.09320  0.52829  0.30547  Biso   1.000  C
  C128     1.0000 0.13420  0.50538  0.27978  Biso   1.000  C
  C129     1.0000 0.10680  0.47353  0.25440  Biso   1.000  C
  H97      1.0000 0.06450  0.46500  0.25720  Biso   1.000  H
  C130     1.0000 0.20600  0.46643  0.22080  Biso   1.000  C
  C131     1.0000 0.19960  0.51693  0.27740  Biso   1.000  C
  H98      1.0000 0.21900  0.53790  0.29500  Biso   1.000  H
  C132     1.0000 0.14260  0.45456  0.22510  Biso   1.000  C
  H99      1.0000 0.12360  0.43340  0.20790  Biso   1.000  H
  C133     1.0000 0.23530  0.49742  0.24910  Biso   1.000  C
  H100     1.0000 0.27950  0.50490  0.24890  Biso   1.000  H
  C134     1.0000 0.91260  0.53669  0.36630  Biso   1.000  C
  H101     1.0000 0.90440  0.51800  0.34100  Biso   1.000  H
  C135     1.0000 0.93640  0.59182  0.44226  Biso   1.000  C
  H102     1.0000 0.94470  0.61050  0.46770  Biso   1.000  H
  C136     1.0000 0.97640  0.55494  0.38038  Biso   1.000  C
  C137     1.0000 0.02700  0.54933  0.34997  Biso   1.000  C
  C138     1.0000 0.98740  0.58279  0.41929  Biso   1.000  C
  H103     1.0000 0.02980  0.59520  0.42960  Biso   1.000  H
  C139     1.0000 0.87230  0.57365  0.42830  Biso   1.000  C
  C140     1.0000 0.86050  0.54594  0.38960  Biso   1.000  C
  H104     1.0000 0.81790  0.53360  0.37930  Biso   1.000  H
  C141     1.0000 0.46320  0.69272  0.46297  Biso   1.000  C
  C142     1.0000 0.51450  0.68406  0.51522  Biso   1.000  C
  H105     1.0000 0.53890  0.70200  0.53890  Biso   1.000  H
  C143     1.0000 0.42730  0.66537  0.42790  Biso   1.000  C
  H106     1.0000 0.39310  0.67040  0.39330  Biso   1.000  H
  C144     1.0000 0.44260  0.63063  0.44470  Biso   1.000  C
  H107     1.0000 0.41860  0.61260  0.42110  Biso   1.000  H
  C145     1.0000 0.44770  0.72943  0.44509  Biso   1.000  C
  C146     1.0000 0.52910  0.64982  0.53184  Biso   1.000  C
  H108     1.0000 0.56290  0.64480  0.56670  Biso   1.000  H
  C147     1.0000 0.49370  0.62232  0.49690  Biso   1.000  C
  C148     1.0000 0.39210  0.77614  0.40575  Biso   1.000  C
  C149     1.0000 0.26910  0.79932  0.38549  Biso   1.000  C
  H109     1.0000 0.26090  0.78160  0.40820  Biso   1.000  H
  C150     1.0000 0.21640  0.82361  0.36140  Biso   1.000  C
  H110     1.0000 0.17340  0.82200  0.36800  Biso   1.000  H
  C151     1.0000 0.22730  0.85058  0.32742  Biso   1.000  C
  C152     1.0000 0.29190  0.85135  0.31680  Biso   1.000  C
  H111     1.0000 0.29920  0.86850  0.29290  Biso   1.000  H
  C153     1.0000 0.34490  0.82707  0.34131  Biso   1.000  C
  H112     1.0000 0.38760  0.82840  0.33420  Biso   1.000  H
  C154     1.0000 0.33480  0.80060  0.37662  Biso   1.000  C
  C155     1.0000 0.83230  0.64671  0.31122  Biso   1.000  C
  C156     1.0000 0.75890  0.63398  0.28758  Biso   1.000  C
  C157     1.0000 0.73290  0.62303  0.23150  Biso   1.000  C
  H113     1.0000 0.75950  0.62760  0.20810  Biso   1.000  H
  C158     1.0000 0.71780  0.62805  0.32170  Biso   1.000  C
  H114     1.0000 0.73410  0.63490  0.35950  Biso   1.000  H
  C159     1.0000 0.66950  0.60580  0.20950  Biso   1.000  C
  H115     1.0000 0.65440  0.59860  0.17190  Biso   1.000  H
  C160     1.0000 0.62840  0.59910  0.24200  Biso   1.000  C
  C161     1.0000 0.65160  0.61160  0.29890  Biso   1.000  C
  H116     1.0000 0.62260  0.60890  0.32090  Biso   1.000  H
  C162     1.0000 0.98210  0.69976  0.38808  Biso   1.000  C
  C163     1.0000 0.97240  0.73484  0.37265  Biso   1.000  C
  H117     1.0000 0.92990  0.74220  0.34620  Biso   1.000  H
  C164     1.0000 0.02580  0.75908  0.39650  Biso   1.000  C
  H118     1.0000 0.01900  0.78260  0.38540  Biso   1.000  H
  C165     1.0000 0.09900  0.71343  0.45410  Biso   1.000  C
  H119     1.0000 0.14050  0.70610  0.48180  Biso   1.000  H
  C166     1.0000 0.09020  0.74859  0.43730  Biso   1.000  C
  C167     1.0000 0.92900  0.67367  0.35595  Biso   1.000  C
  C168     1.0000 0.04520  0.68941  0.42928  Biso   1.000  C
  H120     1.0000 0.05150  0.66590  0.44030  Biso   1.000  H
  N31      1.0000 0.05048  0.57648  0.32784  Biso   1.000  N
  N32      1.0000 0.05290  0.51851  0.33751  Biso   1.000  N
  N33      1.0000 0.09285  0.56270  0.29893  Biso   1.000  N
  N34      1.0000 0.78177  0.70434  0.58956  Biso   1.000  N
  N35      1.0000 0.72591  0.75406  0.59433  Biso   1.000  N
  N36      1.0000 0.68441  0.73569  0.54694  Biso   1.000  N
  N37      1.0000 0.49596  0.75473  0.45586  Biso   1.000  N
  N38      1.0000 0.45978  0.78500  0.43083  Biso   1.000  N
  N39      1.0000 0.38178  0.74139  0.41393  Biso   1.000  N
  N40      1.0000 0.02924  0.37303  0.40746  Biso   1.000  N
  N41      1.0000 0.09037  0.37111  0.39172  Biso   1.000  N
  N42      1.0000 0.05752  0.42674  0.38935  Biso   1.000  N
  N43      1.0000 0.88513  0.62939  0.30188  Biso   1.000  N
  N44      1.0000 0.94717  0.64676  0.33006  Biso   1.000  N
  N45      1.0000 0.85738  0.67476  0.34545  Biso   1.000  N
  N46      1.0000 0.20685  0.69632  0.35301  Biso   1.000  N
  N47      1.0000 0.11502  0.66027  0.33650  Biso   1.000  N
  N48      1.0000 0.09385  0.68862  0.30081  Biso   1.000  N
  N49      1.0000 0.17480  0.87549  0.30340  Biso   1.000  N
  H121     1.0000 0.13500  0.87440  0.30950  Biso   1.000  H
  H122     1.0000 0.18220  0.89200  0.28250  Biso   1.000  H
  N50      1.0000 0.13190  0.83100  0.17800  Biso   1.000  N
  H123     1.0000 0.16310  0.83480  0.16200  Biso   1.000  H
  H124     1.0000 0.09620  0.84490  0.17190  Biso   1.000  H
  N51      1.0000 0.82290  0.58179  0.45430  Biso   1.000  N
  H125     1.0000 0.83160  0.59820  0.47920  Biso   1.000  H
  H126     1.0000 0.78360  0.57040  0.44530  Biso   1.000  H
  N52      1.0000 0.24170  0.44730  0.19140  Biso   1.000  N
  H127     1.0000 0.22450  0.42770  0.17540  Biso   1.000  H
  H128     1.0000 0.28110  0.45510  0.18910  Biso   1.000  H
  N53      1.0000 0.14520  0.77255  0.46050  Biso   1.000  N
  H129     1.0000 0.18420  0.76560  0.48510  Biso   1.000  H
  H130     1.0000 0.14000  0.79430  0.45030  Biso   1.000  H
  N54      1.0000 0.57710  0.59427  0.40320  Biso   1.000  N
  H131     1.0000 0.54890  0.59830  0.36950  Biso   1.000  H
  H132     1.0000 0.58140  0.57320  0.41670  Biso   1.000  H
  N55      1.0000 0.51120  0.58793  0.51230  Biso   1.000  N
  H133     1.0000 0.54410  0.58320  0.54370  Biso   1.000  H
  H134     1.0000 0.48920  0.57110  0.49070  Biso   1.000  H
  N56      1.0000 0.98290  0.77487  0.83170  Biso   1.000  N
  H135     1.0000 0.00750  0.75900  0.85420  Biso   1.000  H
  H136     1.0000 0.98800  0.79670  0.84150  Biso   1.000  H
  N57      1.0000 0.35420  0.57619  0.54320  Biso   1.000  N
  H137     1.0000 0.37400  0.58470  0.57650  Biso   1.000  H
  H138     1.0000 0.35950  0.55430  0.53680  Biso   1.000  H
  N58      1.0000 0.36730  0.43818  0.35320  Biso   1.000  N
  H139     1.0000 0.38470  0.42500  0.33330  Biso   1.000  H
  H140     1.0000 0.39100  0.45590  0.37120  Biso   1.000  H
  N59      1.0000 0.79680  0.46690  0.47860  Biso   1.000  N
  H141     1.0000 0.79980  0.48880  0.48760  Biso   1.000  H
  H142     1.0000 0.76100  0.45470  0.47950  Biso   1.000  H
  N60      1.0000 0.56200  0.58180  0.21880  Biso   1.000  N
  H143     1.0000 0.54750  0.57540  0.18400  Biso   1.000  H
  H144     1.0000 0.53630  0.57770  0.23970  Biso   1.000  H
  Cu17     1.0000 0.46096  0.12661  0.16772  Biso   1.000  Cu
  Cu18     1.0000 0.44878  0.97368  0.13377  Biso   1.000  Cu
  Cu19     1.0000 0.90518  0.25486  0.99922  Biso   1.000  Cu
  Cu20     1.0000 0.20437  0.21764  0.11623  Biso   1.000  Cu
  Cu21     1.0000 0.99409  0.32871  0.06743  Biso   1.000  Cu
  Cu22     1.0000 0.68555  0.20669  0.11800  Biso   1.000  Cu
  Cu23     1.0000 0.85105  0.33082  0.09347  Biso   1.000  Cu
  Cu24     1.0000 0.38982  0.09318  0.25337  Biso   1.000  Cu
  Br3      1.0000 0.86879  0.32100  0.98904  Biso   1.000  Br
  C169     1.0000 0.78100  0.20598  0.95447  Biso   1.000  C
  C170     1.0000 0.85430  0.18362  0.05071  Biso   1.000  C
  H145     1.0000 0.85890  0.20640  0.06520  Biso   1.000  H
  C171     1.0000 0.88380  0.12204  0.06370  Biso   1.000  C
  C172     1.0000 0.83740  0.11575  0.00920  Biso   1.000  C
  H146     1.0000 0.83040  0.09280  0.99560  Biso   1.000  H
  C173     1.0000 0.81120  0.17760  0.99468  Biso   1.000  C
  C174     1.0000 0.80200  0.14274  0.97520  Biso   1.000  C
  H147     1.0000 0.77160  0.13790  0.93890  Biso   1.000  H
  C175     1.0000 0.89030  0.15606  0.08500  Biso   1.000  C
  H148     1.0000 0.91860  0.16050  0.12210  Biso   1.000  H
  C176     1.0000 0.71590  0.23443  0.88097  Biso   1.000  C
  C177     1.0000 0.66130  0.24487  0.82769  Biso   1.000  C
  C178     1.0000 0.62080  0.22016  0.78920  Biso   1.000  C
  H149     1.0000 0.62540  0.19640  0.79890  Biso   1.000  H
  C179     1.0000 0.57350  0.23008  0.73650  Biso   1.000  C
  H150     1.0000 0.54740  0.21300  0.71180  Biso   1.000  H
  C180     1.0000 0.65260  0.28019  0.81130  Biso   1.000  C
  H151     1.0000 0.67850  0.29740  0.83600  Biso   1.000  H
  C181     1.0000 0.56540  0.26525  0.72070  Biso   1.000  C
  C182     1.0000 0.60580  0.29029  0.75860  Biso   1.000  C
  H152     1.0000 0.60140  0.31400  0.74870  Biso   1.000  H
  C183     1.0000 0.39420  0.90402  0.11812  Biso   1.000  C
  C184     1.0000 0.32960  0.91388  0.13004  Biso   1.000  C
  C185     1.0000 0.30310  0.89388  0.16470  Biso   1.000  C
  H153     1.0000 0.32870  0.87450  0.18350  Biso   1.000  H
  C186     1.0000 0.23880  0.90230  0.17180  Biso   1.000  C
  H154     1.0000 0.22230  0.88880  0.19570  Biso   1.000  H
  C187     1.0000 0.29060  0.94306  0.10290  Biso   1.000  C
  H155     1.0000 0.30780  0.95700  0.07980  Biso   1.000  H
  C188     1.0000 0.19930  0.93075  0.14340  Biso   1.000  C
  C189     1.0000 0.22700  0.95161  0.10970  Biso   1.000  C
  H156     1.0000 0.20230  0.97140  0.09180  Biso   1.000  H
  C190     1.0000 0.48780  0.90654  0.09338  Biso   1.000  C
  C191     1.0000 0.54170  0.95642  0.05770  Biso   1.000  C
  H157     1.0000 0.50450  0.97050  0.05950  Biso   1.000  H
  C192     1.0000 0.59290  0.97069  0.03870  Biso   1.000  C
  H158     1.0000 0.58840  0.99400  0.02660  Biso   1.000  H
  C193     1.0000 0.54450  0.92126  0.07440  Biso   1.000  C
  C194     1.0000 0.59890  0.90062  0.06890  Biso   1.000  C
  H159     1.0000 0.59960  0.87660  0.07640  Biso   1.000  H
  C195     1.0000 0.65290  0.91546  0.05210  Biso   1.000  C
  H160     1.0000 0.69040  0.90140  0.05080  Biso   1.000  H
  C196     1.0000 0.65110  0.95140  0.03710  Biso   1.000  C
  C197     1.0000 0.27350  0.14184  0.08716  Biso   1.000  C
  C198     1.0000 0.23720  0.15477  0.03340  Biso   1.000  C
  H161     1.0000 0.24120  0.17850  0.02600  Biso   1.000  H
  C199     1.0000 0.26680  0.10660  0.09760  Biso   1.000  C
  H162     1.0000 0.29110  0.09720  0.13300  Biso   1.000  H
  C200     1.0000 0.31740  0.16556  0.13239  Biso   1.000  C
  C201     1.0000 0.19510  0.13332  0.99050  Biso   1.000  C
  H163     1.0000 0.17240  0.14260  0.95480  Biso   1.000  H
  C202     1.0000 0.22360  0.08497  0.05520  Biso   1.000  C
  H164     1.0000 0.21900  0.06130  0.06280  Biso   1.000  H
  C203     1.0000 0.18700  0.09825  0.00120  Biso   1.000  C
  C204     1.0000 0.35130  0.24266  0.21958  Biso   1.000  C
  C205     1.0000 0.29870  0.24999  0.24355  Biso   1.000  C
  H165     1.0000 0.26050  0.23480  0.23750  Biso   1.000  H
  C206     1.0000 0.30380  0.27993  0.27614  Biso   1.000  C
  H166     1.0000 0.26830  0.28490  0.29140  Biso   1.000  H
  C207     1.0000 0.40710  0.26634  0.22782  Biso   1.000  C
  H167     1.0000 0.44130  0.26210  0.21100  Biso   1.000  H
  C208     1.0000 0.35010  0.20988  0.18821  Biso   1.000  C
  C209     1.0000 0.36100  0.30254  0.28640  Biso   1.000  C
  C210     1.0000 0.41190  0.29604  0.26067  Biso   1.000  C
  H168     1.0000 0.44920  0.31170  0.26570  Biso   1.000  H
  C211     1.0000 0.40680  0.02829  0.19453  Biso   1.000  C
  C212     1.0000 0.36580  0.00538  0.22022  Biso   1.000  C
  C213     1.0000 0.39320  0.97353  0.24560  Biso   1.000  C
  H169     1.0000 0.43550  0.96500  0.24280  Biso   1.000  H
  C214     1.0000 0.29400  0.96643  0.27920  Biso   1.000  C
  C215     1.0000 0.30040  0.01693  0.22260  Biso   1.000  C
  H170     1.0000 0.28100  0.03790  0.20500  Biso   1.000  H
  C216     1.0000 0.35740  0.95456  0.27490  Biso   1.000  C
  H171     1.0000 0.37640  0.93340  0.29210  Biso   1.000  H
  C217     1.0000 0.26470  0.99742  0.25090  Biso   1.000  C
  H172     1.0000 0.22050  0.00490  0.25110  Biso   1.000  H
  C218     1.0000 0.58740  0.03669  0.13370  Biso   1.000  C
  H173     1.0000 0.59560  0.01800  0.15900  Biso   1.000  H
  C219     1.0000 0.56360  0.09182  0.05774  Biso   1.000  C
  H174     1.0000 0.55530  0.11050  0.03230  Biso   1.000  H
  C220     1.0000 0.52360  0.05494  0.11962  Biso   1.000  C
  C221     1.0000 0.47300  0.04933  0.15003  Biso   1.000  C
  C222     1.0000 0.51260  0.08279  0.08071  Biso   1.000  C
  H175     1.0000 0.47020  0.09520  0.07040  Biso   1.000  H
  C223     1.0000 0.62770  0.07365  0.07170  Biso   1.000  C
  C224     1.0000 0.63950  0.04594  0.11040  Biso   1.000  C
  H176     1.0000 0.68210  0.03360  0.12070  Biso   1.000  H
  C225     1.0000 0.03680  0.19272  0.03703  Biso   1.000  C
  C226     1.0000 0.98550  0.18406  0.98478  Biso   1.000  C
  H177     1.0000 0.96110  0.20200  0.96110  Biso   1.000  H
  C227     1.0000 0.07270  0.16537  0.07210  Biso   1.000  C
  H178     1.0000 0.10690  0.17040  0.10670  Biso   1.000  H
  C228     1.0000 0.05740  0.13063  0.05530  Biso   1.000  C
  H179     1.0000 0.08140  0.11260  0.07890  Biso   1.000  H
  C229     1.0000 0.05230  0.22943  0.05491  Biso   1.000  C
  C230     1.0000 0.97090  0.14982  0.96816  Biso   1.000  C
  H180     1.0000 0.93710  0.14480  0.93330  Biso   1.000  H
  C231     1.0000 0.00630  0.12232  0.00310  Biso   1.000  C
  C232     1.0000 0.10790  0.27614  0.09425  Biso   1.000  C
  C233     1.0000 0.23090  0.29932  0.11451  Biso   1.000  C
  H181     1.0000 0.23910  0.28160  0.09180  Biso   1.000  H
  C234     1.0000 0.28360  0.32361  0.13860  Biso   1.000  C
  H182     1.0000 0.32660  0.32200  0.13200  Biso   1.000  H
  C235     1.0000 0.27270  0.35058  0.17258  Biso   1.000  C
  C236     1.0000 0.20810  0.35135  0.18320  Biso   1.000  C
  H183     1.0000 0.20080  0.36850  0.20710  Biso   1.000  H
  C237     1.0000 0.15510  0.32707  0.15869  Biso   1.000  C
  H184     1.0000 0.11240  0.32840  0.16580  Biso   1.000  H
  C238     1.0000 0.16520  0.30060  0.12338  Biso   1.000  C
  C239     1.0000 0.66770  0.14671  0.18878  Biso   1.000  C
  C240     1.0000 0.74110  0.13398  0.21242  Biso   1.000  C
  C241     1.0000 0.76710  0.12303  0.26850  Biso   1.000  C
  H185     1.0000 0.74050  0.12760  0.29190  Biso   1.000  H
  C242     1.0000 0.78220  0.12805  0.17830  Biso   1.000  C
  H186     1.0000 0.76590  0.13490  0.14050  Biso   1.000  H
  C243     1.0000 0.83050  0.10580  0.29050  Biso   1.000  C
  H187     1.0000 0.84560  0.09860  0.32810  Biso   1.000  H
  C244     1.0000 0.87160  0.09910  0.25800  Biso   1.000  C
  C245     1.0000 0.84840  0.11160  0.20110  Biso   1.000  C
  H188     1.0000 0.87740  0.10890  0.17910  Biso   1.000  H
  C246     1.0000 0.51790  0.19976  0.11192  Biso   1.000  C
  C247     1.0000 0.52760  0.23484  0.12735  Biso   1.000  C
  H189     1.0000 0.57010  0.24220  0.15380  Biso   1.000  H
  C248     1.0000 0.47420  0.25908  0.10350  Biso   1.000  C
  H190     1.0000 0.48100  0.28260  0.11460  Biso   1.000  H
  C249     1.0000 0.40100  0.21343  0.04590  Biso   1.000  C
  H191     1.0000 0.35950  0.20610  0.01820  Biso   1.000  H
  C250     1.0000 0.40980  0.24859  0.06270  Biso   1.000  C
  C251     1.0000 0.57100  0.17367  0.14405  Biso   1.000  C
  C252     1.0000 0.45480  0.18941  0.07072  Biso   1.000  C
  H192     1.0000 0.44850  0.16590  0.05970  Biso   1.000  H
  N61      1.0000 0.44952  0.07648  0.17216  Biso   1.000  N
  N62      1.0000 0.44710  0.01851  0.16249  Biso   1.000  N
  N63      1.0000 0.40715  0.06270  0.20107  Biso   1.000  N
  N64      1.0000 0.71823  0.20434  0.91044  Biso   1.000  N
  N65      1.0000 0.77409  0.25406  0.90567  Biso   1.000  N
  N66      1.0000 0.81559  0.23569  0.95306  Biso   1.000  N
  N67      1.0000 0.00404  0.25473  0.04414  Biso   1.000  N
  N68      1.0000 0.04022  0.28500  0.06917  Biso   1.000  N
  N69      1.0000 0.11822  0.24139  0.08607  Biso   1.000  N
  N70      1.0000 0.47076  0.87303  0.09254  Biso   1.000  N
  N71      1.0000 0.40963  0.87111  0.10828  Biso   1.000  N
  N72      1.0000 0.44248  0.92674  0.11065  Biso   1.000  N
  N73      1.0000 0.61487  0.12939  0.19812  Biso   1.000  N
  N74      1.0000 0.55283  0.14676  0.16994  Biso   1.000  N
  N75      1.0000 0.64262  0.17476  0.15455  Biso   1.000  N
  N76      1.0000 0.29315  0.19632  0.14699  Biso   1.000  N
  N77      1.0000 0.38498  0.16027  0.16350  Biso   1.000  N
  N78      1.0000 0.40615  0.18862  0.19919  Biso   1.000  N
  N79      1.0000 0.32520  0.37549  0.19660  Biso   1.000  N
  H193     1.0000 0.36500  0.37440  0.19050  Biso   1.000  H
  H194     1.0000 0.31780  0.39200  0.21750  Biso   1.000  H
  N80      1.0000 0.36810  0.33100  0.32200  Biso   1.000  N
  H195     1.0000 0.33690  0.33480  0.33800  Biso   1.000  H
  H196     1.0000 0.40380  0.34490  0.32810  Biso   1.000  H
  N81      1.0000 0.67710  0.08179  0.04570  Biso   1.000  N
  H197     1.0000 0.66840  0.09820  0.02080  Biso   1.000  H
  H198     1.0000 0.71640  0.07040  0.05470  Biso   1.000  H
  N82      1.0000 0.25830  0.94730  0.30860  Biso   1.000  N
  H199     1.0000 0.27550  0.92770  0.32460  Biso   1.000  H
  H200     1.0000 0.21890  0.95510  0.31090  Biso   1.000  H
  N83      1.0000 0.35480  0.27255  0.03950  Biso   1.000  N
  H201     1.0000 0.31580  0.26560  0.01490  Biso   1.000  H
  H202     1.0000 0.36000  0.29430  0.04970  Biso   1.000  H
  N84      1.0000 0.92290  0.09427  0.09680  Biso   1.000  N
  H203     1.0000 0.95110  0.09830  0.13050  Biso   1.000  H
  H204     1.0000 0.91860  0.07320  0.08330  Biso   1.000  H
  N85      1.0000 0.98880  0.08793  0.98770  Biso   1.000  N
  H205     1.0000 0.95590  0.08320  0.95630  Biso   1.000  H
  H206     1.0000 0.01080  0.07110  0.00930  Biso   1.000  H
  N86      1.0000 0.51710  0.27487  0.66830  Biso   1.000  N
  H207     1.0000 0.49250  0.25900  0.64580  Biso   1.000  H
  H208     1.0000 0.51200  0.29670  0.65850  Biso   1.000  H
  N87      1.0000 0.14580  0.07619  0.95680  Biso   1.000  N
  H209     1.0000 0.12600  0.08470  0.92350  Biso   1.000  H
  H210     1.0000 0.14050  0.05430  0.96320  Biso   1.000  H
  N88      1.0000 0.13270  0.93818  0.14680  Biso   1.000  N
  H211     1.0000 0.11530  0.92500  0.16670  Biso   1.000  H
  H212     1.0000 0.10900  0.95590  0.12880  Biso   1.000  H
  N89      1.0000 0.70320  0.96690  0.02140  Biso   1.000  N
  H213     1.0000 0.70020  0.98880  0.01240  Biso   1.000  H
  H214     1.0000 0.73900  0.95470  0.02050  Biso   1.000  H
  N90      1.0000 0.93800  0.08180  0.28120  Biso   1.000  N
  H215     1.0000 0.95250  0.07540  0.31600  Biso   1.000  H
  H216     1.0000 0.96370  0.07770  0.26030  Biso   1.000  H
  Cu25     1.0000 0.96096  0.62661  0.16772  Biso   1.000  Cu
  Cu26     1.0000 0.94878  0.47368  0.13377  Biso   1.000  Cu
  Cu27     1.0000 0.40518  0.75486  0.99922  Biso   1.000  Cu
  Cu28     1.0000 0.70437  0.71764  0.11623  Biso   1.000  Cu
  Cu29     1.0000 0.49409  0.82871  0.06743  Biso   1.000  Cu
  Cu30     1.0000 0.18555  0.70669  0.11800  Biso   1.000  Cu
  Cu31     1.0000 0.35105  0.83082  0.09347  Biso   1.000  Cu
  Cu32     1.0000 0.88982  0.59318  0.25337  Biso   1.000  Cu
  Br4      1.0000 0.36879  0.82100  0.98904  Biso   1.000  Br
  C253     1.0000 0.28100  0.70598  0.95447  Biso   1.000  C
  C254     1.0000 0.35430  0.68362  0.05071  Biso   1.000  C
  H217     1.0000 0.35890  0.70640  0.06520  Biso   1.000  H
  C255     1.0000 0.38380  0.62204  0.06370  Biso   1.000  C
  C256     1.0000 0.33740  0.61575  0.00920  Biso   1.000  C
  H218     1.0000 0.33040  0.59280  0.99560  Biso   1.000  H
  C257     1.0000 0.31120  0.67760  0.99468  Biso   1.000  C
  C258     1.0000 0.30200  0.64274  0.97520  Biso   1.000  C
  H219     1.0000 0.27160  0.63790  0.93890  Biso   1.000  H
  C259     1.0000 0.39030  0.65606  0.08500  Biso   1.000  C
  H220     1.0000 0.41860  0.66050  0.12210  Biso   1.000  H
  C260     1.0000 0.21590  0.73443  0.88097  Biso   1.000  C
  C261     1.0000 0.16130  0.74487  0.82769  Biso   1.000  C
  C262     1.0000 0.12080  0.72016  0.78920  Biso   1.000  C
  H221     1.0000 0.12540  0.69640  0.79890  Biso   1.000  H
  C263     1.0000 0.07350  0.73008  0.73650  Biso   1.000  C
  H222     1.0000 0.04740  0.71300  0.71180  Biso   1.000  H
  C264     1.0000 0.15260  0.78019  0.81130  Biso   1.000  C
  H223     1.0000 0.17850  0.79740  0.83600  Biso   1.000  H
  C265     1.0000 0.06540  0.76525  0.72070  Biso   1.000  C
  C266     1.0000 0.10580  0.79029  0.75860  Biso   1.000  C
  H224     1.0000 0.10140  0.81400  0.74870  Biso   1.000  H
  C267     1.0000 0.89420  0.40402  0.11812  Biso   1.000  C
  C268     1.0000 0.82960  0.41388  0.13004  Biso   1.000  C
  C269     1.0000 0.80310  0.39388  0.16470  Biso   1.000  C
  H225     1.0000 0.82870  0.37450  0.18350  Biso   1.000  H
  C270     1.0000 0.73880  0.40230  0.17180  Biso   1.000  C
  H226     1.0000 0.72230  0.38880  0.19570  Biso   1.000  H
  C271     1.0000 0.79060  0.44306  0.10290  Biso   1.000  C
  H227     1.0000 0.80780  0.45700  0.07980  Biso   1.000  H
  C272     1.0000 0.69930  0.43075  0.14340  Biso   1.000  C
  C273     1.0000 0.72700  0.45161  0.10970  Biso   1.000  C
  H228     1.0000 0.70230  0.47140  0.09180  Biso   1.000  H
  C274     1.0000 0.98780  0.40654  0.09338  Biso   1.000  C
  C275     1.0000 0.04170  0.45642  0.05770  Biso   1.000  C
  H229     1.0000 0.00450  0.47050  0.05950  Biso   1.000  H
  C276     1.0000 0.09290  0.47069  0.03870  Biso   1.000  C
  H230     1.0000 0.08840  0.49400  0.02660  Biso   1.000  H
  C277     1.0000 0.04450  0.42126  0.07440  Biso   1.000  C
  C278     1.0000 0.09890  0.40062  0.06890  Biso   1.000  C
  H231     1.0000 0.09960  0.37660  0.07640  Biso   1.000  H
  C279     1.0000 0.15290  0.41546  0.05210  Biso   1.000  C
  H232     1.0000 0.19040  0.40140  0.05080  Biso   1.000  H
  C280     1.0000 0.15110  0.45140  0.03710  Biso   1.000  C
  C281     1.0000 0.77350  0.64184  0.08716  Biso   1.000  C
  C282     1.0000 0.73720  0.65477  0.03340  Biso   1.000  C
  H233     1.0000 0.74120  0.67850  0.02600  Biso   1.000  H
  C283     1.0000 0.76680  0.60660  0.09760  Biso   1.000  C
  H234     1.0000 0.79110  0.59720  0.13300  Biso   1.000  H
  C284     1.0000 0.81740  0.66556  0.13239  Biso   1.000  C
  C285     1.0000 0.69510  0.63332  0.99050  Biso   1.000  C
  H235     1.0000 0.67240  0.64260  0.95480  Biso   1.000  H
  C286     1.0000 0.72360  0.58497  0.05520  Biso   1.000  C
  H236     1.0000 0.71900  0.56130  0.06280  Biso   1.000  H
  C287     1.0000 0.68700  0.59825  0.00120  Biso   1.000  C
  C288     1.0000 0.85130  0.74266  0.21958  Biso   1.000  C
  C289     1.0000 0.79870  0.74999  0.24355  Biso   1.000  C
  H237     1.0000 0.76050  0.73480  0.23750  Biso   1.000  H
  C290     1.0000 0.80380  0.77993  0.27614  Biso   1.000  C
  H238     1.0000 0.76830  0.78490  0.29140  Biso   1.000  H
  C291     1.0000 0.90710  0.76634  0.22782  Biso   1.000  C
  H239     1.0000 0.94130  0.76210  0.21100  Biso   1.000  H
  C292     1.0000 0.85010  0.70988  0.18821  Biso   1.000  C
  C293     1.0000 0.86100  0.80254  0.28640  Biso   1.000  C
  C294     1.0000 0.91190  0.79604  0.26067  Biso   1.000  C
  H240     1.0000 0.94920  0.81170  0.26570  Biso   1.000  H
  C295     1.0000 0.90680  0.52829  0.19453  Biso   1.000  C
  C296     1.0000 0.86580  0.50538  0.22022  Biso   1.000  C
  C297     1.0000 0.89320  0.47353  0.24560  Biso   1.000  C
  H241     1.0000 0.93550  0.46500  0.24280  Biso   1.000  H
  C298     1.0000 0.79400  0.46643  0.27920  Biso   1.000  C
  C299     1.0000 0.80040  0.51693  0.22260  Biso   1.000  C
  H242     1.0000 0.78100  0.53790  0.20500  Biso   1.000  H
  C300     1.0000 0.85740  0.45456  0.27490  Biso   1.000  C
  H243     1.0000 0.87640  0.43340  0.29210  Biso   1.000  H
  C301     1.0000 0.76470  0.49742  0.25090  Biso   1.000  C
  H244     1.0000 0.72050  0.50490  0.25110  Biso   1.000  H
  C302     1.0000 0.08740  0.53669  0.13370  Biso   1.000  C
  H245     1.0000 0.09560  0.51800  0.15900  Biso   1.000  H
  C303     1.0000 0.06360  0.59182  0.05774  Biso   1.000  C
  H246     1.0000 0.05530  0.61050  0.03230  Biso   1.000  H
  C304     1.0000 0.02360  0.55494  0.11962  Biso   1.000  C
  C305     1.0000 0.97300  0.54933  0.15003  Biso   1.000  C
  C306     1.0000 0.01260  0.58279  0.08071  Biso   1.000  C
  H247     1.0000 0.97020  0.59520  0.07040  Biso   1.000  H
  C307     1.0000 0.12770  0.57365  0.07170  Biso   1.000  C
  C308     1.0000 0.13950  0.54594  0.11040  Biso   1.000  C
  H248     1.0000 0.18210  0.53360  0.12070  Biso   1.000  H
  C309     1.0000 0.53680  0.69272  0.03703  Biso   1.000  C
  C310     1.0000 0.48550  0.68406  0.98478  Biso   1.000  C
  H249     1.0000 0.46110  0.70200  0.96110  Biso   1.000  H
  C311     1.0000 0.57270  0.66537  0.07210  Biso   1.000  C
  H250     1.0000 0.60690  0.67040  0.10670  Biso   1.000  H
  C312     1.0000 0.55740  0.63063  0.05530  Biso   1.000  C
  H251     1.0000 0.58140  0.61260  0.07890  Biso   1.000  H
  C313     1.0000 0.55230  0.72943  0.05491  Biso   1.000  C
  C314     1.0000 0.47090  0.64982  0.96816  Biso   1.000  C
  H252     1.0000 0.43710  0.64480  0.93330  Biso   1.000  H
  C315     1.0000 0.50630  0.62232  0.00310  Biso   1.000  C
  C316     1.0000 0.60790  0.77614  0.09425  Biso   1.000  C
  C317     1.0000 0.73090  0.79932  0.11451  Biso   1.000  C
  H253     1.0000 0.73910  0.78160  0.09180  Biso   1.000  H
  C318     1.0000 0.78360  0.82361  0.13860  Biso   1.000  C
  H254     1.0000 0.82660  0.82200  0.13200  Biso   1.000  H
  C319     1.0000 0.77270  0.85058  0.17258  Biso   1.000  C
  C320     1.0000 0.70810  0.85135  0.18320  Biso   1.000  C
  H255     1.0000 0.70080  0.86850  0.20710  Biso   1.000  H
  C321     1.0000 0.65510  0.82707  0.15869  Biso   1.000  C
  H256     1.0000 0.61240  0.82840  0.16580  Biso   1.000  H
  C322     1.0000 0.66520  0.80060  0.12338  Biso   1.000  C
  C323     1.0000 0.16770  0.64671  0.18878  Biso   1.000  C
  C324     1.0000 0.24110  0.63398  0.21242  Biso   1.000  C
  C325     1.0000 0.26710  0.62303  0.26850  Biso   1.000  C
  H257     1.0000 0.24050  0.62760  0.29190  Biso   1.000  H
  C326     1.0000 0.28220  0.62805  0.17830  Biso   1.000  C
  H258     1.0000 0.26590  0.63490  0.14050  Biso   1.000  H
  C327     1.0000 0.33050  0.60580  0.29050  Biso   1.000  C
  H259     1.0000 0.34560  0.59860  0.32810  Biso   1.000  H
  C328     1.0000 0.37160  0.59910  0.25800  Biso   1.000  C
  C329     1.0000 0.34840  0.61160  0.20110  Biso   1.000  C
  H260     1.0000 0.37740  0.60890  0.17910  Biso   1.000  H
  C330     1.0000 0.01790  0.69976  0.11192  Biso   1.000  C
  C331     1.0000 0.02760  0.73484  0.12735  Biso   1.000  C
  H261     1.0000 0.07010  0.74220  0.15380  Biso   1.000  H
  C332     1.0000 0.97420  0.75908  0.10350  Biso   1.000  C
  H262     1.0000 0.98100  0.78260  0.11460  Biso   1.000  H
  C333     1.0000 0.90100  0.71343  0.04590  Biso   1.000  C
  H263     1.0000 0.85950  0.70610  0.01820  Biso   1.000  H
  C334     1.0000 0.90980  0.74859  0.06270  Biso   1.000  C
  C335     1.0000 0.07100  0.67367  0.14405  Biso   1.000  C
  C336     1.0000 0.95480  0.68941  0.07072  Biso   1.000  C
  H264     1.0000 0.94850  0.66590  0.05970  Biso   1.000  H
  N91      1.0000 0.94952  0.57648  0.17216  Biso   1.000  N
  N92      1.0000 0.94710  0.51851  0.16249  Biso   1.000  N
  N93      1.0000 0.90715  0.56270  0.20107  Biso   1.000  N
  N94      1.0000 0.21823  0.70434  0.91044  Biso   1.000  N
  N95      1.0000 0.27409  0.75406  0.90567  Biso   1.000  N
  N96      1.0000 0.31559  0.73569  0.95306  Biso   1.000  N
  N97      1.0000 0.50404  0.75473  0.04414  Biso   1.000  N
  N98      1.0000 0.54022  0.78500  0.06917  Biso   1.000  N
  N99      1.0000 0.61822  0.74139  0.08607  Biso   1.000  N
  N100     1.0000 0.97076  0.37303  0.09254  Biso   1.000  N
  N101     1.0000 0.90963  0.37111  0.10828  Biso   1.000  N
  N102     1.0000 0.94248  0.42674  0.11065  Biso   1.000  N
  N103     1.0000 0.11487  0.62939  0.19812  Biso   1.000  N
  N104     1.0000 0.05283  0.64676  0.16994  Biso   1.000  N
  N105     1.0000 0.14262  0.67476  0.15455  Biso   1.000  N
  N106     1.0000 0.79315  0.69632  0.14699  Biso   1.000  N
  N107     1.0000 0.88498  0.66027  0.16350  Biso   1.000  N
  N108     1.0000 0.90615  0.68862  0.19919  Biso   1.000  N
  N109     1.0000 0.82520  0.87549  0.19660  Biso   1.000  N
  H265     1.0000 0.86500  0.87440  0.19050  Biso   1.000  H
  H266     1.0000 0.81780  0.89200  0.21750  Biso   1.000  H
  N110     1.0000 0.86810  0.83100  0.32200  Biso   1.000  N
  H267     1.0000 0.83690  0.83480  0.33800  Biso   1.000  H
  H268     1.0000 0.90380  0.84490  0.32810  Biso   1.000  H
  N111     1.0000 0.17710  0.58179  0.04570  Biso   1.000  N
  H269     1.0000 0.16840  0.59820  0.02080  Biso   1.000  H
  H270     1.0000 0.21640  0.57040  0.05470  Biso   1.000  H
  N112     1.0000 0.75830  0.44730  0.30860  Biso   1.000  N
  H271     1.0000 0.77550  0.42770  0.32460  Biso   1.000  H
  H272     1.0000 0.71890  0.45510  0.31090  Biso   1.000  H
  N113     1.0000 0.85480  0.77255  0.03950  Biso   1.000  N
  H273     1.0000 0.81580  0.76560  0.01490  Biso   1.000  H
  H274     1.0000 0.86000  0.79430  0.04970  Biso   1.000  H
  N114     1.0000 0.42290  0.59427  0.09680  Biso   1.000  N
  H275     1.0000 0.45110  0.59830  0.13050  Biso   1.000  H
  H276     1.0000 0.41860  0.57320  0.08330  Biso   1.000  H
  N115     1.0000 0.48880  0.58793  0.98770  Biso   1.000  N
  H277     1.0000 0.45590  0.58320  0.95630  Biso   1.000  H
  H278     1.0000 0.51080  0.57110  0.00930  Biso   1.000  H
  N116     1.0000 0.01710  0.77487  0.66830  Biso   1.000  N
  H279     1.0000 0.99250  0.75900  0.64580  Biso   1.000  H
  H280     1.0000 0.01200  0.79670  0.65850  Biso   1.000  H
  N117     1.0000 0.64580  0.57619  0.95680  Biso   1.000  N
  H281     1.0000 0.62600  0.58470  0.92350  Biso   1.000  H
  H282     1.0000 0.64050  0.55430  0.96320  Biso   1.000  H
  N118     1.0000 0.63270  0.43818  0.14680  Biso   1.000  N
  H283     1.0000 0.61530  0.42500  0.16670  Biso   1.000  H
  H284     1.0000 0.60900  0.45590  0.12880  Biso   1.000  H
  N119     1.0000 0.20320  0.46690  0.02140  Biso   1.000  N
  H285     1.0000 0.20020  0.48880  0.01240  Biso   1.000  H
  H286     1.0000 0.23900  0.45470  0.02050  Biso   1.000  H
  N120     1.0000 0.43800  0.58180  0.28120  Biso   1.000  N
  H287     1.0000 0.45250  0.57540  0.31600  Biso   1.000  H
  H288     1.0000 0.46370  0.57770  0.26030  Biso   1.000  H
  Cu33     1.0000 0.46096  0.87339  0.66772  Biso   1.000  Cu
  Cu34     1.0000 0.44878  0.02632  0.63377  Biso   1.000  Cu
  Cu35     1.0000 0.90518  0.74514  0.49922  Biso   1.000  Cu
  Cu36     1.0000 0.20437  0.78236  0.61623  Biso   1.000  Cu
  Cu37     1.0000 0.99409  0.67129  0.56743  Biso   1.000  Cu
  Cu38     1.0000 0.68555  0.79331  0.61800  Biso   1.000  Cu
  Cu39     1.0000 0.85105  0.66918  0.59347  Biso   1.000  Cu
  Cu40     1.0000 0.38982  0.90682  0.75337  Biso   1.000  Cu
  Br5      1.0000 0.86879  0.67900  0.48904  Biso   1.000  Br
  C337     1.0000 0.78100  0.79402  0.45447  Biso   1.000  C
  C338     1.0000 0.85430  0.81638  0.55071  Biso   1.000  C
  H289     1.0000 0.85890  0.79360  0.56520  Biso   1.000  H
  C339     1.0000 0.88380  0.87796  0.56370  Biso   1.000  C
  C340     1.0000 0.83740  0.88425  0.50920  Biso   1.000  C
  H290     1.0000 0.83040  0.90720  0.49560  Biso   1.000  H
  C341     1.0000 0.81120  0.82240  0.49468  Biso   1.000  C
  C342     1.0000 0.80200  0.85726  0.47520  Biso   1.000  C
  H291     1.0000 0.77160  0.86210  0.43890  Biso   1.000  H
  C343     1.0000 0.89030  0.84394  0.58500  Biso   1.000  C
  H292     1.0000 0.91860  0.83950  0.62210  Biso   1.000  H
  C344     1.0000 0.71590  0.76557  0.38097  Biso   1.000  C
  C345     1.0000 0.66130  0.75513  0.32769  Biso   1.000  C
  C346     1.0000 0.62080  0.77984  0.28920  Biso   1.000  C
  H293     1.0000 0.62540  0.80360  0.29890  Biso   1.000  H
  C347     1.0000 0.57350  0.76992  0.23650  Biso   1.000  C
  H294     1.0000 0.54740  0.78700  0.21180  Biso   1.000  H
  C348     1.0000 0.65260  0.71981  0.31130  Biso   1.000  C
  H295     1.0000 0.67850  0.70260  0.33600  Biso   1.000  H
  C349     1.0000 0.56540  0.73475  0.22070  Biso   1.000  C
  C350     1.0000 0.60580  0.70971  0.25860  Biso   1.000  C
  H296     1.0000 0.60140  0.68600  0.24870  Biso   1.000  H
  C351     1.0000 0.39420  0.09598  0.61812  Biso   1.000  C
  C352     1.0000 0.32960  0.08612  0.63004  Biso   1.000  C
  C353     1.0000 0.30310  0.10612  0.66470  Biso   1.000  C
  H297     1.0000 0.32870  0.12550  0.68350  Biso   1.000  H
  C354     1.0000 0.23880  0.09770  0.67180  Biso   1.000  C
  H298     1.0000 0.22230  0.11120  0.69570  Biso   1.000  H
  C355     1.0000 0.29060  0.05694  0.60290  Biso   1.000  C
  H299     1.0000 0.30780  0.04300  0.57980  Biso   1.000  H
  C356     1.0000 0.19930  0.06925  0.64340  Biso   1.000  C
  C357     1.0000 0.22700  0.04839  0.60970  Biso   1.000  C
  H300     1.0000 0.20230  0.02860  0.59180  Biso   1.000  H
  C358     1.0000 0.48780  0.09346  0.59338  Biso   1.000  C
  C359     1.0000 0.54170  0.04358  0.55770  Biso   1.000  C
  H301     1.0000 0.50450  0.02950  0.55950  Biso   1.000  H
  C360     1.0000 0.59290  0.02931  0.53870  Biso   1.000  C
  H302     1.0000 0.58840  0.00600  0.52660  Biso   1.000  H
  C361     1.0000 0.54450  0.07874  0.57440  Biso   1.000  C
  C362     1.0000 0.59890  0.09938  0.56890  Biso   1.000  C
  H303     1.0000 0.59960  0.12340  0.57640  Biso   1.000  H
  C363     1.0000 0.65290  0.08454  0.55210  Biso   1.000  C
  H304     1.0000 0.69040  0.09860  0.55080  Biso   1.000  H
  C364     1.0000 0.65110  0.04860  0.53710  Biso   1.000  C
  C365     1.0000 0.27350  0.85816  0.58716  Biso   1.000  C
  C366     1.0000 0.23720  0.84523  0.53340  Biso   1.000  C
  H305     1.0000 0.24120  0.82150  0.52600  Biso   1.000  H
  C367     1.0000 0.26680  0.89340  0.59760  Biso   1.000  C
  H306     1.0000 0.29110  0.90280  0.63300  Biso   1.000  H
  C368     1.0000 0.31740  0.83444  0.63239  Biso   1.000  C
  C369     1.0000 0.19510  0.86668  0.49050  Biso   1.000  C
  H307     1.0000 0.17240  0.85740  0.45480  Biso   1.000  H
  C370     1.0000 0.22360  0.91503  0.55520  Biso   1.000  C
  H308     1.0000 0.21900  0.93870  0.56280  Biso   1.000  H
  C371     1.0000 0.18700  0.90175  0.50120  Biso   1.000  C
  C372     1.0000 0.35130  0.75734  0.71958  Biso   1.000  C
  C373     1.0000 0.29870  0.75001  0.74355  Biso   1.000  C
  H309     1.0000 0.26050  0.76520  0.73750  Biso   1.000  H
  C374     1.0000 0.30380  0.72007  0.77614  Biso   1.000  C
  H310     1.0000 0.26830  0.71510  0.79140  Biso   1.000  H
  C375     1.0000 0.40710  0.73366  0.72782  Biso   1.000  C
  H311     1.0000 0.44130  0.73790  0.71100  Biso   1.000  H
  C376     1.0000 0.35010  0.79012  0.68821  Biso   1.000  C
  C377     1.0000 0.36100  0.69746  0.78640  Biso   1.000  C
  C378     1.0000 0.41190  0.70396  0.76067  Biso   1.000  C
  H312     1.0000 0.44920  0.68830  0.76570  Biso   1.000  H
  C379     1.0000 0.40680  0.97171  0.69453  Biso   1.000  C
  C380     1.0000 0.36580  0.99462  0.72022  Biso   1.000  C
  C381     1.0000 0.39320  0.02647  0.74560  Biso   1.000  C
  H313     1.0000 0.43550  0.03500  0.74280  Biso   1.000  H
  C382     1.0000 0.29400  0.03357  0.77920  Biso   1.000  C
  C383     1.0000 0.30040  0.98307  0.72260  Biso   1.000  C
  H314     1.0000 0.28100  0.96210  0.70500  Biso   1.000  H
  C384     1.0000 0.35740  0.04544  0.77490  Biso   1.000  C
  H315     1.0000 0.37640  0.06660  0.79210  Biso   1.000  H
  C385     1.0000 0.26470  0.00258  0.75090  Biso   1.000  C
  H316     1.0000 0.22050  0.99510  0.75110  Biso   1.000  H
  C386     1.0000 0.58740  0.96331  0.63370  Biso   1.000  C
  H317     1.0000 0.59560  0.98200  0.65900  Biso   1.000  H
  C387     1.0000 0.56360  0.90818  0.55774  Biso   1.000  C
  H318     1.0000 0.55530  0.88950  0.53230  Biso   1.000  H
  C388     1.0000 0.52360  0.94506  0.61962  Biso   1.000  C
  C389     1.0000 0.47300  0.95067  0.65003  Biso   1.000  C
  C390     1.0000 0.51260  0.91721  0.58071  Biso   1.000  C
  H319     1.0000 0.47020  0.90480  0.57040  Biso   1.000  H
  C391     1.0000 0.62770  0.92635  0.57170  Biso   1.000  C
  C392     1.0000 0.63950  0.95406  0.61040  Biso   1.000  C
  H320     1.0000 0.68210  0.96640  0.62070  Biso   1.000  H
  C393     1.0000 0.03680  0.80728  0.53703  Biso   1.000  C
  C394     1.0000 0.98550  0.81594  0.48478  Biso   1.000  C
  H321     1.0000 0.96110  0.79800  0.46110  Biso   1.000  H
  C395     1.0000 0.07270  0.83463  0.57210  Biso   1.000  C
  H322     1.0000 0.10690  0.82960  0.60670  Biso   1.000  H
  C396     1.0000 0.05740  0.86937  0.55530  Biso   1.000  C
  H323     1.0000 0.08140  0.88740  0.57890  Biso   1.000  H
  C397     1.0000 0.05230  0.77057  0.55491  Biso   1.000  C
  C398     1.0000 0.97090  0.85018  0.46816  Biso   1.000  C
  H324     1.0000 0.93710  0.85520  0.43330  Biso   1.000  H
  C399     1.0000 0.00630  0.87768  0.50310  Biso   1.000  C
  C400     1.0000 0.10790  0.72386  0.59425  Biso   1.000  C
  C401     1.0000 0.23090  0.70068  0.61451  Biso   1.000  C
  H325     1.0000 0.23910  0.71840  0.59180  Biso   1.000  H
  C402     1.0000 0.28360  0.67639  0.63860  Biso   1.000  C
  H326     1.0000 0.32660  0.67800  0.63200  Biso   1.000  H
  C403     1.0000 0.27270  0.64942  0.67258  Biso   1.000  C
  C404     1.0000 0.20810  0.64865  0.68320  Biso   1.000  C
  H327     1.0000 0.20080  0.63150  0.70710  Biso   1.000  H
  C405     1.0000 0.15510  0.67293  0.65869  Biso   1.000  C
  H328     1.0000 0.11240  0.67160  0.66580  Biso   1.000  H
  C406     1.0000 0.16520  0.69940  0.62338  Biso   1.000  C
  C407     1.0000 0.66770  0.85329  0.68878  Biso   1.000  C
  C408     1.0000 0.74110  0.86602  0.71242  Biso   1.000  C
  C409     1.0000 0.76710  0.87697  0.76850  Biso   1.000  C
  H329     1.0000 0.74050  0.87240  0.79190  Biso   1.000  H
  C410     1.0000 0.78220  0.87195  0.67830  Biso   1.000  C
  H330     1.0000 0.76590  0.86510  0.64050  Biso   1.000  H
  C411     1.0000 0.83050  0.89420  0.79050  Biso   1.000  C
  H331     1.0000 0.84560  0.90140  0.82810  Biso   1.000  H
  C412     1.0000 0.87160  0.90090  0.75800  Biso   1.000  C
  C413     1.0000 0.84840  0.88840  0.70110  Biso   1.000  C
  H332     1.0000 0.87740  0.89110  0.67910  Biso   1.000  H
  C414     1.0000 0.51790  0.80024  0.61192  Biso   1.000  C
  C415     1.0000 0.52760  0.76516  0.62735  Biso   1.000  C
  H333     1.0000 0.57010  0.75780  0.65380  Biso   1.000  H
  C416     1.0000 0.47420  0.74092  0.60350  Biso   1.000  C
  H334     1.0000 0.48100  0.71740  0.61460  Biso   1.000  H
  C417     1.0000 0.40100  0.78657  0.54590  Biso   1.000  C
  H335     1.0000 0.35950  0.79390  0.51820  Biso   1.000  H
  C418     1.0000 0.40980  0.75141  0.56270  Biso   1.000  C
  C419     1.0000 0.57100  0.82633  0.64405  Biso   1.000  C
  C420     1.0000 0.45480  0.81059  0.57072  Biso   1.000  C
  H336     1.0000 0.44850  0.83410  0.55970  Biso   1.000  H
  N121     1.0000 0.44952  0.92352  0.67216  Biso   1.000  N
  N122     1.0000 0.44710  0.98149  0.66249  Biso   1.000  N
  N123     1.0000 0.40715  0.93730  0.70107  Biso   1.000  N
  N124     1.0000 0.71823  0.79566  0.41044  Biso   1.000  N
  N125     1.0000 0.77409  0.74594  0.40567  Biso   1.000  N
  N126     1.0000 0.81559  0.76431  0.45306  Biso   1.000  N
  N127     1.0000 0.00404  0.74527  0.54414  Biso   1.000  N
  N128     1.0000 0.04022  0.71500  0.56917  Biso   1.000  N
  N129     1.0000 0.11822  0.75861  0.58607  Biso   1.000  N
  N130     1.0000 0.47076  0.12697  0.59254  Biso   1.000  N
  N131     1.0000 0.40963  0.12889  0.60828  Biso   1.000  N
  N132     1.0000 0.44248  0.07326  0.61065  Biso   1.000  N
  N133     1.0000 0.61487  0.87061  0.69812  Biso   1.000  N
  N134     1.0000 0.55283  0.85324  0.66994  Biso   1.000  N
  N135     1.0000 0.64262  0.82524  0.65455  Biso   1.000  N
  N136     1.0000 0.29315  0.80368  0.64699  Biso   1.000  N
  N137     1.0000 0.38498  0.83973  0.66350  Biso   1.000  N
  N138     1.0000 0.40615  0.81138  0.69919  Biso   1.000  N
  N139     1.0000 0.32520  0.62451  0.69660  Biso   1.000  N
  H337     1.0000 0.36500  0.62560  0.69050  Biso   1.000  H
  H338     1.0000 0.31780  0.60800  0.71750  Biso   1.000  H
  N140     1.0000 0.36810  0.66900  0.82200  Biso   1.000  N
  H339     1.0000 0.33690  0.66520  0.83800  Biso   1.000  H
  H340     1.0000 0.40380  0.65510  0.82810  Biso   1.000  H
  N141     1.0000 0.67710  0.91821  0.54570  Biso   1.000  N
  H341     1.0000 0.66840  0.90180  0.52080  Biso   1.000  H
  H342     1.0000 0.71640  0.92960  0.55470  Biso   1.000  H
  N142     1.0000 0.25830  0.05270  0.80860  Biso   1.000  N
  H343     1.0000 0.27550  0.07230  0.82460  Biso   1.000  H
  H344     1.0000 0.21890  0.04490  0.81090  Biso   1.000  H
  N143     1.0000 0.35480  0.72745  0.53950  Biso   1.000  N
  H345     1.0000 0.31580  0.73440  0.51490  Biso   1.000  H
  H346     1.0000 0.36000  0.70570  0.54970  Biso   1.000  H
  N144     1.0000 0.92290  0.90573  0.59680  Biso   1.000  N
  H347     1.0000 0.95110  0.90170  0.63050  Biso   1.000  H
  H348     1.0000 0.91860  0.92680  0.58330  Biso   1.000  H
  N145     1.0000 0.98880  0.91207  0.48770  Biso   1.000  N
  H349     1.0000 0.95590  0.91680  0.45630  Biso   1.000  H
  H350     1.0000 0.01080  0.92890  0.50930  Biso   1.000  H
  N146     1.0000 0.51710  0.72513  0.16830  Biso   1.000  N
  H351     1.0000 0.49250  0.74100  0.14580  Biso   1.000  H
  H352     1.0000 0.51200  0.70330  0.15850  Biso   1.000  H
  N147     1.0000 0.14580  0.92381  0.45680  Biso   1.000  N
  H353     1.0000 0.12600  0.91530  0.42350  Biso   1.000  H
  H354     1.0000 0.14050  0.94570  0.46320  Biso   1.000  H
  N148     1.0000 0.13270  0.06182  0.64680  Biso   1.000  N
  H355     1.0000 0.11530  0.07500  0.66670  Biso   1.000  H
  H356     1.0000 0.10900  0.04410  0.62880  Biso   1.000  H
  N149     1.0000 0.70320  0.03310  0.52140  Biso   1.000  N
  H357     1.0000 0.70020  0.01120  0.51240  Biso   1.000  H
  H358     1.0000 0.73900  0.04530  0.52050  Biso   1.000  H
  N150     1.0000 0.93800  0.91820  0.78120  Biso   1.000  N
  H359     1.0000 0.95250  0.92460  0.81600  Biso   1.000  H
  H360     1.0000 0.96370  0.92230  0.76030  Biso   1.000  H
  Cu41     1.0000 0.96096  0.37339  0.66772  Biso   1.000  Cu
  Cu42     1.0000 0.94878  0.52632  0.63377  Biso   1.000  Cu
  Cu43     1.0000 0.40518  0.24514  0.49922  Biso   1.000  Cu
  Cu44     1.0000 0.70437  0.28236  0.61623  Biso   1.000  Cu
  Cu45     1.0000 0.49409  0.17129  0.56743  Biso   1.000  Cu
  Cu46     1.0000 0.18555  0.29331  0.61800  Biso   1.000  Cu
  Cu47     1.0000 0.35105  0.16918  0.59347  Biso   1.000  Cu
  Cu48     1.0000 0.88982  0.40682  0.75337  Biso   1.000  Cu
  Br6      1.0000 0.36879  0.17900  0.48904  Biso   1.000  Br
  C421     1.0000 0.28100  0.29402  0.45447  Biso   1.000  C
  C422     1.0000 0.35430  0.31638  0.55071  Biso   1.000  C
  H361     1.0000 0.35890  0.29360  0.56520  Biso   1.000  H
  C423     1.0000 0.38380  0.37796  0.56370  Biso   1.000  C
  C424     1.0000 0.33740  0.38425  0.50920  Biso   1.000  C
  H362     1.0000 0.33040  0.40720  0.49560  Biso   1.000  H
  C425     1.0000 0.31120  0.32240  0.49468  Biso   1.000  C
  C426     1.0000 0.30200  0.35726  0.47520  Biso   1.000  C
  H363     1.0000 0.27160  0.36210  0.43890  Biso   1.000  H
  C427     1.0000 0.39030  0.34394  0.58500  Biso   1.000  C
  H364     1.0000 0.41860  0.33950  0.62210  Biso   1.000  H
  C428     1.0000 0.21590  0.26557  0.38097  Biso   1.000  C
  C429     1.0000 0.16130  0.25513  0.32769  Biso   1.000  C
  C430     1.0000 0.12080  0.27984  0.28920  Biso   1.000  C
  H365     1.0000 0.12540  0.30360  0.29890  Biso   1.000  H
  C431     1.0000 0.07350  0.26992  0.23650  Biso   1.000  C
  H366     1.0000 0.04740  0.28700  0.21180  Biso   1.000  H
  C432     1.0000 0.15260  0.21981  0.31130  Biso   1.000  C
  H367     1.0000 0.17850  0.20260  0.33600  Biso   1.000  H
  C433     1.0000 0.06540  0.23475  0.22070  Biso   1.000  C
  C434     1.0000 0.10580  0.20971  0.25860  Biso   1.000  C
  H368     1.0000 0.10140  0.18600  0.24870  Biso   1.000  H
  C435     1.0000 0.89420  0.59598  0.61812  Biso   1.000  C
  C436     1.0000 0.82960  0.58612  0.63004  Biso   1.000  C
  C437     1.0000 0.80310  0.60612  0.66470  Biso   1.000  C
  H369     1.0000 0.82870  0.62550  0.68350  Biso   1.000  H
  C438     1.0000 0.73880  0.59770  0.67180  Biso   1.000  C
  H370     1.0000 0.72230  0.61120  0.69570  Biso   1.000  H
  C439     1.0000 0.79060  0.55694  0.60290  Biso   1.000  C
  H371     1.0000 0.80780  0.54300  0.57980  Biso   1.000  H
  C440     1.0000 0.69930  0.56925  0.64340  Biso   1.000  C
  C441     1.0000 0.72700  0.54839  0.60970  Biso   1.000  C
  H372     1.0000 0.70230  0.52860  0.59180  Biso   1.000  H
  C442     1.0000 0.98780  0.59346  0.59338  Biso   1.000  C
  C443     1.0000 0.04170  0.54358  0.55770  Biso   1.000  C
  H373     1.0000 0.00450  0.52950  0.55950  Biso   1.000  H
  C444     1.0000 0.09290  0.52931  0.53870  Biso   1.000  C
  H374     1.0000 0.08840  0.50600  0.52660  Biso   1.000  H
  C445     1.0000 0.04450  0.57874  0.57440  Biso   1.000  C
  C446     1.0000 0.09890  0.59938  0.56890  Biso   1.000  C
  H375     1.0000 0.09960  0.62340  0.57640  Biso   1.000  H
  C447     1.0000 0.15290  0.58454  0.55210  Biso   1.000  C
  H376     1.0000 0.19040  0.59860  0.55080  Biso   1.000  H
  C448     1.0000 0.15110  0.54860  0.53710  Biso   1.000  C
  C449     1.0000 0.77350  0.35816  0.58716  Biso   1.000  C
  C450     1.0000 0.73720  0.34523  0.53340  Biso   1.000  C
  H377     1.0000 0.74120  0.32150  0.52600  Biso   1.000  H
  C451     1.0000 0.76680  0.39340  0.59760  Biso   1.000  C
  H378     1.0000 0.79110  0.40280  0.63300  Biso   1.000  H
  C452     1.0000 0.81740  0.33444  0.63239  Biso   1.000  C
  C453     1.0000 0.69510  0.36668  0.49050  Biso   1.000  C
  H379     1.0000 0.67240  0.35740  0.45480  Biso   1.000  H
  C454     1.0000 0.72360  0.41503  0.55520  Biso   1.000  C
  H380     1.0000 0.71900  0.43870  0.56280  Biso   1.000  H
  C455     1.0000 0.68700  0.40175  0.50120  Biso   1.000  C
  C456     1.0000 0.85130  0.25734  0.71958  Biso   1.000  C
  C457     1.0000 0.79870  0.25001  0.74355  Biso   1.000  C
  H381     1.0000 0.76050  0.26520  0.73750  Biso   1.000  H
  C458     1.0000 0.80380  0.22007  0.77614  Biso   1.000  C
  H382     1.0000 0.76830  0.21510  0.79140  Biso   1.000  H
  C459     1.0000 0.90710  0.23366  0.72782  Biso   1.000  C
  H383     1.0000 0.94130  0.23790  0.71100  Biso   1.000  H
  C460     1.0000 0.85010  0.29012  0.68821  Biso   1.000  C
  C461     1.0000 0.86100  0.19746  0.78640  Biso   1.000  C
  C462     1.0000 0.91190  0.20396  0.76067  Biso   1.000  C
  H384     1.0000 0.94920  0.18830  0.76570  Biso   1.000  H
  C463     1.0000 0.90680  0.47171  0.69453  Biso   1.000  C
  C464     1.0000 0.86580  0.49462  0.72022  Biso   1.000  C
  C465     1.0000 0.89320  0.52647  0.74560  Biso   1.000  C
  H385     1.0000 0.93550  0.53500  0.74280  Biso   1.000  H
  C466     1.0000 0.79400  0.53357  0.77920  Biso   1.000  C
  C467     1.0000 0.80040  0.48307  0.72260  Biso   1.000  C
  H386     1.0000 0.78100  0.46210  0.70500  Biso   1.000  H
  C468     1.0000 0.85740  0.54544  0.77490  Biso   1.000  C
  H387     1.0000 0.87640  0.56660  0.79210  Biso   1.000  H
  C469     1.0000 0.76470  0.50258  0.75090  Biso   1.000  C
  H388     1.0000 0.72050  0.49510  0.75110  Biso   1.000  H
  C470     1.0000 0.08740  0.46331  0.63370  Biso   1.000  C
  H389     1.0000 0.09560  0.48200  0.65900  Biso   1.000  H
  C471     1.0000 0.06360  0.40818  0.55774  Biso   1.000  C
  H390     1.0000 0.05530  0.38950  0.53230  Biso   1.000  H
  C472     1.0000 0.02360  0.44506  0.61962  Biso   1.000  C
  C473     1.0000 0.97300  0.45067  0.65003  Biso   1.000  C
  C474     1.0000 0.01260  0.41721  0.58071  Biso   1.000  C
  H391     1.0000 0.97020  0.40480  0.57040  Biso   1.000  H
  C475     1.0000 0.12770  0.42635  0.57170  Biso   1.000  C
  C476     1.0000 0.13950  0.45406  0.61040  Biso   1.000  C
  H392     1.0000 0.18210  0.46640  0.62070  Biso   1.000  H
  C477     1.0000 0.53680  0.30728  0.53703  Biso   1.000  C
  C478     1.0000 0.48550  0.31594  0.48478  Biso   1.000  C
  H393     1.0000 0.46110  0.29800  0.46110  Biso   1.000  H
  C479     1.0000 0.57270  0.33463  0.57210  Biso   1.000  C
  H394     1.0000 0.60690  0.32960  0.60670  Biso   1.000  H
  C480     1.0000 0.55740  0.36937  0.55530  Biso   1.000  C
  H395     1.0000 0.58140  0.38740  0.57890  Biso   1.000  H
  C481     1.0000 0.55230  0.27057  0.55491  Biso   1.000  C
  C482     1.0000 0.47090  0.35018  0.46816  Biso   1.000  C
  H396     1.0000 0.43710  0.35520  0.43330  Biso   1.000  H
  C483     1.0000 0.50630  0.37768  0.50310  Biso   1.000  C
  C484     1.0000 0.60790  0.22386  0.59425  Biso   1.000  C
  C485     1.0000 0.73090  0.20068  0.61451  Biso   1.000  C
  H397     1.0000 0.73910  0.21840  0.59180  Biso   1.000  H
  C486     1.0000 0.78360  0.17639  0.63860  Biso   1.000  C
  H398     1.0000 0.82660  0.17800  0.63200  Biso   1.000  H
  C487     1.0000 0.77270  0.14942  0.67258  Biso   1.000  C
  C488     1.0000 0.70810  0.14865  0.68320  Biso   1.000  C
  H399     1.0000 0.70080  0.13150  0.70710  Biso   1.000  H
  C489     1.0000 0.65510  0.17293  0.65869  Biso   1.000  C
  H400     1.0000 0.61240  0.17160  0.66580  Biso   1.000  H
  C490     1.0000 0.66520  0.19940  0.62338  Biso   1.000  C
  C491     1.0000 0.16770  0.35329  0.68878  Biso   1.000  C
  C492     1.0000 0.24110  0.36602  0.71242  Biso   1.000  C
  C493     1.0000 0.26710  0.37697  0.76850  Biso   1.000  C
  H401     1.0000 0.24050  0.37240  0.79190  Biso   1.000  H
  C494     1.0000 0.28220  0.37195  0.67830  Biso   1.000  C
  H402     1.0000 0.26590  0.36510  0.64050  Biso   1.000  H
  C495     1.0000 0.33050  0.39420  0.79050  Biso   1.000  C
  H403     1.0000 0.34560  0.40140  0.82810  Biso   1.000  H
  C496     1.0000 0.37160  0.40090  0.75800  Biso   1.000  C
  C497     1.0000 0.34840  0.38840  0.70110  Biso   1.000  C
  H404     1.0000 0.37740  0.39110  0.67910  Biso   1.000  H
  C498     1.0000 0.01790  0.30024  0.61192  Biso   1.000  C
  C499     1.0000 0.02760  0.26516  0.62735  Biso   1.000  C
  H405     1.0000 0.07010  0.25780  0.65380  Biso   1.000  H
  C500     1.0000 0.97420  0.24092  0.60350  Biso   1.000  C
  H406     1.0000 0.98100  0.21740  0.61460  Biso   1.000  H
  C501     1.0000 0.90100  0.28657  0.54590  Biso   1.000  C
  H407     1.0000 0.85950  0.29390  0.51820  Biso   1.000  H
  C502     1.0000 0.90980  0.25141  0.56270  Biso   1.000  C
  C503     1.0000 0.07100  0.32633  0.64405  Biso   1.000  C
  C504     1.0000 0.95480  0.31059  0.57072  Biso   1.000  C
  H408     1.0000 0.94850  0.33410  0.55970  Biso   1.000  H
  N151     1.0000 0.94952  0.42352  0.67216  Biso   1.000  N
  N152     1.0000 0.94710  0.48149  0.66249  Biso   1.000  N
  N153     1.0000 0.90715  0.43730  0.70107  Biso   1.000  N
  N154     1.0000 0.21823  0.29566  0.41044  Biso   1.000  N
  N155     1.0000 0.27409  0.24594  0.40567  Biso   1.000  N
  N156     1.0000 0.31559  0.26431  0.45306  Biso   1.000  N
  N157     1.0000 0.50404  0.24527  0.54414  Biso   1.000  N
  N158     1.0000 0.54022  0.21500  0.56917  Biso   1.000  N
  N159     1.0000 0.61822  0.25861  0.58607  Biso   1.000  N
  N160     1.0000 0.97076  0.62697  0.59254  Biso   1.000  N
  N161     1.0000 0.90963  0.62889  0.60828  Biso   1.000  N
  N162     1.0000 0.94248  0.57326  0.61065  Biso   1.000  N
  N163     1.0000 0.11487  0.37061  0.69812  Biso   1.000  N
  N164     1.0000 0.05283  0.35324  0.66994  Biso   1.000  N
  N165     1.0000 0.14262  0.32524  0.65455  Biso   1.000  N
  N166     1.0000 0.79315  0.30368  0.64699  Biso   1.000  N
  N167     1.0000 0.88498  0.33973  0.66350  Biso   1.000  N
  N168     1.0000 0.90615  0.31138  0.69919  Biso   1.000  N
  N169     1.0000 0.82520  0.12451  0.69660  Biso   1.000  N
  H409     1.0000 0.86500  0.12560  0.69050  Biso   1.000  H
  H410     1.0000 0.81780  0.10800  0.71750  Biso   1.000  H
  N170     1.0000 0.86810  0.16900  0.82200  Biso   1.000  N
  H411     1.0000 0.83690  0.16520  0.83800  Biso   1.000  H
  H412     1.0000 0.90380  0.15510  0.82810  Biso   1.000  H
  N171     1.0000 0.17710  0.41821  0.54570  Biso   1.000  N
  H413     1.0000 0.16840  0.40180  0.52080  Biso   1.000  H
  H414     1.0000 0.21640  0.42960  0.55470  Biso   1.000  H
  N172     1.0000 0.75830  0.55270  0.80860  Biso   1.000  N
  H415     1.0000 0.77550  0.57230  0.82460  Biso   1.000  H
  H416     1.0000 0.71890  0.54490  0.81090  Biso   1.000  H
  N173     1.0000 0.85480  0.22745  0.53950  Biso   1.000  N
  H417     1.0000 0.81580  0.23440  0.51490  Biso   1.000  H
  H418     1.0000 0.86000  0.20570  0.54970  Biso   1.000  H
  N174     1.0000 0.42290  0.40573  0.59680  Biso   1.000  N
  H419     1.0000 0.45110  0.40170  0.63050  Biso   1.000  H
  H420     1.0000 0.41860  0.42680  0.58330  Biso   1.000  H
  N175     1.0000 0.48880  0.41207  0.48770  Biso   1.000  N
  H421     1.0000 0.45590  0.41680  0.45630  Biso   1.000  H
  H422     1.0000 0.51080  0.42890  0.50930  Biso   1.000  H
  N176     1.0000 0.01710  0.22513  0.16830  Biso   1.000  N
  H423     1.0000 0.99250  0.24100  0.14580  Biso   1.000  H
  H424     1.0000 0.01200  0.20330  0.15850  Biso   1.000  H
  N177     1.0000 0.64580  0.42381  0.45680  Biso   1.000  N
  H425     1.0000 0.62600  0.41530  0.42350  Biso   1.000  H
  H426     1.0000 0.64050  0.44570  0.46320  Biso   1.000  H
  N178     1.0000 0.63270  0.56182  0.64680  Biso   1.000  N
  H427     1.0000 0.61530  0.57500  0.66670  Biso   1.000  H
  H428     1.0000 0.60900  0.54410  0.62880  Biso   1.000  H
  N179     1.0000 0.20320  0.53310  0.52140  Biso   1.000  N
  H429     1.0000 0.20020  0.51120  0.51240  Biso   1.000  H
  H430     1.0000 0.23900  0.54530  0.52050  Biso   1.000  H
  N180     1.0000 0.43800  0.41820  0.78120  Biso   1.000  N
  H431     1.0000 0.45250  0.42460  0.81600  Biso   1.000  H
  H432     1.0000 0.46370  0.42230  0.76030  Biso   1.000  H
  Cu49     1.0000 0.53904  0.87339  0.83228  Biso   1.000  Cu
  Cu50     1.0000 0.55122  0.02632  0.86623  Biso   1.000  Cu
  Cu51     1.0000 0.09482  0.74514  0.00078  Biso   1.000  Cu
  Cu52     1.0000 0.79563  0.78236  0.88377  Biso   1.000  Cu
  Cu53     1.0000 0.00591  0.67129  0.93257  Biso   1.000  Cu
  Cu54     1.0000 0.31445  0.79331  0.88200  Biso   1.000  Cu
  Cu55     1.0000 0.14895  0.66918  0.90653  Biso   1.000  Cu
  Cu56     1.0000 0.61018  0.90682  0.74663  Biso   1.000  Cu
  Br7      1.0000 0.13121  0.67900  0.01096  Biso   1.000  Br
  C505     1.0000 0.21900  0.79402  0.04553  Biso   1.000  C
  C506     1.0000 0.14570  0.81638  0.94929  Biso   1.000  C
  H433     1.0000 0.14110  0.79360  0.93480  Biso   1.000  H
  C507     1.0000 0.11620  0.87796  0.93630  Biso   1.000  C
  C508     1.0000 0.16260  0.88425  0.99080  Biso   1.000  C
  H434     1.0000 0.16960  0.90720  0.00440  Biso   1.000  H
  C509     1.0000 0.18880  0.82240  0.00532  Biso   1.000  C
  C510     1.0000 0.19800  0.85726  0.02480  Biso   1.000  C
  H435     1.0000 0.22840  0.86210  0.06110  Biso   1.000  H
  C511     1.0000 0.10970  0.84394  0.91500  Biso   1.000  C
  H436     1.0000 0.08140  0.83950  0.87790  Biso   1.000  H
  C512     1.0000 0.28410  0.76557  0.11903  Biso   1.000  C
  C513     1.0000 0.33870  0.75513  0.17231  Biso   1.000  C
  C514     1.0000 0.37920  0.77984  0.21080  Biso   1.000  C
  H437     1.0000 0.37460  0.80360  0.20110  Biso   1.000  H
  C515     1.0000 0.42650  0.76992  0.26350  Biso   1.000  C
  H438     1.0000 0.45260  0.78700  0.28820  Biso   1.000  H
  C516     1.0000 0.34740  0.71981  0.18870  Biso   1.000  C
  H439     1.0000 0.32150  0.70260  0.16400  Biso   1.000  H
  C517     1.0000 0.43460  0.73475  0.27930  Biso   1.000  C
  C518     1.0000 0.39420  0.70971  0.24140  Biso   1.000  C
  H440     1.0000 0.39860  0.68600  0.25130  Biso   1.000  H
  C519     1.0000 0.60580  0.09598  0.88188  Biso   1.000  C
  C520     1.0000 0.67040  0.08612  0.86996  Biso   1.000  C
  C521     1.0000 0.69690  0.10612  0.83530  Biso   1.000  C
  H441     1.0000 0.67130  0.12550  0.81650  Biso   1.000  H
  C522     1.0000 0.76120  0.09770  0.82820  Biso   1.000  C
  H442     1.0000 0.77770  0.11120  0.80430  Biso   1.000  H
  C523     1.0000 0.70940  0.05694  0.89710  Biso   1.000  C
  H443     1.0000 0.69220  0.04300  0.92020  Biso   1.000  H
  C524     1.0000 0.80070  0.06925  0.85660  Biso   1.000  C
  C525     1.0000 0.77300  0.04839  0.89030  Biso   1.000  C
  H444     1.0000 0.79770  0.02860  0.90820  Biso   1.000  H
  C526     1.0000 0.51220  0.09346  0.90662  Biso   1.000  C
  C527     1.0000 0.45830  0.04358  0.94230  Biso   1.000  C
  H445     1.0000 0.49550  0.02950  0.94050  Biso   1.000  H
  C528     1.0000 0.40710  0.02931  0.96130  Biso   1.000  C
  H446     1.0000 0.41160  0.00600  0.97340  Biso   1.000  H
  C529     1.0000 0.45550  0.07874  0.92560  Biso   1.000  C
  C530     1.0000 0.40110  0.09938  0.93110  Biso   1.000  C
  H447     1.0000 0.40040  0.12340  0.92360  Biso   1.000  H
  C531     1.0000 0.34710  0.08454  0.94790  Biso   1.000  C
  H448     1.0000 0.30960  0.09860  0.94920  Biso   1.000  H
  C532     1.0000 0.34890  0.04860  0.96290  Biso   1.000  C
  C533     1.0000 0.72650  0.85816  0.91284  Biso   1.000  C
  C534     1.0000 0.76280  0.84523  0.96660  Biso   1.000  C
  H449     1.0000 0.75880  0.82150  0.97400  Biso   1.000  H
  C535     1.0000 0.73320  0.89340  0.90240  Biso   1.000  C
  H450     1.0000 0.70890  0.90280  0.86700  Biso   1.000  H
  C536     1.0000 0.68260  0.83444  0.86761  Biso   1.000  C
  C537     1.0000 0.80490  0.86668  0.00950  Biso   1.000  C
  H451     1.0000 0.82760  0.85740  0.04520  Biso   1.000  H
  C538     1.0000 0.77640  0.91503  0.94480  Biso   1.000  C
  H452     1.0000 0.78100  0.93870  0.93720  Biso   1.000  H
  C539     1.0000 0.81300  0.90175  0.99880  Biso   1.000  C
  C540     1.0000 0.64870  0.75734  0.78042  Biso   1.000  C
  C541     1.0000 0.70130  0.75001  0.75645  Biso   1.000  C
  H453     1.0000 0.73950  0.76520  0.76250  Biso   1.000  H
  C542     1.0000 0.69620  0.72007  0.72386  Biso   1.000  C
  H454     1.0000 0.73170  0.71510  0.70860  Biso   1.000  H
  C543     1.0000 0.59290  0.73366  0.77218  Biso   1.000  C
  H455     1.0000 0.55870  0.73790  0.78900  Biso   1.000  H
  C544     1.0000 0.64990  0.79012  0.81179  Biso   1.000  C
  C545     1.0000 0.63900  0.69746  0.71360  Biso   1.000  C
  C546     1.0000 0.58810  0.70396  0.73933  Biso   1.000  C
  H456     1.0000 0.55080  0.68830  0.73430  Biso   1.000  H
  C547     1.0000 0.59320  0.97171  0.80547  Biso   1.000  C
  C548     1.0000 0.63420  0.99462  0.77978  Biso   1.000  C
  C549     1.0000 0.60680  0.02647  0.75440  Biso   1.000  C
  H457     1.0000 0.56450  0.03500  0.75720  Biso   1.000  H
  C550     1.0000 0.70600  0.03357  0.72080  Biso   1.000  C
  C551     1.0000 0.69960  0.98307  0.77740  Biso   1.000  C
  H458     1.0000 0.71900  0.96210  0.79500  Biso   1.000  H
  C552     1.0000 0.64260  0.04544  0.72510  Biso   1.000  C
  H459     1.0000 0.62360  0.06660  0.70790  Biso   1.000  H
  C553     1.0000 0.73530  0.00258  0.74910  Biso   1.000  C
  H460     1.0000 0.77950  0.99510  0.74890  Biso   1.000  H
  C554     1.0000 0.41260  0.96331  0.86630  Biso   1.000  C
  H461     1.0000 0.40440  0.98200  0.84100  Biso   1.000  H
  C555     1.0000 0.43640  0.90818  0.94226  Biso   1.000  C
  H462     1.0000 0.44470  0.88950  0.96770  Biso   1.000  H
  C556     1.0000 0.47640  0.94506  0.88038  Biso   1.000  C
  C557     1.0000 0.52700  0.95067  0.84997  Biso   1.000  C
  C558     1.0000 0.48740  0.91721  0.91929  Biso   1.000  C
  H463     1.0000 0.52980  0.90480  0.92960  Biso   1.000  H
  C559     1.0000 0.37230  0.92635  0.92830  Biso   1.000  C
  C560     1.0000 0.36050  0.95406  0.88960  Biso   1.000  C
  H464     1.0000 0.31790  0.96640  0.87930  Biso   1.000  H
  C561     1.0000 0.96320  0.80728  0.96297  Biso   1.000  C
  C562     1.0000 0.01450  0.81594  0.01522  Biso   1.000  C
  H465     1.0000 0.03890  0.79800  0.03890  Biso   1.000  H
  C563     1.0000 0.92730  0.83463  0.92790  Biso   1.000  C
  H466     1.0000 0.89310  0.82960  0.89330  Biso   1.000  H
  C564     1.0000 0.94260  0.86937  0.94470  Biso   1.000  C
  H467     1.0000 0.91860  0.88740  0.92110  Biso   1.000  H
  C565     1.0000 0.94770  0.77057  0.94509  Biso   1.000  C
  C566     1.0000 0.02910  0.85018  0.03184  Biso   1.000  C
  H468     1.0000 0.06290  0.85520  0.06670  Biso   1.000  H
  C567     1.0000 0.99370  0.87768  0.99690  Biso   1.000  C
  C568     1.0000 0.89210  0.72386  0.90575  Biso   1.000  C
  C569     1.0000 0.76910  0.70068  0.88549  Biso   1.000  C
  H469     1.0000 0.76090  0.71840  0.90820  Biso   1.000  H
  C570     1.0000 0.71640  0.67639  0.86140  Biso   1.000  C
  H470     1.0000 0.67340  0.67800  0.86800  Biso   1.000  H
  C571     1.0000 0.72730  0.64942  0.82742  Biso   1.000  C
  C572     1.0000 0.79190  0.64865  0.81680  Biso   1.000  C
  H471     1.0000 0.79920  0.63150  0.79290  Biso   1.000  H
  C573     1.0000 0.84490  0.67293  0.84131  Biso   1.000  C
  H472     1.0000 0.88760  0.67160  0.83420  Biso   1.000  H
  C574     1.0000 0.83480  0.69940  0.87662  Biso   1.000  C
  C575     1.0000 0.33230  0.85329  0.81122  Biso   1.000  C
  C576     1.0000 0.25890  0.86602  0.78758  Biso   1.000  C
  C577     1.0000 0.23290  0.87697  0.73150  Biso   1.000  C
  H473     1.0000 0.25950  0.87240  0.70810  Biso   1.000  H
  C578     1.0000 0.21780  0.87195  0.82170  Biso   1.000  C
  H474     1.0000 0.23410  0.86510  0.85950  Biso   1.000  H
  C579     1.0000 0.16950  0.89420  0.70950  Biso   1.000  C
  H475     1.0000 0.15440  0.90140  0.67190  Biso   1.000  H
  C580     1.0000 0.12840  0.90090  0.74200  Biso   1.000  C
  C581     1.0000 0.15160  0.88840  0.79890  Biso   1.000  C
  H476     1.0000 0.12260  0.89110  0.82090  Biso   1.000  H
  C582     1.0000 0.48210  0.80024  0.88808  Biso   1.000  C
  C583     1.0000 0.47240  0.76516  0.87265  Biso   1.000  C
  H477     1.0000 0.42990  0.75780  0.84620  Biso   1.000  H
  C584     1.0000 0.52580  0.74092  0.89650  Biso   1.000  C
  H478     1.0000 0.51900  0.71740  0.88540  Biso   1.000  H
  C585     1.0000 0.59900  0.78657  0.95410  Biso   1.000  C
  H479     1.0000 0.64050  0.79390  0.98180  Biso   1.000  H
  C586     1.0000 0.59020  0.75141  0.93730  Biso   1.000  C
  C587     1.0000 0.42900  0.82633  0.85595  Biso   1.000  C
  C588     1.0000 0.54520  0.81059  0.92928  Biso   1.000  C
  H480     1.0000 0.55150  0.83410  0.94030  Biso   1.000  H
  N181     1.0000 0.55048  0.92352  0.82784  Biso   1.000  N
  N182     1.0000 0.55290  0.98149  0.83751  Biso   1.000  N
  N183     1.0000 0.59285  0.93730  0.79893  Biso   1.000  N
  N184     1.0000 0.28177  0.79566  0.08956  Biso   1.000  N
  N185     1.0000 0.22591  0.74594  0.09433  Biso   1.000  N
  N186     1.0000 0.18441  0.76431  0.04694  Biso   1.000  N
  N187     1.0000 0.99596  0.74527  0.95586  Biso   1.000  N
  N188     1.0000 0.95978  0.71500  0.93083  Biso   1.000  N
  N189     1.0000 0.88178  0.75861  0.91393  Biso   1.000  N
  N190     1.0000 0.52924  0.12697  0.90746  Biso   1.000  N
  N191     1.0000 0.59037  0.12889  0.89172  Biso   1.000  N
  N192     1.0000 0.55752  0.07326  0.88935  Biso   1.000  N
  N193     1.0000 0.38513  0.87061  0.80188  Biso   1.000  N
  N194     1.0000 0.44717  0.85324  0.83006  Biso   1.000  N
  N195     1.0000 0.35738  0.82524  0.84545  Biso   1.000  N
  N196     1.0000 0.70685  0.80368  0.85301  Biso   1.000  N
  N197     1.0000 0.61502  0.83973  0.83650  Biso   1.000  N
  N198     1.0000 0.59385  0.81138  0.80081  Biso   1.000  N
  N199     1.0000 0.67480  0.62451  0.80340  Biso   1.000  N
  H481     1.0000 0.63500  0.62560  0.80950  Biso   1.000  H
  H482     1.0000 0.68220  0.60800  0.78250  Biso   1.000  H
  N200     1.0000 0.63190  0.66900  0.67800  Biso   1.000  N
  H483     1.0000 0.66310  0.66520  0.66200  Biso   1.000  H
  H484     1.0000 0.59620  0.65510  0.67190  Biso   1.000  H
  N201     1.0000 0.32290  0.91821  0.95430  Biso   1.000  N
  H485     1.0000 0.33160  0.90180  0.97920  Biso   1.000  H
  H486     1.0000 0.28360  0.92960  0.94530  Biso   1.000  H
  N202     1.0000 0.74170  0.05270  0.69140  Biso   1.000  N
  H487     1.0000 0.72450  0.07230  0.67540  Biso   1.000  H
  H488     1.0000 0.78110  0.04490  0.68910  Biso   1.000  H
  N203     1.0000 0.64520  0.72745  0.96050  Biso   1.000  N
  H489     1.0000 0.68420  0.73440  0.98510  Biso   1.000  H
  H490     1.0000 0.64000  0.70570  0.95030  Biso   1.000  H
  N204     1.0000 0.07710  0.90573  0.90320  Biso   1.000  N
  H491     1.0000 0.04890  0.90170  0.86950  Biso   1.000  H
  H492     1.0000 0.08140  0.92680  0.91670  Biso   1.000  H
  N205     1.0000 0.01120  0.91207  0.01230  Biso   1.000  N
  H493     1.0000 0.04410  0.91680  0.04370  Biso   1.000  H
  H494     1.0000 0.98920  0.92890  0.99070  Biso   1.000  H
  N206     1.0000 0.48290  0.72513  0.33170  Biso   1.000  N
  H495     1.0000 0.50750  0.74100  0.35420  Biso   1.000  H
  H496     1.0000 0.48800  0.70330  0.34150  Biso   1.000  H
  N207     1.0000 0.85420  0.92381  0.04320  Biso   1.000  N
  H497     1.0000 0.87400  0.91530  0.07650  Biso   1.000  H
  H498     1.0000 0.85950  0.94570  0.03680  Biso   1.000  H
  N208     1.0000 0.86730  0.06182  0.85320  Biso   1.000  N
  H499     1.0000 0.88470  0.07500  0.83330  Biso   1.000  H
  H500     1.0000 0.89100  0.04410  0.87120  Biso   1.000  H
  N209     1.0000 0.29680  0.03310  0.97860  Biso   1.000  N
  H501     1.0000 0.29980  0.01120  0.98760  Biso   1.000  H
  H502     1.0000 0.26100  0.04530  0.97950  Biso   1.000  H
  N210     1.0000 0.06200  0.91820  0.71880  Biso   1.000  N
  H503     1.0000 0.04750  0.92460  0.68400  Biso   1.000  H
  H504     1.0000 0.03630  0.92230  0.73970  Biso   1.000  H
  Cu57     1.0000 0.03904  0.37339  0.83228  Biso   1.000  Cu
  Cu58     1.0000 0.05122  0.52632  0.86623  Biso   1.000  Cu
  Cu59     1.0000 0.59482  0.24514  0.00078  Biso   1.000  Cu
  Cu60     1.0000 0.29563  0.28236  0.88377  Biso   1.000  Cu
  Cu61     1.0000 0.50591  0.17129  0.93257  Biso   1.000  Cu
  Cu62     1.0000 0.81445  0.29331  0.88200  Biso   1.000  Cu
  Cu63     1.0000 0.64895  0.16918  0.90653  Biso   1.000  Cu
  Cu64     1.0000 0.11018  0.40682  0.74663  Biso   1.000  Cu
  Br8      1.0000 0.63121  0.17900  0.01096  Biso   1.000  Br
  C589     1.0000 0.71900  0.29402  0.04553  Biso   1.000  C
  C590     1.0000 0.64570  0.31638  0.94929  Biso   1.000  C
  H505     1.0000 0.64110  0.29360  0.93480  Biso   1.000  H
  C591     1.0000 0.61620  0.37796  0.93630  Biso   1.000  C
  C592     1.0000 0.66260  0.38425  0.99080  Biso   1.000  C
  H506     1.0000 0.66960  0.40720  0.00440  Biso   1.000  H
  C593     1.0000 0.68880  0.32240  0.00532  Biso   1.000  C
  C594     1.0000 0.69800  0.35726  0.02480  Biso   1.000  C
  H507     1.0000 0.72840  0.36210  0.06110  Biso   1.000  H
  C595     1.0000 0.60970  0.34394  0.91500  Biso   1.000  C
  H508     1.0000 0.58140  0.33950  0.87790  Biso   1.000  H
  C596     1.0000 0.78410  0.26557  0.11903  Biso   1.000  C
  C597     1.0000 0.83870  0.25513  0.17231  Biso   1.000  C
  C598     1.0000 0.87920  0.27984  0.21080  Biso   1.000  C
  H509     1.0000 0.87460  0.30360  0.20110  Biso   1.000  H
  C599     1.0000 0.92650  0.26992  0.26350  Biso   1.000  C
  H510     1.0000 0.95260  0.28700  0.28820  Biso   1.000  H
  C600     1.0000 0.84740  0.21981  0.18870  Biso   1.000  C
  H511     1.0000 0.82150  0.20260  0.16400  Biso   1.000  H
  C601     1.0000 0.93460  0.23475  0.27930  Biso   1.000  C
  C602     1.0000 0.89420  0.20971  0.24140  Biso   1.000  C
  H512     1.0000 0.89860  0.18600  0.25130  Biso   1.000  H
  C603     1.0000 0.10580  0.59598  0.88188  Biso   1.000  C
  C604     1.0000 0.17040  0.58612  0.86996  Biso   1.000  C
  C605     1.0000 0.19690  0.60612  0.83530  Biso   1.000  C
  H513     1.0000 0.17130  0.62550  0.81650  Biso   1.000  H
  C606     1.0000 0.26120  0.59770  0.82820  Biso   1.000  C
  H514     1.0000 0.27770  0.61120  0.80430  Biso   1.000  H
  C607     1.0000 0.20940  0.55694  0.89710  Biso   1.000  C
  H515     1.0000 0.19220  0.54300  0.92020  Biso   1.000  H
  C608     1.0000 0.30070  0.56925  0.85660  Biso   1.000  C
  C609     1.0000 0.27300  0.54839  0.89030  Biso   1.000  C
  H516     1.0000 0.29770  0.52860  0.90820  Biso   1.000  H
  C610     1.0000 0.01220  0.59346  0.90662  Biso   1.000  C
  C611     1.0000 0.95830  0.54358  0.94230  Biso   1.000  C
  H517     1.0000 0.99550  0.52950  0.94050  Biso   1.000  H
  C612     1.0000 0.90710  0.52931  0.96130  Biso   1.000  C
  H518     1.0000 0.91160  0.50600  0.97340  Biso   1.000  H
  C613     1.0000 0.95550  0.57874  0.92560  Biso   1.000  C
  C614     1.0000 0.90110  0.59938  0.93110  Biso   1.000  C
  H519     1.0000 0.90040  0.62340  0.92360  Biso   1.000  H
  C615     1.0000 0.84710  0.58454  0.94790  Biso   1.000  C
  H520     1.0000 0.80960  0.59860  0.94920  Biso   1.000  H
  C616     1.0000 0.84890  0.54860  0.96290  Biso   1.000  C
  C617     1.0000 0.22650  0.35816  0.91284  Biso   1.000  C
  C618     1.0000 0.26280  0.34523  0.96660  Biso   1.000  C
  H521     1.0000 0.25880  0.32150  0.97400  Biso   1.000  H
  C619     1.0000 0.23320  0.39340  0.90240  Biso   1.000  C
  H522     1.0000 0.20890  0.40280  0.86700  Biso   1.000  H
  C620     1.0000 0.18260  0.33444  0.86761  Biso   1.000  C
  C621     1.0000 0.30490  0.36668  0.00950  Biso   1.000  C
  H523     1.0000 0.32760  0.35740  0.04520  Biso   1.000  H
  C622     1.0000 0.27640  0.41503  0.94480  Biso   1.000  C
  H524     1.0000 0.28100  0.43870  0.93720  Biso   1.000  H
  C623     1.0000 0.31300  0.40175  0.99880  Biso   1.000  C
  C624     1.0000 0.14870  0.25734  0.78042  Biso   1.000  C
  C625     1.0000 0.20130  0.25001  0.75645  Biso   1.000  C
  H525     1.0000 0.23950  0.26520  0.76250  Biso   1.000  H
  C626     1.0000 0.19620  0.22007  0.72386  Biso   1.000  C
  H526     1.0000 0.23170  0.21510  0.70860  Biso   1.000  H
  C627     1.0000 0.09290  0.23366  0.77218  Biso   1.000  C
  H527     1.0000 0.05870  0.23790  0.78900  Biso   1.000  H
  C628     1.0000 0.14990  0.29012  0.81179  Biso   1.000  C
  C629     1.0000 0.13900  0.19746  0.71360  Biso   1.000  C
  C630     1.0000 0.08810  0.20396  0.73933  Biso   1.000  C
  H528     1.0000 0.05080  0.18830  0.73430  Biso   1.000  H
  C631     1.0000 0.09320  0.47171  0.80547  Biso   1.000  C
  C632     1.0000 0.13420  0.49462  0.77978  Biso   1.000  C
  C633     1.0000 0.10680  0.52647  0.75440  Biso   1.000  C
  H529     1.0000 0.06450  0.53500  0.75720  Biso   1.000  H
  C634     1.0000 0.20600  0.53357  0.72080  Biso   1.000  C
  C635     1.0000 0.19960  0.48307  0.77740  Biso   1.000  C
  H530     1.0000 0.21900  0.46210  0.79500  Biso   1.000  H
  C636     1.0000 0.14260  0.54544  0.72510  Biso   1.000  C
  H531     1.0000 0.12360  0.56660  0.70790  Biso   1.000  H
  C637     1.0000 0.23530  0.50258  0.74910  Biso   1.000  C
  H532     1.0000 0.27950  0.49510  0.74890  Biso   1.000  H
  C638     1.0000 0.91260  0.46331  0.86630  Biso   1.000  C
  H533     1.0000 0.90440  0.48200  0.84100  Biso   1.000  H
  C639     1.0000 0.93640  0.40818  0.94226  Biso   1.000  C
  H534     1.0000 0.94470  0.38950  0.96770  Biso   1.000  H
  C640     1.0000 0.97640  0.44506  0.88038  Biso   1.000  C
  C641     1.0000 0.02700  0.45067  0.84997  Biso   1.000  C
  C642     1.0000 0.98740  0.41721  0.91929  Biso   1.000  C
  H535     1.0000 0.02980  0.40480  0.92960  Biso   1.000  H
  C643     1.0000 0.87230  0.42635  0.92830  Biso   1.000  C
  C644     1.0000 0.86050  0.45406  0.88960  Biso   1.000  C
  H536     1.0000 0.81790  0.46640  0.87930  Biso   1.000  H
  C645     1.0000 0.46320  0.30728  0.96297  Biso   1.000  C
  C646     1.0000 0.51450  0.31594  0.01522  Biso   1.000  C
  H537     1.0000 0.53890  0.29800  0.03890  Biso   1.000  H
  C647     1.0000 0.42730  0.33463  0.92790  Biso   1.000  C
  H538     1.0000 0.39310  0.32960  0.89330  Biso   1.000  H
  C648     1.0000 0.44260  0.36937  0.94470  Biso   1.000  C
  H539     1.0000 0.41860  0.38740  0.92110  Biso   1.000  H
  C649     1.0000 0.44770  0.27057  0.94509  Biso   1.000  C
  C650     1.0000 0.52910  0.35018  0.03184  Biso   1.000  C
  H540     1.0000 0.56290  0.35520  0.06670  Biso   1.000  H
  C651     1.0000 0.49370  0.37768  0.99690  Biso   1.000  C
  C652     1.0000 0.39210  0.22386  0.90575  Biso   1.000  C
  C653     1.0000 0.26910  0.20068  0.88549  Biso   1.000  C
  H541     1.0000 0.26090  0.21840  0.90820  Biso   1.000  H
  C654     1.0000 0.21640  0.17639  0.86140  Biso   1.000  C
  H542     1.0000 0.17340  0.17800  0.86800  Biso   1.000  H
  C655     1.0000 0.22730  0.14942  0.82742  Biso   1.000  C
  C656     1.0000 0.29190  0.14865  0.81680  Biso   1.000  C
  H543     1.0000 0.29920  0.13150  0.79290  Biso   1.000  H
  C657     1.0000 0.34490  0.17293  0.84131  Biso   1.000  C
  H544     1.0000 0.38760  0.17160  0.83420  Biso   1.000  H
  C658     1.0000 0.33480  0.19940  0.87662  Biso   1.000  C
  C659     1.0000 0.83230  0.35329  0.81122  Biso   1.000  C
  C660     1.0000 0.75890  0.36602  0.78758  Biso   1.000  C
  C661     1.0000 0.73290  0.37697  0.73150  Biso   1.000  C
  H545     1.0000 0.75950  0.37240  0.70810  Biso   1.000  H
  C662     1.0000 0.71780  0.37195  0.82170  Biso   1.000  C
  H546     1.0000 0.73410  0.36510  0.85950  Biso   1.000  H
  C663     1.0000 0.66950  0.39420  0.70950  Biso   1.000  C
  H547     1.0000 0.65440  0.40140  0.67190  Biso   1.000  H
  C664     1.0000 0.62840  0.40090  0.74200  Biso   1.000  C
  C665     1.0000 0.65160  0.38840  0.79890  Biso   1.000  C
  H548     1.0000 0.62260  0.39110  0.82090  Biso   1.000  H
  C666     1.0000 0.98210  0.30024  0.88808  Biso   1.000  C
  C667     1.0000 0.97240  0.26516  0.87265  Biso   1.000  C
  H549     1.0000 0.92990  0.25780  0.84620  Biso   1.000  H
  C668     1.0000 0.02580  0.24092  0.89650  Biso   1.000  C
  H550     1.0000 0.01900  0.21740  0.88540  Biso   1.000  H
  C669     1.0000 0.09900  0.28657  0.95410  Biso   1.000  C
  H551     1.0000 0.14050  0.29390  0.98180  Biso   1.000  H
  C670     1.0000 0.09020  0.25141  0.93730  Biso   1.000  C
  C671     1.0000 0.92900  0.32633  0.85595  Biso   1.000  C
  C672     1.0000 0.04520  0.31059  0.92928  Biso   1.000  C
  H552     1.0000 0.05150  0.33410  0.94030  Biso   1.000  H
  N211     1.0000 0.05048  0.42352  0.82784  Biso   1.000  N
  N212     1.0000 0.05290  0.48149  0.83751  Biso   1.000  N
  N213     1.0000 0.09285  0.43730  0.79893  Biso   1.000  N
  N214     1.0000 0.78177  0.29566  0.08956  Biso   1.000  N
  N215     1.0000 0.72591  0.24594  0.09433  Biso   1.000  N
  N216     1.0000 0.68441  0.26431  0.04694  Biso   1.000  N
  N217     1.0000 0.49596  0.24527  0.95586  Biso   1.000  N
  N218     1.0000 0.45978  0.21500  0.93083  Biso   1.000  N
  N219     1.0000 0.38178  0.25861  0.91393  Biso   1.000  N
  N220     1.0000 0.02924  0.62697  0.90746  Biso   1.000  N
  N221     1.0000 0.09037  0.62889  0.89172  Biso   1.000  N
  N222     1.0000 0.05752  0.57326  0.88935  Biso   1.000  N
  N223     1.0000 0.88513  0.37061  0.80188  Biso   1.000  N
  N224     1.0000 0.94717  0.35324  0.83006  Biso   1.000  N
  N225     1.0000 0.85738  0.32524  0.84545  Biso   1.000  N
  N226     1.0000 0.20685  0.30368  0.85301  Biso   1.000  N
  N227     1.0000 0.11502  0.33973  0.83650  Biso   1.000  N
  N228     1.0000 0.09385  0.31138  0.80081  Biso   1.000  N
  N229     1.0000 0.17480  0.12451  0.80340  Biso   1.000  N
  H553     1.0000 0.13500  0.12560  0.80950  Biso   1.000  H
  H554     1.0000 0.18220  0.10800  0.78250  Biso   1.000  H
  N230     1.0000 0.13190  0.16900  0.67800  Biso   1.000  N
  H555     1.0000 0.16310  0.16520  0.66200  Biso   1.000  H
  H556     1.0000 0.09620  0.15510  0.67190  Biso   1.000  H
  N231     1.0000 0.82290  0.41821  0.95430  Biso   1.000  N
  H557     1.0000 0.83160  0.40180  0.97920  Biso   1.000  H
  H558     1.0000 0.78360  0.42960  0.94530  Biso   1.000  H
  N232     1.0000 0.24170  0.55270  0.69140  Biso   1.000  N
  H559     1.0000 0.22450  0.57230  0.67540  Biso   1.000  H
  H560     1.0000 0.28110  0.54490  0.68910  Biso   1.000  H
  N233     1.0000 0.14520  0.22745  0.96050  Biso   1.000  N
  H561     1.0000 0.18420  0.23440  0.98510  Biso   1.000  H
  H562     1.0000 0.14000  0.20570  0.95030  Biso   1.000  H
  N234     1.0000 0.57710  0.40573  0.90320  Biso   1.000  N
  H563     1.0000 0.54890  0.40170  0.86950  Biso   1.000  H
  H564     1.0000 0.58140  0.42680  0.91670  Biso   1.000  H
  N235     1.0000 0.51120  0.41207  0.01230  Biso   1.000  N
  H565     1.0000 0.54410  0.41680  0.04370  Biso   1.000  H
  H566     1.0000 0.48920  0.42890  0.99070  Biso   1.000  H
  N236     1.0000 0.98290  0.22513  0.33170  Biso   1.000  N
  H567     1.0000 0.00750  0.24100  0.35420  Biso   1.000  H
  H568     1.0000 0.98800  0.20330  0.34150  Biso   1.000  H
  N237     1.0000 0.35420  0.42381  0.04320  Biso   1.000  N
  H569     1.0000 0.37400  0.41530  0.07650  Biso   1.000  H
  H570     1.0000 0.35950  0.44570  0.03680  Biso   1.000  H
  N238     1.0000 0.36730  0.56182  0.85320  Biso   1.000  N
  H571     1.0000 0.38470  0.57500  0.83330  Biso   1.000  H
  H572     1.0000 0.39100  0.54410  0.87120  Biso   1.000  H
  N239     1.0000 0.79680  0.53310  0.97860  Biso   1.000  N
  H573     1.0000 0.79980  0.51120  0.98760  Biso   1.000  H
  H574     1.0000 0.76100  0.54530  0.97950  Biso   1.000  H
  N240     1.0000 0.56200  0.41820  0.71880  Biso   1.000  N
  H575     1.0000 0.54750  0.42460  0.68400  Biso   1.000  H
  H576     1.0000 0.53630  0.42230  0.73970  Biso   1.000  H
  Cu65     1.0000 0.50000  0.19028  0.25000  Biso   1.000  Cu
  Cu66     1.0000 0.00000  0.69028  0.25000  Biso   1.000  Cu
  Cu67     1.0000 0.50000  0.80972  0.75000  Biso   1.000  Cu
  Cu68     1.0000 0.00000  0.30972  0.75000  Biso   1.000  Cu
