data_image0
_cell_length_a       20.014
_cell_length_b       37.956
_cell_length_c       25.085
_cell_angle_alpha    90
_cell_angle_beta     109.384
_cell_angle_gamma    90

_symmetry_space_group_name_H-M    "P 1"
_symmetry_int_tables_number       1

loop_
  _symmetry_equiv_pos_as_xyz
  'x, y, z'

loop_
  _atom_site_label
  _atom_site_occupancy
  _atom_site_fract_x
  _atom_site_fract_y
  _atom_site_fract_z
  _atom_site_thermal_displace_type
  _atom_site_B_iso_or_equiv
  _atom_site_type_symbol
  Cu1      1.0000 0.53876  0.12835  0.33183  Biso   1.000  Cu
  Cu2      1.0000 0.55257  0.97450  0.36737  Biso   1.000  Cu
  Cu3      1.0000 0.09297  0.25467  0.49684  Biso   1.000  Cu
  Cu4      1.0000 0.79508  0.21817  0.38101  Biso   1.000  Cu
  Cu5      1.0000 0.00644  0.32874  0.43246  Biso   1.000  Cu
  Cu6      1.0000 0.31729  0.20624  0.38765  Biso   1.000  Cu
  Cu7      1.0000 0.15222  0.33109  0.41260  Biso   1.000  Cu
  Cu8      1.0000 0.60857  0.09466  0.24621  Biso   1.000  Cu
  Cl1      1.0000 0.12515  0.31859  0.50786  Biso   1.000  Cl
  N1       1.0000 0.55008  0.07760  0.32777  Biso   1.000  N
  N2       1.0000 0.55336  0.01959  0.33785  Biso   1.000  N
  N3       1.0000 0.59145  0.06390  0.29829  Biso   1.000  N
  N4       1.0000 0.27889  0.20424  0.58395  Biso   1.000  N
  N5       1.0000 0.22358  0.25403  0.58902  Biso   1.000  N
  N6       1.0000 0.18240  0.23557  0.54221  Biso   1.000  N
  N7       1.0000 0.99500  0.25440  0.45255  Biso   1.000  N
  N8       1.0000 0.95933  0.28494  0.42823  Biso   1.000  N
  N9       1.0000 0.88163  0.24144  0.41097  Biso   1.000  N
  N10      1.0000 0.53323  0.87352  0.41127  Biso   1.000  N
  N11      1.0000 0.59453  0.87213  0.39716  Biso   1.000  N
  N12      1.0000 0.55982  0.92772  0.39271  Biso   1.000  N
  N13      1.0000 0.38607  0.13070  0.30252  Biso   1.000  N
  N14      1.0000 0.44786  0.14835  0.33080  Biso   1.000  N
  N15      1.0000 0.35934  0.17466  0.34936  Biso   1.000  N
  N16      1.0000 0.70585  0.19774  0.35050  Biso   1.000  N
  N17      1.0000 0.61400  0.16213  0.33543  Biso   1.000  N
  N18      1.0000 0.59334  0.19076  0.29985  Biso   1.000  N
  N19      1.0000 0.67700  0.37607  0.30540  Biso   1.000  N
  H1       1.0000 0.68380  0.39250  0.28420  Biso   1.000  H
  H2       1.0000 0.63810  0.37530  0.31290  Biso   1.000  H
  N20      1.0000 0.63170  0.33324  0.17690  Biso   1.000  N
  H3       1.0000 0.59640  0.34730  0.17120  Biso   1.000  H
  H4       1.0000 0.66290  0.33710  0.16090  Biso   1.000  H
  N21      1.0000 0.32600  0.08505  0.45440  Biso   1.000  N
  H5       1.0000 0.33440  0.10220  0.47810  Biso   1.000  H
  H6       1.0000 0.28680  0.07360  0.44630  Biso   1.000  H
  N22      1.0000 0.73890  0.94819  0.19060  Biso   1.000  N
  H7       1.0000 0.72100  0.92870  0.17460  Biso   1.000  H
  H8       1.0000 0.77830  0.95570  0.18800  Biso   1.000  H
  N23      1.0000 0.64480  0.27342  0.46150  Biso   1.000  N
  H9       1.0000 0.68410  0.26670  0.48590  Biso   1.000  H
  H10      1.0000 0.63920  0.29510  0.45090  Biso   1.000  H
  N24      1.0000 0.07630  0.09364  0.39840  Biso   1.000  N
  H11      1.0000 0.08200  0.07240  0.41110  Biso   1.000  H
  H12      1.0000 0.04670  0.09790  0.36530  Biso   1.000  H
  N25      1.0000 0.00910  0.08668  0.50950  Biso   1.000  N
  H13      1.0000 0.98810  0.06980  0.48730  Biso   1.000  H
  H14      1.0000 0.04060  0.08200  0.54150  Biso   1.000  H
  N26      1.0000 0.47810  0.27410  0.82536  Biso   1.000  N
  H15      1.0000 0.50310  0.25810  0.84740  Biso   1.000  H
  H16      1.0000 0.48290  0.29580  0.83560  Biso   1.000  H
  N27      1.0000 0.85170  0.07679  0.53800  Biso   1.000  N
  H17      1.0000 0.87170  0.08500  0.57150  Biso   1.000  H
  H18      1.0000 0.85680  0.05500  0.53090  Biso   1.000  H
  N28      1.0000 0.86530  0.94263  0.35490  Biso   1.000  N
  H19      1.0000 0.88910  0.96040  0.37280  Biso   1.000  H
  H20      1.0000 0.88190  0.93000  0.33370  Biso   1.000  H
  N29      1.0000 0.29700  0.96393  0.47960  Biso   1.000  N
  H21      1.0000 0.29810  0.98590  0.48810  Biso   1.000  H
  H22      1.0000 0.26250  0.95090  0.48100  Biso   1.000  H
  N30      1.0000 0.06820  0.08130  0.21870  Biso   1.000  N
  H23      1.0000 0.05420  0.07540  0.18370  Biso   1.000  H
  H24      1.0000 0.04240  0.07650  0.23920  Biso   1.000  H
  C1       1.0000 0.21638  0.20594  0.54065  Biso   1.000  C
  C2       1.0000 0.14270  0.18332  0.44562  Biso   1.000  C
  H25      1.0000 0.13680  0.20620  0.43140  Biso   1.000  H
  C3       1.0000 0.11520  0.12126  0.43160  Biso   1.000  C
  C4       1.0000 0.16280  0.11489  0.48460  Biso   1.000  C
  H26      1.0000 0.17200  0.09180  0.49750  Biso   1.000  H
  C5       1.0000 0.18675  0.17730  0.50068  Biso   1.000  C
  C6       1.0000 0.19720  0.14252  0.51912  Biso   1.000  C
  H27      1.0000 0.22790  0.13770  0.55530  Biso   1.000  H
  C7       1.0000 0.10740  0.15578  0.41166  Biso   1.000  C
  H28      1.0000 0.07800  0.16040  0.37500  Biso   1.000  H
  C8       1.0000 0.28064  0.23444  0.61346  Biso   1.000  C
  C9       1.0000 0.33480  0.24490  0.66661  Biso   1.000  C
  C10      1.0000 0.37560  0.21984  0.70410  Biso   1.000  C
  H29      1.0000 0.37150  0.19620  0.69390  Biso   1.000  H
  C11      1.0000 0.42280  0.22991  0.75700  Biso   1.000  C
  H30      1.0000 0.44950  0.21280  0.78150  Biso   1.000  H
  C12      1.0000 0.34280  0.28000  0.68410  Biso   1.000  C
  H31      1.0000 0.31630  0.29730  0.66000  Biso   1.000  H
  C13      1.0000 0.43010  0.26478  0.77320  Biso   1.000  C
  C14      1.0000 0.38960  0.28976  0.73680  Biso   1.000  C
  H32      1.0000 0.39340  0.31330  0.74760  Biso   1.000  H
  C15      1.0000 0.60924  0.90487  0.38717  Biso   1.000  C
  C16      1.0000 0.67290  0.91542  0.37508  Biso   1.000  C
  C17      1.0000 0.69980  0.89562  0.34030  Biso   1.000  C
  H33      1.0000 0.67550  0.87580  0.32200  Biso   1.000  H
  C18      1.0000 0.76280  0.90532  0.33270  Biso   1.000  C
  H34      1.0000 0.78000  0.89220  0.30870  Biso   1.000  H
  C19      1.0000 0.71060  0.94481  0.40140  Biso   1.000  C
  H35      1.0000 0.69290  0.95850  0.42440  Biso   1.000  H
  C20      1.0000 0.80050  0.93430  0.36030  Biso   1.000  C
  C21      1.0000 0.77320  0.95416  0.39420  Biso   1.000  C
  H36      1.0000 0.79740  0.97410  0.41230  Biso   1.000  H
  C22      1.0000 0.51436  0.90719  0.40905  Biso   1.000  C
  C23      1.0000 0.45750  0.95648  0.44270  Biso   1.000  C
  H37      1.0000 0.49420  0.97100  0.44110  Biso   1.000  H
  C24      1.0000 0.40590  0.97010  0.46100  Biso   1.000  C
  H38      1.0000 0.40820  0.99360  0.47190  Biso   1.000  H
  C25      1.0000 0.45670  0.92120  0.42621  Biso   1.000  C
  C26      1.0000 0.40260  0.90026  0.43120  Biso   1.000  C
  H39      1.0000 0.40180  0.87640  0.42250  Biso   1.000  H
  C27      1.0000 0.35000  0.91395  0.44860  Biso   1.000  C
  H40      1.0000 0.31350  0.89950  0.45070  Biso   1.000  H
  C28      1.0000 0.35080  0.94951  0.46340  Biso   1.000  C
  C29      1.0000 0.72510  0.14310  0.41011  Biso   1.000  C
  C30      1.0000 0.76060  0.15547  0.46376  Biso   1.000  C
  H41      1.0000 0.75610  0.17910  0.47190  Biso   1.000  H
  C31      1.0000 0.73130  0.10793  0.40000  Biso   1.000  C
  H42      1.0000 0.70610  0.09860  0.36470  Biso   1.000  H
  C32      1.0000 0.68143  0.16697  0.36541  Biso   1.000  C
  C33      1.0000 0.80280  0.13371  0.50590  Biso   1.000  C
  H43      1.0000 0.82560  0.14270  0.54190  Biso   1.000  H
  C34      1.0000 0.77460  0.08590  0.44140  Biso   1.000  C
  H44      1.0000 0.77930  0.06230  0.43320  Biso   1.000  H
  C35      1.0000 0.81100  0.09900  0.49490  Biso   1.000  C
  C36      1.0000 0.64842  0.24431  0.27881  Biso   1.000  C
  C37      1.0000 0.69930  0.25150  0.25394  Biso   1.000  C
  H45      1.0000 0.73730  0.23620  0.25950  Biso   1.000  H
  C38      1.0000 0.69430  0.28081  0.22145  Biso   1.000  C
  H46      1.0000 0.72910  0.28520  0.20530  Biso   1.000  H
  C39      1.0000 0.59318  0.26843  0.27074  Biso   1.000  C
  H47      1.0000 0.55910  0.26450  0.28780  Biso   1.000  H
  C40      1.0000 0.64934  0.21151  0.30993  Biso   1.000  C
  C41      1.0000 0.63840  0.30427  0.21201  Biso   1.000  C
  C42      1.0000 0.58840  0.29779  0.23810  Biso   1.000  C
  H48      1.0000 0.55130  0.31360  0.23330  Biso   1.000  H
  C43      1.0000 0.59277  0.02933  0.30531  Biso   1.000  C
  C44      1.0000 0.63270  0.00648  0.27977  Biso   1.000  C
  C45      1.0000 0.60600  0.97457  0.25419  Biso   1.000  C
  H49      1.0000 0.56370  0.96600  0.25690  Biso   1.000  H
  C46      1.0000 0.70410  0.96756  0.22070  Biso   1.000  C
  C47      1.0000 0.69700  0.01788  0.27650  Biso   1.000  C
  H50      1.0000 0.71650  0.03890  0.29390  Biso   1.000  H
  C48      1.0000 0.64100  0.95534  0.22470  Biso   1.000  C
  H51      1.0000 0.62210  0.93420  0.20770  Biso   1.000  H
  C49      1.0000 0.73260  0.99874  0.24780  Biso   1.000  C
  H52      1.0000 0.77600  0.00670  0.24660  Biso   1.000  H
  C50      1.0000 0.41540  0.03785  0.36827  Biso   1.000  C
  H53      1.0000 0.40740  0.01870  0.34380  Biso   1.000  H
  C51      1.0000 0.43820  0.09418  0.44214  Biso   1.000  C
  H54      1.0000 0.44630  0.11330  0.46670  Biso   1.000  H
  C52      1.0000 0.47790  0.05627  0.38132  Biso   1.000  C
  C53      1.0000 0.52747  0.05062  0.35044  Biso   1.000  C
  C54      1.0000 0.48890  0.08452  0.41916  Biso   1.000  C
  H55      1.0000 0.53130  0.09700  0.42890  Biso   1.000  H
  C55      1.0000 0.37550  0.07591  0.42920  Biso   1.000  C
  C56      1.0000 0.36400  0.04769  0.39150  Biso   1.000  C
  H56      1.0000 0.32150  0.03540  0.38170  Biso   1.000  H
  C57      1.0000 0.96186  0.19225  0.45938  Biso   1.000  C
  C58      1.0000 0.01220  0.18355  0.51118  Biso   1.000  C
  H57      1.0000 0.03640  0.20150  0.53510  Biso   1.000  H
  C59      1.0000 0.92670  0.16441  0.42530  Biso   1.000  C
  H58      1.0000 0.89240  0.16920  0.39050  Biso   1.000  H
  C60      1.0000 0.94180  0.12978  0.44210  Biso   1.000  C
  H59      1.0000 0.91760  0.11170  0.41850  Biso   1.000  H
  C61      1.0000 0.94692  0.22894  0.44171  Biso   1.000  C
  C62      1.0000 0.02710  0.14899  0.52793  Biso   1.000  C
  H60      1.0000 0.06100  0.14400  0.56280  Biso   1.000  H
  C63      1.0000 0.99220  0.12154  0.49340  Biso   1.000  C
  C64      1.0000 0.89196  0.27614  0.40366  Biso   1.000  C
  C65      1.0000 0.77120  0.30002  0.38575  Biso   1.000  C
  H61      1.0000 0.76350  0.28240  0.40890  Biso   1.000  H
  C66      1.0000 0.71890  0.32452  0.36210  Biso   1.000  C
  H62      1.0000 0.67640  0.32330  0.36960  Biso   1.000  H
  C67      1.0000 0.72860  0.35097  0.32750  Biso   1.000  C
  C68      1.0000 0.79140  0.35185  0.31590  Biso   1.000  C
  H63      1.0000 0.79830  0.36910  0.29200  Biso   1.000  H
  C69      1.0000 0.84420  0.32738  0.33946  Biso   1.000  C
  H64      1.0000 0.88610  0.32840  0.33120  Biso   1.000  H
  C70      1.0000 0.83519  0.30117  0.37552  Biso   1.000  C
  C71      1.0000 0.33412  0.14714  0.31398  Biso   1.000  C
  C72      1.0000 0.26151  0.13410  0.28972  Biso   1.000  C
  C73      1.0000 0.23750  0.12438  0.23420  Biso   1.000  C
  H65      1.0000 0.26450  0.12980  0.21140  Biso   1.000  H
  C74      1.0000 0.22040  0.12713  0.32310  Biso   1.000  C
  H66      1.0000 0.23560  0.13380  0.36090  Biso   1.000  H
  C75      1.0000 0.17430  0.10664  0.21080  Biso   1.000  C
  H67      1.0000 0.15970  0.09990  0.17310  Biso   1.000  H
  C76      1.0000 0.13360  0.09910  0.24270  Biso   1.000  C
  C77      1.0000 0.15630  0.11000  0.29930  Biso   1.000  C
  H68      1.0000 0.12770  0.10580  0.32120  Biso   1.000  H
  C78      1.0000 0.48250  0.20040  0.39051  Biso   1.000  C
  C79      1.0000 0.47420  0.23562  0.37523  Biso   1.000  C
  H69      1.0000 0.43210  0.24310  0.34860  Biso   1.000  H
  C80      1.0000 0.52700  0.25966  0.39850  Biso   1.000  C
  H70      1.0000 0.52070  0.28310  0.38720  Biso   1.000  H
  C81      1.0000 0.59790  0.21400  0.45540  Biso   1.000  C
  H71      1.0000 0.63950  0.20670  0.48290  Biso   1.000  H
  C82      1.0000 0.58960  0.24899  0.43880  Biso   1.000  C
  C83      1.0000 0.43003  0.17438  0.35853  Biso   1.000  C
  C84      1.0000 0.54470  0.18983  0.43145  Biso   1.000  C
  H72      1.0000 0.55070  0.16640  0.44290  Biso   1.000  H
  Cu9      1.0000 0.03876  0.62835  0.33183  Biso   1.000  Cu
  Cu10     1.0000 0.05257  0.47450  0.36737  Biso   1.000  Cu
  Cu11     1.0000 0.59297  0.75467  0.49684  Biso   1.000  Cu
  Cu12     1.0000 0.29508  0.71817  0.38101  Biso   1.000  Cu
  Cu13     1.0000 0.50644  0.82874  0.43246  Biso   1.000  Cu
  Cu14     1.0000 0.81729  0.70624  0.38765  Biso   1.000  Cu
  Cu15     1.0000 0.65222  0.83109  0.41260  Biso   1.000  Cu
  Cu16     1.0000 0.10857  0.59466  0.24621  Biso   1.000  Cu
  Cl2      1.0000 0.62515  0.81859  0.50786  Biso   1.000  Cl
  N31      1.0000 0.05008  0.57760  0.32777  Biso   1.000  N
  N32      1.0000 0.05336  0.51959  0.33785  Biso   1.000  N
  N33      1.0000 0.09145  0.56390  0.29829  Biso   1.000  N
  N34      1.0000 0.77889  0.70424  0.58395  Biso   1.000  N
  N35      1.0000 0.72358  0.75403  0.58902  Biso   1.000  N
  N36      1.0000 0.68240  0.73557  0.54221  Biso   1.000  N
  N37      1.0000 0.49500  0.75440  0.45255  Biso   1.000  N
  N38      1.0000 0.45933  0.78494  0.42823  Biso   1.000  N
  N39      1.0000 0.38163  0.74144  0.41097  Biso   1.000  N
  N40      1.0000 0.03323  0.37352  0.41127  Biso   1.000  N
  N41      1.0000 0.09453  0.37213  0.39716  Biso   1.000  N
  N42      1.0000 0.05982  0.42772  0.39271  Biso   1.000  N
  N43      1.0000 0.88607  0.63070  0.30252  Biso   1.000  N
  N44      1.0000 0.94786  0.64835  0.33080  Biso   1.000  N
  N45      1.0000 0.85934  0.67466  0.34936  Biso   1.000  N
  N46      1.0000 0.20585  0.69774  0.35050  Biso   1.000  N
  N47      1.0000 0.11400  0.66213  0.33543  Biso   1.000  N
  N48      1.0000 0.09334  0.69076  0.29985  Biso   1.000  N
  N49      1.0000 0.17700  0.87607  0.30540  Biso   1.000  N
  H73      1.0000 0.18380  0.89250  0.28420  Biso   1.000  H
  H74      1.0000 0.13810  0.87530  0.31290  Biso   1.000  H
  N50      1.0000 0.13170  0.83324  0.17690  Biso   1.000  N
  H75      1.0000 0.09640  0.84730  0.17120  Biso   1.000  H
  H76      1.0000 0.16290  0.83710  0.16090  Biso   1.000  H
  N51      1.0000 0.82600  0.58505  0.45440  Biso   1.000  N
  H77      1.0000 0.83440  0.60220  0.47810  Biso   1.000  H
  H78      1.0000 0.78680  0.57360  0.44630  Biso   1.000  H
  N52      1.0000 0.23890  0.44819  0.19060  Biso   1.000  N
  H79      1.0000 0.22100  0.42870  0.17460  Biso   1.000  H
  H80      1.0000 0.27830  0.45570  0.18800  Biso   1.000  H
  N53      1.0000 0.14480  0.77342  0.46150  Biso   1.000  N
  H81      1.0000 0.18410  0.76670  0.48590  Biso   1.000  H
  H82      1.0000 0.13920  0.79510  0.45090  Biso   1.000  H
  N54      1.0000 0.57630  0.59364  0.39840  Biso   1.000  N
  H83      1.0000 0.58200  0.57240  0.41110  Biso   1.000  H
  H84      1.0000 0.54670  0.59790  0.36530  Biso   1.000  H
  N55      1.0000 0.50910  0.58668  0.50950  Biso   1.000  N
  H85      1.0000 0.48810  0.56980  0.48730  Biso   1.000  H
  H86      1.0000 0.54060  0.58200  0.54150  Biso   1.000  H
  N56      1.0000 0.97810  0.77410  0.82536  Biso   1.000  N
  H87      1.0000 0.00310  0.75810  0.84740  Biso   1.000  H
  H88      1.0000 0.98290  0.79580  0.83560  Biso   1.000  H
  N57      1.0000 0.35170  0.57679  0.53800  Biso   1.000  N
  H89      1.0000 0.37170  0.58500  0.57150  Biso   1.000  H
  H90      1.0000 0.35680  0.55500  0.53090  Biso   1.000  H
  N58      1.0000 0.36530  0.44263  0.35490  Biso   1.000  N
  H91      1.0000 0.38910  0.46040  0.37280  Biso   1.000  H
  H92      1.0000 0.38190  0.43000  0.33370  Biso   1.000  H
  N59      1.0000 0.79700  0.46393  0.47960  Biso   1.000  N
  H93      1.0000 0.79810  0.48590  0.48810  Biso   1.000  H
  H94      1.0000 0.76250  0.45090  0.48100  Biso   1.000  H
  N60      1.0000 0.56820  0.58130  0.21870  Biso   1.000  N
  H95      1.0000 0.55420  0.57540  0.18370  Biso   1.000  H
  H96      1.0000 0.54240  0.57650  0.23920  Biso   1.000  H
  C85      1.0000 0.71638  0.70594  0.54065  Biso   1.000  C
  C86      1.0000 0.64270  0.68332  0.44562  Biso   1.000  C
  H97      1.0000 0.63680  0.70620  0.43140  Biso   1.000  H
  C87      1.0000 0.61520  0.62126  0.43160  Biso   1.000  C
  C88      1.0000 0.66280  0.61489  0.48460  Biso   1.000  C
  H98      1.0000 0.67200  0.59180  0.49750  Biso   1.000  H
  C89      1.0000 0.68675  0.67730  0.50068  Biso   1.000  C
  C90      1.0000 0.69720  0.64252  0.51912  Biso   1.000  C
  H99      1.0000 0.72790  0.63770  0.55530  Biso   1.000  H
  C91      1.0000 0.60740  0.65578  0.41166  Biso   1.000  C
  H100     1.0000 0.57800  0.66040  0.37500  Biso   1.000  H
  C92      1.0000 0.78064  0.73444  0.61346  Biso   1.000  C
  C93      1.0000 0.83480  0.74490  0.66661  Biso   1.000  C
  C94      1.0000 0.87560  0.71984  0.70410  Biso   1.000  C
  H101     1.0000 0.87150  0.69620  0.69390  Biso   1.000  H
  C95      1.0000 0.92280  0.72991  0.75700  Biso   1.000  C
  H102     1.0000 0.94950  0.71280  0.78150  Biso   1.000  H
  C96      1.0000 0.84280  0.78000  0.68410  Biso   1.000  C
  H103     1.0000 0.81630  0.79730  0.66000  Biso   1.000  H
  C97      1.0000 0.93010  0.76478  0.77320  Biso   1.000  C
  C98      1.0000 0.88960  0.78976  0.73680  Biso   1.000  C
  H104     1.0000 0.89340  0.81330  0.74760  Biso   1.000  H
  C99      1.0000 0.10924  0.40487  0.38717  Biso   1.000  C
  C100     1.0000 0.17290  0.41542  0.37508  Biso   1.000  C
  C101     1.0000 0.19980  0.39562  0.34030  Biso   1.000  C
  H105     1.0000 0.17550  0.37580  0.32200  Biso   1.000  H
  C102     1.0000 0.26280  0.40532  0.33270  Biso   1.000  C
  H106     1.0000 0.28000  0.39220  0.30870  Biso   1.000  H
  C103     1.0000 0.21060  0.44481  0.40140  Biso   1.000  C
  H107     1.0000 0.19290  0.45850  0.42440  Biso   1.000  H
  C104     1.0000 0.30050  0.43430  0.36030  Biso   1.000  C
  C105     1.0000 0.27320  0.45416  0.39420  Biso   1.000  C
  H108     1.0000 0.29740  0.47410  0.41230  Biso   1.000  H
  C106     1.0000 0.01436  0.40719  0.40905  Biso   1.000  C
  C107     1.0000 0.95750  0.45648  0.44270  Biso   1.000  C
  H109     1.0000 0.99420  0.47100  0.44110  Biso   1.000  H
  C108     1.0000 0.90590  0.47010  0.46100  Biso   1.000  C
  H110     1.0000 0.90820  0.49360  0.47190  Biso   1.000  H
  C109     1.0000 0.95670  0.42120  0.42621  Biso   1.000  C
  C110     1.0000 0.90260  0.40026  0.43120  Biso   1.000  C
  H111     1.0000 0.90180  0.37640  0.42250  Biso   1.000  H
  C111     1.0000 0.85000  0.41395  0.44860  Biso   1.000  C
  H112     1.0000 0.81350  0.39950  0.45070  Biso   1.000  H
  C112     1.0000 0.85080  0.44951  0.46340  Biso   1.000  C
  C113     1.0000 0.22510  0.64310  0.41011  Biso   1.000  C
  C114     1.0000 0.26060  0.65547  0.46376  Biso   1.000  C
  H113     1.0000 0.25610  0.67910  0.47190  Biso   1.000  H
  C115     1.0000 0.23130  0.60793  0.40000  Biso   1.000  C
  H114     1.0000 0.20610  0.59860  0.36470  Biso   1.000  H
  C116     1.0000 0.18143  0.66697  0.36541  Biso   1.000  C
  C117     1.0000 0.30280  0.63371  0.50590  Biso   1.000  C
  H115     1.0000 0.32560  0.64270  0.54190  Biso   1.000  H
  C118     1.0000 0.27460  0.58590  0.44140  Biso   1.000  C
  H116     1.0000 0.27930  0.56230  0.43320  Biso   1.000  H
  C119     1.0000 0.31100  0.59900  0.49490  Biso   1.000  C
  C120     1.0000 0.14842  0.74431  0.27881  Biso   1.000  C
  C121     1.0000 0.19930  0.75150  0.25394  Biso   1.000  C
  H117     1.0000 0.23730  0.73620  0.25950  Biso   1.000  H
  C122     1.0000 0.19430  0.78081  0.22145  Biso   1.000  C
  H118     1.0000 0.22910  0.78520  0.20530  Biso   1.000  H
  C123     1.0000 0.09318  0.76843  0.27074  Biso   1.000  C
  H119     1.0000 0.05910  0.76450  0.28780  Biso   1.000  H
  C124     1.0000 0.14934  0.71151  0.30993  Biso   1.000  C
  C125     1.0000 0.13840  0.80427  0.21201  Biso   1.000  C
  C126     1.0000 0.08840  0.79779  0.23810  Biso   1.000  C
  H120     1.0000 0.05130  0.81360  0.23330  Biso   1.000  H
  C127     1.0000 0.09277  0.52933  0.30531  Biso   1.000  C
  C128     1.0000 0.13270  0.50648  0.27977  Biso   1.000  C
  C129     1.0000 0.10600  0.47457  0.25419  Biso   1.000  C
  H121     1.0000 0.06370  0.46600  0.25690  Biso   1.000  H
  C130     1.0000 0.20410  0.46756  0.22070  Biso   1.000  C
  C131     1.0000 0.19700  0.51788  0.27650  Biso   1.000  C
  H122     1.0000 0.21650  0.53890  0.29390  Biso   1.000  H
  C132     1.0000 0.14100  0.45534  0.22470  Biso   1.000  C
  H123     1.0000 0.12210  0.43420  0.20770  Biso   1.000  H
  C133     1.0000 0.23260  0.49874  0.24780  Biso   1.000  C
  H124     1.0000 0.27600  0.50670  0.24660  Biso   1.000  H
  C134     1.0000 0.91540  0.53785  0.36827  Biso   1.000  C
  H125     1.0000 0.90740  0.51870  0.34380  Biso   1.000  H
  C135     1.0000 0.93820  0.59418  0.44214  Biso   1.000  C
  H126     1.0000 0.94630  0.61330  0.46670  Biso   1.000  H
  C136     1.0000 0.97790  0.55627  0.38132  Biso   1.000  C
  C137     1.0000 0.02747  0.55062  0.35044  Biso   1.000  C
  C138     1.0000 0.98890  0.58452  0.41916  Biso   1.000  C
  H127     1.0000 0.03130  0.59700  0.42890  Biso   1.000  H
  C139     1.0000 0.87550  0.57591  0.42920  Biso   1.000  C
  C140     1.0000 0.86400  0.54769  0.39150  Biso   1.000  C
  H128     1.0000 0.82150  0.53540  0.38170  Biso   1.000  H
  C141     1.0000 0.46186  0.69225  0.45938  Biso   1.000  C
  C142     1.0000 0.51220  0.68355  0.51118  Biso   1.000  C
  H129     1.0000 0.53640  0.70150  0.53510  Biso   1.000  H
  C143     1.0000 0.42670  0.66441  0.42530  Biso   1.000  C
  H130     1.0000 0.39240  0.66920  0.39050  Biso   1.000  H
  C144     1.0000 0.44180  0.62978  0.44210  Biso   1.000  C
  H131     1.0000 0.41760  0.61170  0.41850  Biso   1.000  H
  C145     1.0000 0.44692  0.72894  0.44171  Biso   1.000  C
  C146     1.0000 0.52710  0.64899  0.52793  Biso   1.000  C
  H132     1.0000 0.56100  0.64400  0.56280  Biso   1.000  H
  C147     1.0000 0.49220  0.62154  0.49340  Biso   1.000  C
  C148     1.0000 0.39196  0.77614  0.40366  Biso   1.000  C
  C149     1.0000 0.27120  0.80002  0.38575  Biso   1.000  C
  H133     1.0000 0.26350  0.78240  0.40890  Biso   1.000  H
  C150     1.0000 0.21890  0.82452  0.36210  Biso   1.000  C
  H134     1.0000 0.17640  0.82330  0.36960  Biso   1.000  H
  C151     1.0000 0.22860  0.85097  0.32750  Biso   1.000  C
  C152     1.0000 0.29140  0.85185  0.31590  Biso   1.000  C
  H135     1.0000 0.29830  0.86910  0.29200  Biso   1.000  H
  C153     1.0000 0.34420  0.82738  0.33946  Biso   1.000  C
  H136     1.0000 0.38610  0.82840  0.33120  Biso   1.000  H
  C154     1.0000 0.33519  0.80117  0.37552  Biso   1.000  C
  C155     1.0000 0.83412  0.64714  0.31398  Biso   1.000  C
  C156     1.0000 0.76151  0.63410  0.28972  Biso   1.000  C
  C157     1.0000 0.73750  0.62438  0.23420  Biso   1.000  C
  H137     1.0000 0.76450  0.62980  0.21140  Biso   1.000  H
  C158     1.0000 0.72040  0.62713  0.32310  Biso   1.000  C
  H138     1.0000 0.73560  0.63380  0.36090  Biso   1.000  H
  C159     1.0000 0.67430  0.60664  0.21080  Biso   1.000  C
  H139     1.0000 0.65970  0.59990  0.17310  Biso   1.000  H
  C160     1.0000 0.63360  0.59910  0.24270  Biso   1.000  C
  C161     1.0000 0.65630  0.61000  0.29930  Biso   1.000  C
  H140     1.0000 0.62770  0.60580  0.32120  Biso   1.000  H
  C162     1.0000 0.98250  0.70040  0.39051  Biso   1.000  C
  C163     1.0000 0.97420  0.73562  0.37523  Biso   1.000  C
  H141     1.0000 0.93210  0.74310  0.34860  Biso   1.000  H
  C164     1.0000 0.02700  0.75966  0.39850  Biso   1.000  C
  H142     1.0000 0.02070  0.78310  0.38720  Biso   1.000  H
  C165     1.0000 0.09790  0.71400  0.45540  Biso   1.000  C
  H143     1.0000 0.13950  0.70670  0.48290  Biso   1.000  H
  C166     1.0000 0.08960  0.74899  0.43880  Biso   1.000  C
  C167     1.0000 0.93003  0.67438  0.35853  Biso   1.000  C
  C168     1.0000 0.04470  0.68983  0.43145  Biso   1.000  C
  H144     1.0000 0.05070  0.66640  0.44290  Biso   1.000  H
  Cu17     1.0000 0.46124  0.12835  0.16817  Biso   1.000  Cu
  Cu18     1.0000 0.44743  0.97450  0.13263  Biso   1.000  Cu
  Cu19     1.0000 0.90703  0.25467  0.00316  Biso   1.000  Cu
  Cu20     1.0000 0.20492  0.21817  0.11899  Biso   1.000  Cu
  Cu21     1.0000 0.99356  0.32874  0.06754  Biso   1.000  Cu
  Cu22     1.0000 0.68271  0.20624  0.11235  Biso   1.000  Cu
  Cu23     1.0000 0.84778  0.33109  0.08740  Biso   1.000  Cu
  Cu24     1.0000 0.39143  0.09466  0.25379  Biso   1.000  Cu
  Cl3      1.0000 0.87485  0.31859  0.99214  Biso   1.000  Cl
  N61      1.0000 0.44992  0.07760  0.17223  Biso   1.000  N
  N62      1.0000 0.44664  0.01959  0.16215  Biso   1.000  N
  N63      1.0000 0.40855  0.06390  0.20171  Biso   1.000  N
  N64      1.0000 0.72111  0.20424  0.91605  Biso   1.000  N
  N65      1.0000 0.77642  0.25403  0.91098  Biso   1.000  N
  N66      1.0000 0.81760  0.23557  0.95779  Biso   1.000  N
  N67      1.0000 0.00500  0.25440  0.04745  Biso   1.000  N
  N68      1.0000 0.04067  0.28494  0.07177  Biso   1.000  N
  N69      1.0000 0.11837  0.24144  0.08903  Biso   1.000  N
  N70      1.0000 0.46677  0.87352  0.08873  Biso   1.000  N
  N71      1.0000 0.40547  0.87213  0.10284  Biso   1.000  N
  N72      1.0000 0.44018  0.92772  0.10729  Biso   1.000  N
  N73      1.0000 0.61393  0.13070  0.19748  Biso   1.000  N
  N74      1.0000 0.55214  0.14835  0.16920  Biso   1.000  N
  N75      1.0000 0.64066  0.17466  0.15064  Biso   1.000  N
  N76      1.0000 0.29415  0.19774  0.14950  Biso   1.000  N
  N77      1.0000 0.38600  0.16213  0.16457  Biso   1.000  N
  N78      1.0000 0.40666  0.19076  0.20015  Biso   1.000  N
  N79      1.0000 0.32300  0.37607  0.19460  Biso   1.000  N
  H145     1.0000 0.31620  0.39250  0.21580  Biso   1.000  H
  H146     1.0000 0.36190  0.37530  0.18710  Biso   1.000  H
  N80      1.0000 0.36830  0.33324  0.32310  Biso   1.000  N
  H147     1.0000 0.40360  0.34730  0.32880  Biso   1.000  H
  H148     1.0000 0.33710  0.33710  0.33910  Biso   1.000  H
  N81      1.0000 0.67400  0.08505  0.04560  Biso   1.000  N
  H149     1.0000 0.66560  0.10220  0.02190  Biso   1.000  H
  H150     1.0000 0.71320  0.07360  0.05370  Biso   1.000  H
  N82      1.0000 0.26110  0.94819  0.30940  Biso   1.000  N
  H151     1.0000 0.27900  0.92870  0.32540  Biso   1.000  H
  H152     1.0000 0.22170  0.95570  0.31200  Biso   1.000  H
  N83      1.0000 0.35520  0.27342  0.03850  Biso   1.000  N
  H153     1.0000 0.31590  0.26670  0.01410  Biso   1.000  H
  H154     1.0000 0.36080  0.29510  0.04910  Biso   1.000  H
  N84      1.0000 0.92370  0.09364  0.10160  Biso   1.000  N
  H155     1.0000 0.91800  0.07240  0.08890  Biso   1.000  H
  H156     1.0000 0.95330  0.09790  0.13470  Biso   1.000  H
  N85      1.0000 0.99090  0.08668  0.99050  Biso   1.000  N
  H157     1.0000 0.01190  0.06980  0.01270  Biso   1.000  H
  H158     1.0000 0.95940  0.08200  0.95850  Biso   1.000  H
  N86      1.0000 0.52190  0.27410  0.67464  Biso   1.000  N
  H159     1.0000 0.49690  0.25810  0.65260  Biso   1.000  H
  H160     1.0000 0.51710  0.29580  0.66440  Biso   1.000  H
  N87      1.0000 0.14830  0.07679  0.96200  Biso   1.000  N
  H161     1.0000 0.12830  0.08500  0.92850  Biso   1.000  H
  H162     1.0000 0.14320  0.05500  0.96910  Biso   1.000  H
  N88      1.0000 0.13470  0.94263  0.14510  Biso   1.000  N
  H163     1.0000 0.11090  0.96040  0.12720  Biso   1.000  H
  H164     1.0000 0.11810  0.93000  0.16630  Biso   1.000  H
  N89      1.0000 0.70300  0.96393  0.02040  Biso   1.000  N
  H165     1.0000 0.70190  0.98590  0.01190  Biso   1.000  H
  H166     1.0000 0.73750  0.95090  0.01900  Biso   1.000  H
  N90      1.0000 0.93180  0.08130  0.28130  Biso   1.000  N
  H167     1.0000 0.94580  0.07540  0.31630  Biso   1.000  H
  H168     1.0000 0.95760  0.07650  0.26080  Biso   1.000  H
  C169     1.0000 0.78362  0.20594  0.95935  Biso   1.000  C
  C170     1.0000 0.85730  0.18332  0.05438  Biso   1.000  C
  H169     1.0000 0.86320  0.20620  0.06860  Biso   1.000  H
  C171     1.0000 0.88480  0.12126  0.06840  Biso   1.000  C
  C172     1.0000 0.83720  0.11489  0.01540  Biso   1.000  C
  H170     1.0000 0.82800  0.09180  0.00250  Biso   1.000  H
  C173     1.0000 0.81325  0.17730  0.99932  Biso   1.000  C
  C174     1.0000 0.80280  0.14252  0.98088  Biso   1.000  C
  H171     1.0000 0.77210  0.13770  0.94470  Biso   1.000  H
  C175     1.0000 0.89260  0.15578  0.08834  Biso   1.000  C
  H172     1.0000 0.92200  0.16040  0.12500  Biso   1.000  H
  C176     1.0000 0.71936  0.23444  0.88654  Biso   1.000  C
  C177     1.0000 0.66520  0.24490  0.83339  Biso   1.000  C
  C178     1.0000 0.62440  0.21984  0.79590  Biso   1.000  C
  H173     1.0000 0.62850  0.19620  0.80610  Biso   1.000  H
  C179     1.0000 0.57720  0.22991  0.74300  Biso   1.000  C
  H174     1.0000 0.55050  0.21280  0.71850  Biso   1.000  H
  C180     1.0000 0.65720  0.28000  0.81590  Biso   1.000  C
  H175     1.0000 0.68370  0.29730  0.84000  Biso   1.000  H
  C181     1.0000 0.56990  0.26478  0.72680  Biso   1.000  C
  C182     1.0000 0.61040  0.28976  0.76320  Biso   1.000  C
  H176     1.0000 0.60660  0.31330  0.75240  Biso   1.000  H
  C183     1.0000 0.39076  0.90487  0.11283  Biso   1.000  C
  C184     1.0000 0.32710  0.91542  0.12492  Biso   1.000  C
  C185     1.0000 0.30020  0.89562  0.15970  Biso   1.000  C
  H177     1.0000 0.32450  0.87580  0.17800  Biso   1.000  H
  C186     1.0000 0.23720  0.90532  0.16730  Biso   1.000  C
  H178     1.0000 0.22000  0.89220  0.19130  Biso   1.000  H
  C187     1.0000 0.28940  0.94481  0.09860  Biso   1.000  C
  H179     1.0000 0.30710  0.95850  0.07560  Biso   1.000  H
  C188     1.0000 0.19950  0.93430  0.13970  Biso   1.000  C
  C189     1.0000 0.22680  0.95416  0.10580  Biso   1.000  C
  H180     1.0000 0.20260  0.97410  0.08770  Biso   1.000  H
  C190     1.0000 0.48564  0.90719  0.09095  Biso   1.000  C
  C191     1.0000 0.54250  0.95648  0.05730  Biso   1.000  C
  H181     1.0000 0.50580  0.97100  0.05890  Biso   1.000  H
  C192     1.0000 0.59410  0.97010  0.03900  Biso   1.000  C
  H182     1.0000 0.59180  0.99360  0.02810  Biso   1.000  H
  C193     1.0000 0.54330  0.92120  0.07379  Biso   1.000  C
  C194     1.0000 0.59740  0.90026  0.06880  Biso   1.000  C
  H183     1.0000 0.59820  0.87640  0.07750  Biso   1.000  H
  C195     1.0000 0.65000  0.91395  0.05140  Biso   1.000  C
  H184     1.0000 0.68650  0.89950  0.04930  Biso   1.000  H
  C196     1.0000 0.64920  0.94951  0.03660  Biso   1.000  C
  C197     1.0000 0.27490  0.14310  0.08989  Biso   1.000  C
  C198     1.0000 0.23940  0.15547  0.03624  Biso   1.000  C
  H185     1.0000 0.24390  0.17910  0.02810  Biso   1.000  H
  C199     1.0000 0.26870  0.10793  0.10000  Biso   1.000  C
  H186     1.0000 0.29390  0.09860  0.13530  Biso   1.000  H
  C200     1.0000 0.31857  0.16697  0.13459  Biso   1.000  C
  C201     1.0000 0.19720  0.13371  0.99410  Biso   1.000  C
  H187     1.0000 0.17440  0.14270  0.95810  Biso   1.000  H
  C202     1.0000 0.22540  0.08590  0.05860  Biso   1.000  C
  H188     1.0000 0.22070  0.06230  0.06680  Biso   1.000  H
  C203     1.0000 0.18900  0.09900  0.00510  Biso   1.000  C
  C204     1.0000 0.35158  0.24431  0.22119  Biso   1.000  C
  C205     1.0000 0.30070  0.25150  0.24606  Biso   1.000  C
  H189     1.0000 0.26270  0.23620  0.24050  Biso   1.000  H
  C206     1.0000 0.30570  0.28081  0.27855  Biso   1.000  C
  H190     1.0000 0.27090  0.28520  0.29470  Biso   1.000  H
  C207     1.0000 0.40682  0.26843  0.22926  Biso   1.000  C
  H191     1.0000 0.44090  0.26450  0.21220  Biso   1.000  H
  C208     1.0000 0.35066  0.21151  0.19007  Biso   1.000  C
  C209     1.0000 0.36160  0.30427  0.28799  Biso   1.000  C
  C210     1.0000 0.41160  0.29779  0.26190  Biso   1.000  C
  H192     1.0000 0.44870  0.31360  0.26670  Biso   1.000  H
  C211     1.0000 0.40723  0.02933  0.19469  Biso   1.000  C
  C212     1.0000 0.36730  0.00648  0.22023  Biso   1.000  C
  C213     1.0000 0.39400  0.97457  0.24581  Biso   1.000  C
  H193     1.0000 0.43630  0.96600  0.24310  Biso   1.000  H
  C214     1.0000 0.29590  0.96756  0.27930  Biso   1.000  C
  C215     1.0000 0.30300  0.01788  0.22350  Biso   1.000  C
  H194     1.0000 0.28350  0.03890  0.20610  Biso   1.000  H
  C216     1.0000 0.35900  0.95534  0.27530  Biso   1.000  C
  H195     1.0000 0.37790  0.93420  0.29230  Biso   1.000  H
  C217     1.0000 0.26740  0.99874  0.25220  Biso   1.000  C
  H196     1.0000 0.22400  0.00670  0.25340  Biso   1.000  H
  C218     1.0000 0.58460  0.03785  0.13173  Biso   1.000  C
  H197     1.0000 0.59260  0.01870  0.15620  Biso   1.000  H
  C219     1.0000 0.56180  0.09418  0.05786  Biso   1.000  C
  H198     1.0000 0.55370  0.11330  0.03330  Biso   1.000  H
  C220     1.0000 0.52210  0.05627  0.11868  Biso   1.000  C
  C221     1.0000 0.47253  0.05062  0.14956  Biso   1.000  C
  C222     1.0000 0.51110  0.08452  0.08084  Biso   1.000  C
  H199     1.0000 0.46870  0.09700  0.07110  Biso   1.000  H
  C223     1.0000 0.62450  0.07591  0.07080  Biso   1.000  C
  C224     1.0000 0.63600  0.04769  0.10850  Biso   1.000  C
  H200     1.0000 0.67850  0.03540  0.11830  Biso   1.000  H
  C225     1.0000 0.03814  0.19225  0.04062  Biso   1.000  C
  C226     1.0000 0.98780  0.18355  0.98882  Biso   1.000  C
  H201     1.0000 0.96360  0.20150  0.96490  Biso   1.000  H
  C227     1.0000 0.07330  0.16441  0.07470  Biso   1.000  C
  H202     1.0000 0.10760  0.16920  0.10950  Biso   1.000  H
  C228     1.0000 0.05820  0.12978  0.05790  Biso   1.000  C
  H203     1.0000 0.08240  0.11170  0.08150  Biso   1.000  H
  C229     1.0000 0.05308  0.22894  0.05829  Biso   1.000  C
  C230     1.0000 0.97290  0.14899  0.97207  Biso   1.000  C
  H204     1.0000 0.93900  0.14400  0.93720  Biso   1.000  H
  C231     1.0000 0.00780  0.12154  0.00660  Biso   1.000  C
  C232     1.0000 0.10804  0.27614  0.09634  Biso   1.000  C
  C233     1.0000 0.22880  0.30002  0.11425  Biso   1.000  C
  H205     1.0000 0.23650  0.28240  0.09110  Biso   1.000  H
  C234     1.0000 0.28110  0.32452  0.13790  Biso   1.000  C
  H206     1.0000 0.32360  0.32330  0.13040  Biso   1.000  H
  C235     1.0000 0.27140  0.35097  0.17250  Biso   1.000  C
  C236     1.0000 0.20860  0.35185  0.18410  Biso   1.000  C
  H207     1.0000 0.20170  0.36910  0.20800  Biso   1.000  H
  C237     1.0000 0.15580  0.32738  0.16054  Biso   1.000  C
  H208     1.0000 0.11390  0.32840  0.16880  Biso   1.000  H
  C238     1.0000 0.16481  0.30117  0.12448  Biso   1.000  C
  C239     1.0000 0.66588  0.14714  0.18602  Biso   1.000  C
  C240     1.0000 0.73849  0.13410  0.21028  Biso   1.000  C
  C241     1.0000 0.76250  0.12438  0.26580  Biso   1.000  C
  H209     1.0000 0.73550  0.12980  0.28860  Biso   1.000  H
  C242     1.0000 0.77960  0.12713  0.17690  Biso   1.000  C
  H210     1.0000 0.76440  0.13380  0.13910  Biso   1.000  H
  C243     1.0000 0.82570  0.10664  0.28920  Biso   1.000  C
  H211     1.0000 0.84030  0.09990  0.32690  Biso   1.000  H
  C244     1.0000 0.86640  0.09910  0.25730  Biso   1.000  C
  C245     1.0000 0.84370  0.11000  0.20070  Biso   1.000  C
  H212     1.0000 0.87230  0.10580  0.17880  Biso   1.000  H
  C246     1.0000 0.51750  0.20040  0.10949  Biso   1.000  C
  C247     1.0000 0.52580  0.23562  0.12477  Biso   1.000  C
  H213     1.0000 0.56790  0.24310  0.15140  Biso   1.000  H
  C248     1.0000 0.47300  0.25966  0.10150  Biso   1.000  C
  H214     1.0000 0.47930  0.28310  0.11280  Biso   1.000  H
  C249     1.0000 0.40210  0.21400  0.04460  Biso   1.000  C
  H215     1.0000 0.36050  0.20670  0.01710  Biso   1.000  H
  C250     1.0000 0.41040  0.24899  0.06120  Biso   1.000  C
  C251     1.0000 0.56997  0.17438  0.14147  Biso   1.000  C
  C252     1.0000 0.45530  0.18983  0.06855  Biso   1.000  C
  H216     1.0000 0.44930  0.16640  0.05710  Biso   1.000  H
  Cu25     1.0000 0.96124  0.62835  0.16817  Biso   1.000  Cu
  Cu26     1.0000 0.94743  0.47450  0.13263  Biso   1.000  Cu
  Cu27     1.0000 0.40703  0.75467  0.00316  Biso   1.000  Cu
  Cu28     1.0000 0.70492  0.71817  0.11899  Biso   1.000  Cu
  Cu29     1.0000 0.49356  0.82874  0.06754  Biso   1.000  Cu
  Cu30     1.0000 0.18271  0.70624  0.11235  Biso   1.000  Cu
  Cu31     1.0000 0.34778  0.83109  0.08740  Biso   1.000  Cu
  Cu32     1.0000 0.89143  0.59466  0.25379  Biso   1.000  Cu
  Cl4      1.0000 0.37485  0.81859  0.99214  Biso   1.000  Cl
  N91      1.0000 0.94992  0.57760  0.17223  Biso   1.000  N
  N92      1.0000 0.94664  0.51959  0.16215  Biso   1.000  N
  N93      1.0000 0.90855  0.56390  0.20171  Biso   1.000  N
  N94      1.0000 0.22111  0.70424  0.91605  Biso   1.000  N
  N95      1.0000 0.27642  0.75403  0.91098  Biso   1.000  N
  N96      1.0000 0.31760  0.73557  0.95779  Biso   1.000  N
  N97      1.0000 0.50500  0.75440  0.04745  Biso   1.000  N
  N98      1.0000 0.54067  0.78494  0.07177  Biso   1.000  N
  N99      1.0000 0.61837  0.74144  0.08903  Biso   1.000  N
  N100     1.0000 0.96677  0.37352  0.08873  Biso   1.000  N
  N101     1.0000 0.90547  0.37213  0.10284  Biso   1.000  N
  N102     1.0000 0.94018  0.42772  0.10729  Biso   1.000  N
  N103     1.0000 0.11393  0.63070  0.19748  Biso   1.000  N
  N104     1.0000 0.05214  0.64835  0.16920  Biso   1.000  N
  N105     1.0000 0.14066  0.67466  0.15064  Biso   1.000  N
  N106     1.0000 0.79415  0.69774  0.14950  Biso   1.000  N
  N107     1.0000 0.88600  0.66213  0.16457  Biso   1.000  N
  N108     1.0000 0.90666  0.69076  0.20015  Biso   1.000  N
  N109     1.0000 0.82300  0.87607  0.19460  Biso   1.000  N
  H217     1.0000 0.81620  0.89250  0.21580  Biso   1.000  H
  H218     1.0000 0.86190  0.87530  0.18710  Biso   1.000  H
  N110     1.0000 0.86830  0.83324  0.32310  Biso   1.000  N
  H219     1.0000 0.90360  0.84730  0.32880  Biso   1.000  H
  H220     1.0000 0.83710  0.83710  0.33910  Biso   1.000  H
  N111     1.0000 0.17400  0.58505  0.04560  Biso   1.000  N
  H221     1.0000 0.16560  0.60220  0.02190  Biso   1.000  H
  H222     1.0000 0.21320  0.57360  0.05370  Biso   1.000  H
  N112     1.0000 0.76110  0.44819  0.30940  Biso   1.000  N
  H223     1.0000 0.77900  0.42870  0.32540  Biso   1.000  H
  H224     1.0000 0.72170  0.45570  0.31200  Biso   1.000  H
  N113     1.0000 0.85520  0.77342  0.03850  Biso   1.000  N
  H225     1.0000 0.81590  0.76670  0.01410  Biso   1.000  H
  H226     1.0000 0.86080  0.79510  0.04910  Biso   1.000  H
  N114     1.0000 0.42370  0.59364  0.10160  Biso   1.000  N
  H227     1.0000 0.41800  0.57240  0.08890  Biso   1.000  H
  H228     1.0000 0.45330  0.59790  0.13470  Biso   1.000  H
  N115     1.0000 0.49090  0.58668  0.99050  Biso   1.000  N
  H229     1.0000 0.51190  0.56980  0.01270  Biso   1.000  H
  H230     1.0000 0.45940  0.58200  0.95850  Biso   1.000  H
  N116     1.0000 0.02190  0.77410  0.67464  Biso   1.000  N
  H231     1.0000 0.99690  0.75810  0.65260  Biso   1.000  H
  H232     1.0000 0.01710  0.79580  0.66440  Biso   1.000  H
  N117     1.0000 0.64830  0.57679  0.96200  Biso   1.000  N
  H233     1.0000 0.62830  0.58500  0.92850  Biso   1.000  H
  H234     1.0000 0.64320  0.55500  0.96910  Biso   1.000  H
  N118     1.0000 0.63470  0.44263  0.14510  Biso   1.000  N
  H235     1.0000 0.61090  0.46040  0.12720  Biso   1.000  H
  H236     1.0000 0.61810  0.43000  0.16630  Biso   1.000  H
  N119     1.0000 0.20300  0.46393  0.02040  Biso   1.000  N
  H237     1.0000 0.20190  0.48590  0.01190  Biso   1.000  H
  H238     1.0000 0.23750  0.45090  0.01900  Biso   1.000  H
  N120     1.0000 0.43180  0.58130  0.28130  Biso   1.000  N
  H239     1.0000 0.44580  0.57540  0.31630  Biso   1.000  H
  H240     1.0000 0.45760  0.57650  0.26080  Biso   1.000  H
  C253     1.0000 0.28362  0.70594  0.95935  Biso   1.000  C
  C254     1.0000 0.35730  0.68332  0.05438  Biso   1.000  C
  H241     1.0000 0.36320  0.70620  0.06860  Biso   1.000  H
  C255     1.0000 0.38480  0.62126  0.06840  Biso   1.000  C
  C256     1.0000 0.33720  0.61489  0.01540  Biso   1.000  C
  H242     1.0000 0.32800  0.59180  0.00250  Biso   1.000  H
  C257     1.0000 0.31325  0.67730  0.99932  Biso   1.000  C
  C258     1.0000 0.30280  0.64252  0.98088  Biso   1.000  C
  H243     1.0000 0.27210  0.63770  0.94470  Biso   1.000  H
  C259     1.0000 0.39260  0.65578  0.08834  Biso   1.000  C
  H244     1.0000 0.42200  0.66040  0.12500  Biso   1.000  H
  C260     1.0000 0.21936  0.73444  0.88654  Biso   1.000  C
  C261     1.0000 0.16520  0.74490  0.83339  Biso   1.000  C
  C262     1.0000 0.12440  0.71984  0.79590  Biso   1.000  C
  H245     1.0000 0.12850  0.69620  0.80610  Biso   1.000  H
  C263     1.0000 0.07720  0.72991  0.74300  Biso   1.000  C
  H246     1.0000 0.05050  0.71280  0.71850  Biso   1.000  H
  C264     1.0000 0.15720  0.78000  0.81590  Biso   1.000  C
  H247     1.0000 0.18370  0.79730  0.84000  Biso   1.000  H
  C265     1.0000 0.06990  0.76478  0.72680  Biso   1.000  C
  C266     1.0000 0.11040  0.78976  0.76320  Biso   1.000  C
  H248     1.0000 0.10660  0.81330  0.75240  Biso   1.000  H
  C267     1.0000 0.89076  0.40487  0.11283  Biso   1.000  C
  C268     1.0000 0.82710  0.41542  0.12492  Biso   1.000  C
  C269     1.0000 0.80020  0.39562  0.15970  Biso   1.000  C
  H249     1.0000 0.82450  0.37580  0.17800  Biso   1.000  H
  C270     1.0000 0.73720  0.40532  0.16730  Biso   1.000  C
  H250     1.0000 0.72000  0.39220  0.19130  Biso   1.000  H
  C271     1.0000 0.78940  0.44481  0.09860  Biso   1.000  C
  H251     1.0000 0.80710  0.45850  0.07560  Biso   1.000  H
  C272     1.0000 0.69950  0.43430  0.13970  Biso   1.000  C
  C273     1.0000 0.72680  0.45416  0.10580  Biso   1.000  C
  H252     1.0000 0.70260  0.47410  0.08770  Biso   1.000  H
  C274     1.0000 0.98564  0.40719  0.09095  Biso   1.000  C
  C275     1.0000 0.04250  0.45648  0.05730  Biso   1.000  C
  H253     1.0000 0.00580  0.47100  0.05890  Biso   1.000  H
  C276     1.0000 0.09410  0.47010  0.03900  Biso   1.000  C
  H254     1.0000 0.09180  0.49360  0.02810  Biso   1.000  H
  C277     1.0000 0.04330  0.42120  0.07379  Biso   1.000  C
  C278     1.0000 0.09740  0.40026  0.06880  Biso   1.000  C
  H255     1.0000 0.09820  0.37640  0.07750  Biso   1.000  H
  C279     1.0000 0.15000  0.41395  0.05140  Biso   1.000  C
  H256     1.0000 0.18650  0.39950  0.04930  Biso   1.000  H
  C280     1.0000 0.14920  0.44951  0.03660  Biso   1.000  C
  C281     1.0000 0.77490  0.64310  0.08989  Biso   1.000  C
  C282     1.0000 0.73940  0.65547  0.03624  Biso   1.000  C
  H257     1.0000 0.74390  0.67910  0.02810  Biso   1.000  H
  C283     1.0000 0.76870  0.60793  0.10000  Biso   1.000  C
  H258     1.0000 0.79390  0.59860  0.13530  Biso   1.000  H
  C284     1.0000 0.81857  0.66697  0.13459  Biso   1.000  C
  C285     1.0000 0.69720  0.63371  0.99410  Biso   1.000  C
  H259     1.0000 0.67440  0.64270  0.95810  Biso   1.000  H
  C286     1.0000 0.72540  0.58590  0.05860  Biso   1.000  C
  H260     1.0000 0.72070  0.56230  0.06680  Biso   1.000  H
  C287     1.0000 0.68900  0.59900  0.00510  Biso   1.000  C
  C288     1.0000 0.85158  0.74431  0.22119  Biso   1.000  C
  C289     1.0000 0.80070  0.75150  0.24606  Biso   1.000  C
  H261     1.0000 0.76270  0.73620  0.24050  Biso   1.000  H
  C290     1.0000 0.80570  0.78081  0.27855  Biso   1.000  C
  H262     1.0000 0.77090  0.78520  0.29470  Biso   1.000  H
  C291     1.0000 0.90682  0.76843  0.22926  Biso   1.000  C
  H263     1.0000 0.94090  0.76450  0.21220  Biso   1.000  H
  C292     1.0000 0.85066  0.71151  0.19007  Biso   1.000  C
  C293     1.0000 0.86160  0.80427  0.28799  Biso   1.000  C
  C294     1.0000 0.91160  0.79779  0.26190  Biso   1.000  C
  H264     1.0000 0.94870  0.81360  0.26670  Biso   1.000  H
  C295     1.0000 0.90723  0.52933  0.19469  Biso   1.000  C
  C296     1.0000 0.86730  0.50648  0.22023  Biso   1.000  C
  C297     1.0000 0.89400  0.47457  0.24581  Biso   1.000  C
  H265     1.0000 0.93630  0.46600  0.24310  Biso   1.000  H
  C298     1.0000 0.79590  0.46756  0.27930  Biso   1.000  C
  C299     1.0000 0.80300  0.51788  0.22350  Biso   1.000  C
  H266     1.0000 0.78350  0.53890  0.20610  Biso   1.000  H
  C300     1.0000 0.85900  0.45534  0.27530  Biso   1.000  C
  H267     1.0000 0.87790  0.43420  0.29230  Biso   1.000  H
  C301     1.0000 0.76740  0.49874  0.25220  Biso   1.000  C
  H268     1.0000 0.72400  0.50670  0.25340  Biso   1.000  H
  C302     1.0000 0.08460  0.53785  0.13173  Biso   1.000  C
  H269     1.0000 0.09260  0.51870  0.15620  Biso   1.000  H
  C303     1.0000 0.06180  0.59418  0.05786  Biso   1.000  C
  H270     1.0000 0.05370  0.61330  0.03330  Biso   1.000  H
  C304     1.0000 0.02210  0.55627  0.11868  Biso   1.000  C
  C305     1.0000 0.97253  0.55062  0.14956  Biso   1.000  C
  C306     1.0000 0.01110  0.58452  0.08084  Biso   1.000  C
  H271     1.0000 0.96870  0.59700  0.07110  Biso   1.000  H
  C307     1.0000 0.12450  0.57591  0.07080  Biso   1.000  C
  C308     1.0000 0.13600  0.54769  0.10850  Biso   1.000  C
  H272     1.0000 0.17850  0.53540  0.11830  Biso   1.000  H
  C309     1.0000 0.53814  0.69225  0.04062  Biso   1.000  C
  C310     1.0000 0.48780  0.68355  0.98882  Biso   1.000  C
  H273     1.0000 0.46360  0.70150  0.96490  Biso   1.000  H
  C311     1.0000 0.57330  0.66441  0.07470  Biso   1.000  C
  H274     1.0000 0.60760  0.66920  0.10950  Biso   1.000  H
  C312     1.0000 0.55820  0.62978  0.05790  Biso   1.000  C
  H275     1.0000 0.58240  0.61170  0.08150  Biso   1.000  H
  C313     1.0000 0.55308  0.72894  0.05829  Biso   1.000  C
  C314     1.0000 0.47290  0.64899  0.97207  Biso   1.000  C
  H276     1.0000 0.43900  0.64400  0.93720  Biso   1.000  H
  C315     1.0000 0.50780  0.62154  0.00660  Biso   1.000  C
  C316     1.0000 0.60804  0.77614  0.09634  Biso   1.000  C
  C317     1.0000 0.72880  0.80002  0.11425  Biso   1.000  C
  H277     1.0000 0.73650  0.78240  0.09110  Biso   1.000  H
  C318     1.0000 0.78110  0.82452  0.13790  Biso   1.000  C
  H278     1.0000 0.82360  0.82330  0.13040  Biso   1.000  H
  C319     1.0000 0.77140  0.85097  0.17250  Biso   1.000  C
  C320     1.0000 0.70860  0.85185  0.18410  Biso   1.000  C
  H279     1.0000 0.70170  0.86910  0.20800  Biso   1.000  H
  C321     1.0000 0.65580  0.82738  0.16054  Biso   1.000  C
  H280     1.0000 0.61390  0.82840  0.16880  Biso   1.000  H
  C322     1.0000 0.66481  0.80117  0.12448  Biso   1.000  C
  C323     1.0000 0.16588  0.64714  0.18602  Biso   1.000  C
  C324     1.0000 0.23849  0.63410  0.21028  Biso   1.000  C
  C325     1.0000 0.26250  0.62438  0.26580  Biso   1.000  C
  H281     1.0000 0.23550  0.62980  0.28860  Biso   1.000  H
  C326     1.0000 0.27960  0.62713  0.17690  Biso   1.000  C
  H282     1.0000 0.26440  0.63380  0.13910  Biso   1.000  H
  C327     1.0000 0.32570  0.60664  0.28920  Biso   1.000  C
  H283     1.0000 0.34030  0.59990  0.32690  Biso   1.000  H
  C328     1.0000 0.36640  0.59910  0.25730  Biso   1.000  C
  C329     1.0000 0.34370  0.61000  0.20070  Biso   1.000  C
  H284     1.0000 0.37230  0.60580  0.17880  Biso   1.000  H
  C330     1.0000 0.01750  0.70040  0.10949  Biso   1.000  C
  C331     1.0000 0.02580  0.73562  0.12477  Biso   1.000  C
  H285     1.0000 0.06790  0.74310  0.15140  Biso   1.000  H
  C332     1.0000 0.97300  0.75966  0.10150  Biso   1.000  C
  H286     1.0000 0.97930  0.78310  0.11280  Biso   1.000  H
  C333     1.0000 0.90210  0.71400  0.04460  Biso   1.000  C
  H287     1.0000 0.86050  0.70670  0.01710  Biso   1.000  H
  C334     1.0000 0.91040  0.74899  0.06120  Biso   1.000  C
  C335     1.0000 0.06997  0.67438  0.14147  Biso   1.000  C
  C336     1.0000 0.95530  0.68983  0.06855  Biso   1.000  C
  H288     1.0000 0.94930  0.66640  0.05710  Biso   1.000  H
  Cu33     1.0000 0.46124  0.87165  0.66817  Biso   1.000  Cu
  Cu34     1.0000 0.44743  0.02550  0.63263  Biso   1.000  Cu
  Cu35     1.0000 0.90703  0.74533  0.50316  Biso   1.000  Cu
  Cu36     1.0000 0.20492  0.78183  0.61899  Biso   1.000  Cu
  Cu37     1.0000 0.99356  0.67126  0.56754  Biso   1.000  Cu
  Cu38     1.0000 0.68271  0.79376  0.61235  Biso   1.000  Cu
  Cu39     1.0000 0.84778  0.66891  0.58740  Biso   1.000  Cu
  Cu40     1.0000 0.39143  0.90534  0.75379  Biso   1.000  Cu
  Cl5      1.0000 0.87485  0.68141  0.49214  Biso   1.000  Cl
  N121     1.0000 0.44992  0.92240  0.67223  Biso   1.000  N
  N122     1.0000 0.44664  0.98041  0.66215  Biso   1.000  N
  N123     1.0000 0.40855  0.93610  0.70171  Biso   1.000  N
  N124     1.0000 0.72111  0.79576  0.41605  Biso   1.000  N
  N125     1.0000 0.77642  0.74597  0.41098  Biso   1.000  N
  N126     1.0000 0.81760  0.76443  0.45779  Biso   1.000  N
  N127     1.0000 0.00500  0.74560  0.54745  Biso   1.000  N
  N128     1.0000 0.04067  0.71506  0.57177  Biso   1.000  N
  N129     1.0000 0.11837  0.75856  0.58903  Biso   1.000  N
  N130     1.0000 0.46677  0.12648  0.58873  Biso   1.000  N
  N131     1.0000 0.40547  0.12787  0.60284  Biso   1.000  N
  N132     1.0000 0.44018  0.07228  0.60729  Biso   1.000  N
  N133     1.0000 0.61393  0.86930  0.69748  Biso   1.000  N
  N134     1.0000 0.55214  0.85165  0.66920  Biso   1.000  N
  N135     1.0000 0.64066  0.82534  0.65064  Biso   1.000  N
  N136     1.0000 0.29415  0.80226  0.64950  Biso   1.000  N
  N137     1.0000 0.38600  0.83787  0.66457  Biso   1.000  N
  N138     1.0000 0.40666  0.80924  0.70015  Biso   1.000  N
  N139     1.0000 0.32300  0.62393  0.69460  Biso   1.000  N
  H289     1.0000 0.31620  0.60750  0.71580  Biso   1.000  H
  H290     1.0000 0.36190  0.62470  0.68710  Biso   1.000  H
  N140     1.0000 0.36830  0.66676  0.82310  Biso   1.000  N
  H291     1.0000 0.40360  0.65270  0.82880  Biso   1.000  H
  H292     1.0000 0.33710  0.66290  0.83910  Biso   1.000  H
  N141     1.0000 0.67400  0.91495  0.54560  Biso   1.000  N
  H293     1.0000 0.66560  0.89780  0.52190  Biso   1.000  H
  H294     1.0000 0.71320  0.92640  0.55370  Biso   1.000  H
  N142     1.0000 0.26110  0.05181  0.80940  Biso   1.000  N
  H295     1.0000 0.27900  0.07130  0.82540  Biso   1.000  H
  H296     1.0000 0.22170  0.04430  0.81200  Biso   1.000  H
  N143     1.0000 0.35520  0.72658  0.53850  Biso   1.000  N
  H297     1.0000 0.31590  0.73330  0.51410  Biso   1.000  H
  H298     1.0000 0.36080  0.70490  0.54910  Biso   1.000  H
  N144     1.0000 0.92370  0.90636  0.60160  Biso   1.000  N
  H299     1.0000 0.91800  0.92760  0.58890  Biso   1.000  H
  H300     1.0000 0.95330  0.90210  0.63470  Biso   1.000  H
  N145     1.0000 0.99090  0.91332  0.49050  Biso   1.000  N
  H301     1.0000 0.01190  0.93020  0.51270  Biso   1.000  H
  H302     1.0000 0.95940  0.91800  0.45850  Biso   1.000  H
  N146     1.0000 0.52190  0.72590  0.17464  Biso   1.000  N
  H303     1.0000 0.49690  0.74190  0.15260  Biso   1.000  H
  H304     1.0000 0.51710  0.70420  0.16440  Biso   1.000  H
  N147     1.0000 0.14830  0.92321  0.46200  Biso   1.000  N
  H305     1.0000 0.12830  0.91500  0.42850  Biso   1.000  H
  H306     1.0000 0.14320  0.94500  0.46910  Biso   1.000  H
  N148     1.0000 0.13470  0.05737  0.64510  Biso   1.000  N
  H307     1.0000 0.11090  0.03960  0.62720  Biso   1.000  H
  H308     1.0000 0.11810  0.07000  0.66630  Biso   1.000  H
  N149     1.0000 0.70300  0.03607  0.52040  Biso   1.000  N
  H309     1.0000 0.70190  0.01410  0.51190  Biso   1.000  H
  H310     1.0000 0.73750  0.04910  0.51900  Biso   1.000  H
  N150     1.0000 0.93180  0.91870  0.78130  Biso   1.000  N
  H311     1.0000 0.94580  0.92460  0.81630  Biso   1.000  H
  H312     1.0000 0.95760  0.92350  0.76080  Biso   1.000  H
  C337     1.0000 0.78362  0.79406  0.45935  Biso   1.000  C
  C338     1.0000 0.85730  0.81668  0.55438  Biso   1.000  C
  H313     1.0000 0.86320  0.79380  0.56860  Biso   1.000  H
  C339     1.0000 0.88480  0.87874  0.56840  Biso   1.000  C
  C340     1.0000 0.83720  0.88511  0.51540  Biso   1.000  C
  H314     1.0000 0.82800  0.90820  0.50250  Biso   1.000  H
  C341     1.0000 0.81325  0.82270  0.49932  Biso   1.000  C
  C342     1.0000 0.80280  0.85748  0.48088  Biso   1.000  C
  H315     1.0000 0.77210  0.86230  0.44470  Biso   1.000  H
  C343     1.0000 0.89260  0.84422  0.58834  Biso   1.000  C
  H316     1.0000 0.92200  0.83960  0.62500  Biso   1.000  H
  C344     1.0000 0.71936  0.76556  0.38654  Biso   1.000  C
  C345     1.0000 0.66520  0.75510  0.33339  Biso   1.000  C
  C346     1.0000 0.62440  0.78016  0.29590  Biso   1.000  C
  H317     1.0000 0.62850  0.80380  0.30610  Biso   1.000  H
  C347     1.0000 0.57720  0.77009  0.24300  Biso   1.000  C
  H318     1.0000 0.55050  0.78720  0.21850  Biso   1.000  H
  C348     1.0000 0.65720  0.72000  0.31590  Biso   1.000  C
  H319     1.0000 0.68370  0.70270  0.34000  Biso   1.000  H
  C349     1.0000 0.56990  0.73522  0.22680  Biso   1.000  C
  C350     1.0000 0.61040  0.71024  0.26320  Biso   1.000  C
  H320     1.0000 0.60660  0.68670  0.25240  Biso   1.000  H
  C351     1.0000 0.39076  0.09513  0.61283  Biso   1.000  C
  C352     1.0000 0.32710  0.08458  0.62492  Biso   1.000  C
  C353     1.0000 0.30020  0.10438  0.65970  Biso   1.000  C
  H321     1.0000 0.32450  0.12420  0.67800  Biso   1.000  H
  C354     1.0000 0.23720  0.09468  0.66730  Biso   1.000  C
  H322     1.0000 0.22000  0.10780  0.69130  Biso   1.000  H
  C355     1.0000 0.28940  0.05519  0.59860  Biso   1.000  C
  H323     1.0000 0.30710  0.04150  0.57560  Biso   1.000  H
  C356     1.0000 0.19950  0.06570  0.63970  Biso   1.000  C
  C357     1.0000 0.22680  0.04584  0.60580  Biso   1.000  C
  H324     1.0000 0.20260  0.02590  0.58770  Biso   1.000  H
  C358     1.0000 0.48564  0.09281  0.59095  Biso   1.000  C
  C359     1.0000 0.54250  0.04352  0.55730  Biso   1.000  C
  H325     1.0000 0.50580  0.02900  0.55890  Biso   1.000  H
  C360     1.0000 0.59410  0.02990  0.53900  Biso   1.000  C
  H326     1.0000 0.59180  0.00640  0.52810  Biso   1.000  H
  C361     1.0000 0.54330  0.07880  0.57379  Biso   1.000  C
  C362     1.0000 0.59740  0.09974  0.56880  Biso   1.000  C
  H327     1.0000 0.59820  0.12360  0.57750  Biso   1.000  H
  C363     1.0000 0.65000  0.08605  0.55140  Biso   1.000  C
  H328     1.0000 0.68650  0.10050  0.54930  Biso   1.000  H
  C364     1.0000 0.64920  0.05049  0.53660  Biso   1.000  C
  C365     1.0000 0.27490  0.85690  0.58989  Biso   1.000  C
  C366     1.0000 0.23940  0.84453  0.53624  Biso   1.000  C
  H329     1.0000 0.24390  0.82090  0.52810  Biso   1.000  H
  C367     1.0000 0.26870  0.89207  0.60000  Biso   1.000  C
  H330     1.0000 0.29390  0.90140  0.63530  Biso   1.000  H
  C368     1.0000 0.31857  0.83303  0.63459  Biso   1.000  C
  C369     1.0000 0.19720  0.86629  0.49410  Biso   1.000  C
  H331     1.0000 0.17440  0.85730  0.45810  Biso   1.000  H
  C370     1.0000 0.22540  0.91410  0.55860  Biso   1.000  C
  H332     1.0000 0.22070  0.93770  0.56680  Biso   1.000  H
  C371     1.0000 0.18900  0.90100  0.50510  Biso   1.000  C
  C372     1.0000 0.35158  0.75569  0.72119  Biso   1.000  C
  C373     1.0000 0.30070  0.74850  0.74606  Biso   1.000  C
  H333     1.0000 0.26270  0.76380  0.74050  Biso   1.000  H
  C374     1.0000 0.30570  0.71919  0.77855  Biso   1.000  C
  H334     1.0000 0.27090  0.71480  0.79470  Biso   1.000  H
  C375     1.0000 0.40682  0.73157  0.72926  Biso   1.000  C
  H335     1.0000 0.44090  0.73550  0.71220  Biso   1.000  H
  C376     1.0000 0.35066  0.78849  0.69007  Biso   1.000  C
  C377     1.0000 0.36160  0.69573  0.78799  Biso   1.000  C
  C378     1.0000 0.41160  0.70221  0.76190  Biso   1.000  C
  H336     1.0000 0.44870  0.68640  0.76670  Biso   1.000  H
  C379     1.0000 0.40723  0.97067  0.69469  Biso   1.000  C
  C380     1.0000 0.36730  0.99352  0.72023  Biso   1.000  C
  C381     1.0000 0.39400  0.02543  0.74581  Biso   1.000  C
  H337     1.0000 0.43630  0.03400  0.74310  Biso   1.000  H
  C382     1.0000 0.29590  0.03244  0.77930  Biso   1.000  C
  C383     1.0000 0.30300  0.98212  0.72350  Biso   1.000  C
  H338     1.0000 0.28350  0.96110  0.70610  Biso   1.000  H
  C384     1.0000 0.35900  0.04466  0.77530  Biso   1.000  C
  H339     1.0000 0.37790  0.06580  0.79230  Biso   1.000  H
  C385     1.0000 0.26740  0.00126  0.75220  Biso   1.000  C
  H340     1.0000 0.22400  0.99330  0.75340  Biso   1.000  H
  C386     1.0000 0.58460  0.96215  0.63173  Biso   1.000  C
  H341     1.0000 0.59260  0.98130  0.65620  Biso   1.000  H
  C387     1.0000 0.56180  0.90582  0.55786  Biso   1.000  C
  H342     1.0000 0.55370  0.88670  0.53330  Biso   1.000  H
  C388     1.0000 0.52210  0.94373  0.61868  Biso   1.000  C
  C389     1.0000 0.47253  0.94938  0.64956  Biso   1.000  C
  C390     1.0000 0.51110  0.91548  0.58084  Biso   1.000  C
  H343     1.0000 0.46870  0.90300  0.57110  Biso   1.000  H
  C391     1.0000 0.62450  0.92409  0.57080  Biso   1.000  C
  C392     1.0000 0.63600  0.95231  0.60850  Biso   1.000  C
  H344     1.0000 0.67850  0.96460  0.61830  Biso   1.000  H
  C393     1.0000 0.03814  0.80775  0.54062  Biso   1.000  C
  C394     1.0000 0.98780  0.81645  0.48882  Biso   1.000  C
  H345     1.0000 0.96360  0.79850  0.46490  Biso   1.000  H
  C395     1.0000 0.07330  0.83559  0.57470  Biso   1.000  C
  H346     1.0000 0.10760  0.83080  0.60950  Biso   1.000  H
  C396     1.0000 0.05820  0.87022  0.55790  Biso   1.000  C
  H347     1.0000 0.08240  0.88830  0.58150  Biso   1.000  H
  C397     1.0000 0.05308  0.77106  0.55829  Biso   1.000  C
  C398     1.0000 0.97290  0.85101  0.47207  Biso   1.000  C
  H348     1.0000 0.93900  0.85600  0.43720  Biso   1.000  H
  C399     1.0000 0.00780  0.87846  0.50660  Biso   1.000  C
  C400     1.0000 0.10804  0.72386  0.59634  Biso   1.000  C
  C401     1.0000 0.22880  0.69998  0.61425  Biso   1.000  C
  H349     1.0000 0.23650  0.71760  0.59110  Biso   1.000  H
  C402     1.0000 0.28110  0.67548  0.63790  Biso   1.000  C
  H350     1.0000 0.32360  0.67670  0.63040  Biso   1.000  H
  C403     1.0000 0.27140  0.64903  0.67250  Biso   1.000  C
  C404     1.0000 0.20860  0.64815  0.68410  Biso   1.000  C
  H351     1.0000 0.20170  0.63090  0.70800  Biso   1.000  H
  C405     1.0000 0.15580  0.67262  0.66054  Biso   1.000  C
  H352     1.0000 0.11390  0.67160  0.66880  Biso   1.000  H
  C406     1.0000 0.16481  0.69883  0.62448  Biso   1.000  C
  C407     1.0000 0.66588  0.85286  0.68602  Biso   1.000  C
  C408     1.0000 0.73849  0.86590  0.71028  Biso   1.000  C
  C409     1.0000 0.76250  0.87562  0.76580  Biso   1.000  C
  H353     1.0000 0.73550  0.87020  0.78860  Biso   1.000  H
  C410     1.0000 0.77960  0.87287  0.67690  Biso   1.000  C
  H354     1.0000 0.76440  0.86620  0.63910  Biso   1.000  H
  C411     1.0000 0.82570  0.89336  0.78920  Biso   1.000  C
  H355     1.0000 0.84030  0.90010  0.82690  Biso   1.000  H
  C412     1.0000 0.86640  0.90090  0.75730  Biso   1.000  C
  C413     1.0000 0.84370  0.89000  0.70070  Biso   1.000  C
  H356     1.0000 0.87230  0.89420  0.67880  Biso   1.000  H
  C414     1.0000 0.51750  0.79960  0.60949  Biso   1.000  C
  C415     1.0000 0.52580  0.76438  0.62477  Biso   1.000  C
  H357     1.0000 0.56790  0.75690  0.65140  Biso   1.000  H
  C416     1.0000 0.47300  0.74034  0.60150  Biso   1.000  C
  H358     1.0000 0.47930  0.71690  0.61280  Biso   1.000  H
  C417     1.0000 0.40210  0.78600  0.54460  Biso   1.000  C
  H359     1.0000 0.36050  0.79330  0.51710  Biso   1.000  H
  C418     1.0000 0.41040  0.75101  0.56120  Biso   1.000  C
  C419     1.0000 0.56997  0.82562  0.64147  Biso   1.000  C
  C420     1.0000 0.45530  0.81017  0.56855  Biso   1.000  C
  H360     1.0000 0.44930  0.83360  0.55710  Biso   1.000  H
  Cu41     1.0000 0.96124  0.37165  0.66817  Biso   1.000  Cu
  Cu42     1.0000 0.94743  0.52550  0.63263  Biso   1.000  Cu
  Cu43     1.0000 0.40703  0.24533  0.50316  Biso   1.000  Cu
  Cu44     1.0000 0.70492  0.28183  0.61899  Biso   1.000  Cu
  Cu45     1.0000 0.49356  0.17126  0.56754  Biso   1.000  Cu
  Cu46     1.0000 0.18271  0.29376  0.61235  Biso   1.000  Cu
  Cu47     1.0000 0.34778  0.16891  0.58740  Biso   1.000  Cu
  Cu48     1.0000 0.89143  0.40534  0.75379  Biso   1.000  Cu
  Cl6      1.0000 0.37485  0.18141  0.49214  Biso   1.000  Cl
  N151     1.0000 0.94992  0.42240  0.67223  Biso   1.000  N
  N152     1.0000 0.94664  0.48041  0.66215  Biso   1.000  N
  N153     1.0000 0.90855  0.43610  0.70171  Biso   1.000  N
  N154     1.0000 0.22111  0.29576  0.41605  Biso   1.000  N
  N155     1.0000 0.27642  0.24597  0.41098  Biso   1.000  N
  N156     1.0000 0.31760  0.26443  0.45779  Biso   1.000  N
  N157     1.0000 0.50500  0.24560  0.54745  Biso   1.000  N
  N158     1.0000 0.54067  0.21506  0.57177  Biso   1.000  N
  N159     1.0000 0.61837  0.25856  0.58903  Biso   1.000  N
  N160     1.0000 0.96677  0.62648  0.58873  Biso   1.000  N
  N161     1.0000 0.90547  0.62787  0.60284  Biso   1.000  N
  N162     1.0000 0.94018  0.57228  0.60729  Biso   1.000  N
  N163     1.0000 0.11393  0.36930  0.69748  Biso   1.000  N
  N164     1.0000 0.05214  0.35165  0.66920  Biso   1.000  N
  N165     1.0000 0.14066  0.32534  0.65064  Biso   1.000  N
  N166     1.0000 0.79415  0.30226  0.64950  Biso   1.000  N
  N167     1.0000 0.88600  0.33787  0.66457  Biso   1.000  N
  N168     1.0000 0.90666  0.30924  0.70015  Biso   1.000  N
  N169     1.0000 0.82300  0.12393  0.69460  Biso   1.000  N
  H361     1.0000 0.81620  0.10750  0.71580  Biso   1.000  H
  H362     1.0000 0.86190  0.12470  0.68710  Biso   1.000  H
  N170     1.0000 0.86830  0.16676  0.82310  Biso   1.000  N
  H363     1.0000 0.90360  0.15270  0.82880  Biso   1.000  H
  H364     1.0000 0.83710  0.16290  0.83910  Biso   1.000  H
  N171     1.0000 0.17400  0.41495  0.54560  Biso   1.000  N
  H365     1.0000 0.16560  0.39780  0.52190  Biso   1.000  H
  H366     1.0000 0.21320  0.42640  0.55370  Biso   1.000  H
  N172     1.0000 0.76110  0.55181  0.80940  Biso   1.000  N
  H367     1.0000 0.77900  0.57130  0.82540  Biso   1.000  H
  H368     1.0000 0.72170  0.54430  0.81200  Biso   1.000  H
  N173     1.0000 0.85520  0.22658  0.53850  Biso   1.000  N
  H369     1.0000 0.81590  0.23330  0.51410  Biso   1.000  H
  H370     1.0000 0.86080  0.20490  0.54910  Biso   1.000  H
  N174     1.0000 0.42370  0.40636  0.60160  Biso   1.000  N
  H371     1.0000 0.41800  0.42760  0.58890  Biso   1.000  H
  H372     1.0000 0.45330  0.40210  0.63470  Biso   1.000  H
  N175     1.0000 0.49090  0.41332  0.49050  Biso   1.000  N
  H373     1.0000 0.51190  0.43020  0.51270  Biso   1.000  H
  H374     1.0000 0.45940  0.41800  0.45850  Biso   1.000  H
  N176     1.0000 0.02190  0.22590  0.17464  Biso   1.000  N
  H375     1.0000 0.99690  0.24190  0.15260  Biso   1.000  H
  H376     1.0000 0.01710  0.20420  0.16440  Biso   1.000  H
  N177     1.0000 0.64830  0.42321  0.46200  Biso   1.000  N
  H377     1.0000 0.62830  0.41500  0.42850  Biso   1.000  H
  H378     1.0000 0.64320  0.44500  0.46910  Biso   1.000  H
  N178     1.0000 0.63470  0.55737  0.64510  Biso   1.000  N
  H379     1.0000 0.61090  0.53960  0.62720  Biso   1.000  H
  H380     1.0000 0.61810  0.57000  0.66630  Biso   1.000  H
  N179     1.0000 0.20300  0.53607  0.52040  Biso   1.000  N
  H381     1.0000 0.20190  0.51410  0.51190  Biso   1.000  H
  H382     1.0000 0.23750  0.54910  0.51900  Biso   1.000  H
  N180     1.0000 0.43180  0.41870  0.78130  Biso   1.000  N
  H383     1.0000 0.44580  0.42460  0.81630  Biso   1.000  H
  H384     1.0000 0.45760  0.42350  0.76080  Biso   1.000  H
  C421     1.0000 0.28362  0.29406  0.45935  Biso   1.000  C
  C422     1.0000 0.35730  0.31668  0.55438  Biso   1.000  C
  H385     1.0000 0.36320  0.29380  0.56860  Biso   1.000  H
  C423     1.0000 0.38480  0.37874  0.56840  Biso   1.000  C
  C424     1.0000 0.33720  0.38511  0.51540  Biso   1.000  C
  H386     1.0000 0.32800  0.40820  0.50250  Biso   1.000  H
  C425     1.0000 0.31325  0.32270  0.49932  Biso   1.000  C
  C426     1.0000 0.30280  0.35748  0.48088  Biso   1.000  C
  H387     1.0000 0.27210  0.36230  0.44470  Biso   1.000  H
  C427     1.0000 0.39260  0.34422  0.58834  Biso   1.000  C
  H388     1.0000 0.42200  0.33960  0.62500  Biso   1.000  H
  C428     1.0000 0.21936  0.26556  0.38654  Biso   1.000  C
  C429     1.0000 0.16520  0.25510  0.33339  Biso   1.000  C
  C430     1.0000 0.12440  0.28016  0.29590  Biso   1.000  C
  H389     1.0000 0.12850  0.30380  0.30610  Biso   1.000  H
  C431     1.0000 0.07720  0.27009  0.24300  Biso   1.000  C
  H390     1.0000 0.05050  0.28720  0.21850  Biso   1.000  H
  C432     1.0000 0.15720  0.22000  0.31590  Biso   1.000  C
  H391     1.0000 0.18370  0.20270  0.34000  Biso   1.000  H
  C433     1.0000 0.06990  0.23522  0.22680  Biso   1.000  C
  C434     1.0000 0.11040  0.21024  0.26320  Biso   1.000  C
  H392     1.0000 0.10660  0.18670  0.25240  Biso   1.000  H
  C435     1.0000 0.89076  0.59513  0.61283  Biso   1.000  C
  C436     1.0000 0.82710  0.58458  0.62492  Biso   1.000  C
  C437     1.0000 0.80020  0.60438  0.65970  Biso   1.000  C
  H393     1.0000 0.82450  0.62420  0.67800  Biso   1.000  H
  C438     1.0000 0.73720  0.59468  0.66730  Biso   1.000  C
  H394     1.0000 0.72000  0.60780  0.69130  Biso   1.000  H
  C439     1.0000 0.78940  0.55519  0.59860  Biso   1.000  C
  H395     1.0000 0.80710  0.54150  0.57560  Biso   1.000  H
  C440     1.0000 0.69950  0.56570  0.63970  Biso   1.000  C
  C441     1.0000 0.72680  0.54584  0.60580  Biso   1.000  C
  H396     1.0000 0.70260  0.52590  0.58770  Biso   1.000  H
  C442     1.0000 0.98564  0.59281  0.59095  Biso   1.000  C
  C443     1.0000 0.04250  0.54352  0.55730  Biso   1.000  C
  H397     1.0000 0.00580  0.52900  0.55890  Biso   1.000  H
  C444     1.0000 0.09410  0.52990  0.53900  Biso   1.000  C
  H398     1.0000 0.09180  0.50640  0.52810  Biso   1.000  H
  C445     1.0000 0.04330  0.57880  0.57379  Biso   1.000  C
  C446     1.0000 0.09740  0.59974  0.56880  Biso   1.000  C
  H399     1.0000 0.09820  0.62360  0.57750  Biso   1.000  H
  C447     1.0000 0.15000  0.58605  0.55140  Biso   1.000  C
  H400     1.0000 0.18650  0.60050  0.54930  Biso   1.000  H
  C448     1.0000 0.14920  0.55049  0.53660  Biso   1.000  C
  C449     1.0000 0.77490  0.35690  0.58989  Biso   1.000  C
  C450     1.0000 0.73940  0.34453  0.53624  Biso   1.000  C
  H401     1.0000 0.74390  0.32090  0.52810  Biso   1.000  H
  C451     1.0000 0.76870  0.39207  0.60000  Biso   1.000  C
  H402     1.0000 0.79390  0.40140  0.63530  Biso   1.000  H
  C452     1.0000 0.81857  0.33303  0.63459  Biso   1.000  C
  C453     1.0000 0.69720  0.36629  0.49410  Biso   1.000  C
  H403     1.0000 0.67440  0.35730  0.45810  Biso   1.000  H
  C454     1.0000 0.72540  0.41410  0.55860  Biso   1.000  C
  H404     1.0000 0.72070  0.43770  0.56680  Biso   1.000  H
  C455     1.0000 0.68900  0.40100  0.50510  Biso   1.000  C
  C456     1.0000 0.85158  0.25569  0.72119  Biso   1.000  C
  C457     1.0000 0.80070  0.24850  0.74606  Biso   1.000  C
  H405     1.0000 0.76270  0.26380  0.74050  Biso   1.000  H
  C458     1.0000 0.80570  0.21919  0.77855  Biso   1.000  C
  H406     1.0000 0.77090  0.21480  0.79470  Biso   1.000  H
  C459     1.0000 0.90682  0.23157  0.72926  Biso   1.000  C
  H407     1.0000 0.94090  0.23550  0.71220  Biso   1.000  H
  C460     1.0000 0.85066  0.28849  0.69007  Biso   1.000  C
  C461     1.0000 0.86160  0.19573  0.78799  Biso   1.000  C
  C462     1.0000 0.91160  0.20221  0.76190  Biso   1.000  C
  H408     1.0000 0.94870  0.18640  0.76670  Biso   1.000  H
  C463     1.0000 0.90723  0.47067  0.69469  Biso   1.000  C
  C464     1.0000 0.86730  0.49352  0.72023  Biso   1.000  C
  C465     1.0000 0.89400  0.52543  0.74581  Biso   1.000  C
  H409     1.0000 0.93630  0.53400  0.74310  Biso   1.000  H
  C466     1.0000 0.79590  0.53244  0.77930  Biso   1.000  C
  C467     1.0000 0.80300  0.48212  0.72350  Biso   1.000  C
  H410     1.0000 0.78350  0.46110  0.70610  Biso   1.000  H
  C468     1.0000 0.85900  0.54466  0.77530  Biso   1.000  C
  H411     1.0000 0.87790  0.56580  0.79230  Biso   1.000  H
  C469     1.0000 0.76740  0.50126  0.75220  Biso   1.000  C
  H412     1.0000 0.72400  0.49330  0.75340  Biso   1.000  H
  C470     1.0000 0.08460  0.46215  0.63173  Biso   1.000  C
  H413     1.0000 0.09260  0.48130  0.65620  Biso   1.000  H
  C471     1.0000 0.06180  0.40582  0.55786  Biso   1.000  C
  H414     1.0000 0.05370  0.38670  0.53330  Biso   1.000  H
  C472     1.0000 0.02210  0.44373  0.61868  Biso   1.000  C
  C473     1.0000 0.97253  0.44938  0.64956  Biso   1.000  C
  C474     1.0000 0.01110  0.41548  0.58084  Biso   1.000  C
  H415     1.0000 0.96870  0.40300  0.57110  Biso   1.000  H
  C475     1.0000 0.12450  0.42409  0.57080  Biso   1.000  C
  C476     1.0000 0.13600  0.45231  0.60850  Biso   1.000  C
  H416     1.0000 0.17850  0.46460  0.61830  Biso   1.000  H
  C477     1.0000 0.53814  0.30775  0.54062  Biso   1.000  C
  C478     1.0000 0.48780  0.31645  0.48882  Biso   1.000  C
  H417     1.0000 0.46360  0.29850  0.46490  Biso   1.000  H
  C479     1.0000 0.57330  0.33559  0.57470  Biso   1.000  C
  H418     1.0000 0.60760  0.33080  0.60950  Biso   1.000  H
  C480     1.0000 0.55820  0.37022  0.55790  Biso   1.000  C
  H419     1.0000 0.58240  0.38830  0.58150  Biso   1.000  H
  C481     1.0000 0.55308  0.27106  0.55829  Biso   1.000  C
  C482     1.0000 0.47290  0.35101  0.47207  Biso   1.000  C
  H420     1.0000 0.43900  0.35600  0.43720  Biso   1.000  H
  C483     1.0000 0.50780  0.37846  0.50660  Biso   1.000  C
  C484     1.0000 0.60804  0.22386  0.59634  Biso   1.000  C
  C485     1.0000 0.72880  0.19998  0.61425  Biso   1.000  C
  H421     1.0000 0.73650  0.21760  0.59110  Biso   1.000  H
  C486     1.0000 0.78110  0.17548  0.63790  Biso   1.000  C
  H422     1.0000 0.82360  0.17670  0.63040  Biso   1.000  H
  C487     1.0000 0.77140  0.14903  0.67250  Biso   1.000  C
  C488     1.0000 0.70860  0.14815  0.68410  Biso   1.000  C
  H423     1.0000 0.70170  0.13090  0.70800  Biso   1.000  H
  C489     1.0000 0.65580  0.17262  0.66054  Biso   1.000  C
  H424     1.0000 0.61390  0.17160  0.66880  Biso   1.000  H
  C490     1.0000 0.66481  0.19883  0.62448  Biso   1.000  C
  C491     1.0000 0.16588  0.35286  0.68602  Biso   1.000  C
  C492     1.0000 0.23849  0.36590  0.71028  Biso   1.000  C
  C493     1.0000 0.26250  0.37562  0.76580  Biso   1.000  C
  H425     1.0000 0.23550  0.37020  0.78860  Biso   1.000  H
  C494     1.0000 0.27960  0.37287  0.67690  Biso   1.000  C
  H426     1.0000 0.26440  0.36620  0.63910  Biso   1.000  H
  C495     1.0000 0.32570  0.39336  0.78920  Biso   1.000  C
  H427     1.0000 0.34030  0.40010  0.82690  Biso   1.000  H
  C496     1.0000 0.36640  0.40090  0.75730  Biso   1.000  C
  C497     1.0000 0.34370  0.39000  0.70070  Biso   1.000  C
  H428     1.0000 0.37230  0.39420  0.67880  Biso   1.000  H
  C498     1.0000 0.01750  0.29960  0.60949  Biso   1.000  C
  C499     1.0000 0.02580  0.26438  0.62477  Biso   1.000  C
  H429     1.0000 0.06790  0.25690  0.65140  Biso   1.000  H
  C500     1.0000 0.97300  0.24034  0.60150  Biso   1.000  C
  H430     1.0000 0.97930  0.21690  0.61280  Biso   1.000  H
  C501     1.0000 0.90210  0.28600  0.54460  Biso   1.000  C
  H431     1.0000 0.86050  0.29330  0.51710  Biso   1.000  H
  C502     1.0000 0.91040  0.25101  0.56120  Biso   1.000  C
  C503     1.0000 0.06997  0.32562  0.64147  Biso   1.000  C
  C504     1.0000 0.95530  0.31017  0.56855  Biso   1.000  C
  H432     1.0000 0.94930  0.33360  0.55710  Biso   1.000  H
  Cu49     1.0000 0.53876  0.87165  0.83183  Biso   1.000  Cu
  Cu50     1.0000 0.55257  0.02550  0.86737  Biso   1.000  Cu
  Cu51     1.0000 0.09297  0.74533  0.99684  Biso   1.000  Cu
  Cu52     1.0000 0.79508  0.78183  0.88101  Biso   1.000  Cu
  Cu53     1.0000 0.00644  0.67126  0.93246  Biso   1.000  Cu
  Cu54     1.0000 0.31729  0.79376  0.88765  Biso   1.000  Cu
  Cu55     1.0000 0.15222  0.66891  0.91260  Biso   1.000  Cu
  Cu56     1.0000 0.60857  0.90534  0.74621  Biso   1.000  Cu
  Cl7      1.0000 0.12515  0.68141  0.00786  Biso   1.000  Cl
  N181     1.0000 0.55008  0.92240  0.82777  Biso   1.000  N
  N182     1.0000 0.55336  0.98041  0.83785  Biso   1.000  N
  N183     1.0000 0.59145  0.93610  0.79829  Biso   1.000  N
  N184     1.0000 0.27889  0.79576  0.08395  Biso   1.000  N
  N185     1.0000 0.22358  0.74597  0.08902  Biso   1.000  N
  N186     1.0000 0.18240  0.76443  0.04221  Biso   1.000  N
  N187     1.0000 0.99500  0.74560  0.95255  Biso   1.000  N
  N188     1.0000 0.95933  0.71506  0.92823  Biso   1.000  N
  N189     1.0000 0.88163  0.75856  0.91097  Biso   1.000  N
  N190     1.0000 0.53323  0.12648  0.91127  Biso   1.000  N
  N191     1.0000 0.59453  0.12787  0.89716  Biso   1.000  N
  N192     1.0000 0.55982  0.07228  0.89271  Biso   1.000  N
  N193     1.0000 0.38607  0.86930  0.80252  Biso   1.000  N
  N194     1.0000 0.44786  0.85165  0.83080  Biso   1.000  N
  N195     1.0000 0.35934  0.82534  0.84936  Biso   1.000  N
  N196     1.0000 0.70585  0.80226  0.85050  Biso   1.000  N
  N197     1.0000 0.61400  0.83787  0.83543  Biso   1.000  N
  N198     1.0000 0.59334  0.80924  0.79985  Biso   1.000  N
  N199     1.0000 0.67700  0.62393  0.80540  Biso   1.000  N
  H433     1.0000 0.68380  0.60750  0.78420  Biso   1.000  H
  H434     1.0000 0.63810  0.62470  0.81290  Biso   1.000  H
  N200     1.0000 0.63170  0.66676  0.67690  Biso   1.000  N
  H435     1.0000 0.59640  0.65270  0.67120  Biso   1.000  H
  H436     1.0000 0.66290  0.66290  0.66090  Biso   1.000  H
  N201     1.0000 0.32600  0.91495  0.95440  Biso   1.000  N
  H437     1.0000 0.33440  0.89780  0.97810  Biso   1.000  H
  H438     1.0000 0.28680  0.92640  0.94630  Biso   1.000  H
  N202     1.0000 0.73890  0.05181  0.69060  Biso   1.000  N
  H439     1.0000 0.72100  0.07130  0.67460  Biso   1.000  H
  H440     1.0000 0.77830  0.04430  0.68800  Biso   1.000  H
  N203     1.0000 0.64480  0.72658  0.96150  Biso   1.000  N
  H441     1.0000 0.68410  0.73330  0.98590  Biso   1.000  H
  H442     1.0000 0.63920  0.70490  0.95090  Biso   1.000  H
  N204     1.0000 0.07630  0.90636  0.89840  Biso   1.000  N
  H443     1.0000 0.08200  0.92760  0.91110  Biso   1.000  H
  H444     1.0000 0.04670  0.90210  0.86530  Biso   1.000  H
  N205     1.0000 0.00910  0.91332  0.00950  Biso   1.000  N
  H445     1.0000 0.98810  0.93020  0.98730  Biso   1.000  H
  H446     1.0000 0.04060  0.91800  0.04150  Biso   1.000  H
  N206     1.0000 0.47810  0.72590  0.32536  Biso   1.000  N
  H447     1.0000 0.50310  0.74190  0.34740  Biso   1.000  H
  H448     1.0000 0.48290  0.70420  0.33560  Biso   1.000  H
  N207     1.0000 0.85170  0.92321  0.03800  Biso   1.000  N
  H449     1.0000 0.87170  0.91500  0.07150  Biso   1.000  H
  H450     1.0000 0.85680  0.94500  0.03090  Biso   1.000  H
  N208     1.0000 0.86530  0.05737  0.85490  Biso   1.000  N
  H451     1.0000 0.88910  0.03960  0.87280  Biso   1.000  H
  H452     1.0000 0.88190  0.07000  0.83370  Biso   1.000  H
  N209     1.0000 0.29700  0.03607  0.97960  Biso   1.000  N
  H453     1.0000 0.29810  0.01410  0.98810  Biso   1.000  H
  H454     1.0000 0.26250  0.04910  0.98100  Biso   1.000  H
  N210     1.0000 0.06820  0.91870  0.71870  Biso   1.000  N
  H455     1.0000 0.05420  0.92460  0.68370  Biso   1.000  H
  H456     1.0000 0.04240  0.92350  0.73920  Biso   1.000  H
  C505     1.0000 0.21638  0.79406  0.04065  Biso   1.000  C
  C506     1.0000 0.14270  0.81668  0.94562  Biso   1.000  C
  H457     1.0000 0.13680  0.79380  0.93140  Biso   1.000  H
  C507     1.0000 0.11520  0.87874  0.93160  Biso   1.000  C
  C508     1.0000 0.16280  0.88511  0.98460  Biso   1.000  C
  H458     1.0000 0.17200  0.90820  0.99750  Biso   1.000  H
  C509     1.0000 0.18675  0.82270  0.00068  Biso   1.000  C
  C510     1.0000 0.19720  0.85748  0.01912  Biso   1.000  C
  H459     1.0000 0.22790  0.86230  0.05530  Biso   1.000  H
  C511     1.0000 0.10740  0.84422  0.91166  Biso   1.000  C
  H460     1.0000 0.07800  0.83960  0.87500  Biso   1.000  H
  C512     1.0000 0.28064  0.76556  0.11346  Biso   1.000  C
  C513     1.0000 0.33480  0.75510  0.16661  Biso   1.000  C
  C514     1.0000 0.37560  0.78016  0.20410  Biso   1.000  C
  H461     1.0000 0.37150  0.80380  0.19390  Biso   1.000  H
  C515     1.0000 0.42280  0.77009  0.25700  Biso   1.000  C
  H462     1.0000 0.44950  0.78720  0.28150  Biso   1.000  H
  C516     1.0000 0.34280  0.72000  0.18410  Biso   1.000  C
  H463     1.0000 0.31630  0.70270  0.16000  Biso   1.000  H
  C517     1.0000 0.43010  0.73522  0.27320  Biso   1.000  C
  C518     1.0000 0.38960  0.71024  0.23680  Biso   1.000  C
  H464     1.0000 0.39340  0.68670  0.24760  Biso   1.000  H
  C519     1.0000 0.60924  0.09513  0.88717  Biso   1.000  C
  C520     1.0000 0.67290  0.08458  0.87508  Biso   1.000  C
  C521     1.0000 0.69980  0.10438  0.84030  Biso   1.000  C
  H465     1.0000 0.67550  0.12420  0.82200  Biso   1.000  H
  C522     1.0000 0.76280  0.09468  0.83270  Biso   1.000  C
  H466     1.0000 0.78000  0.10780  0.80870  Biso   1.000  H
  C523     1.0000 0.71060  0.05519  0.90140  Biso   1.000  C
  H467     1.0000 0.69290  0.04150  0.92440  Biso   1.000  H
  C524     1.0000 0.80050  0.06570  0.86030  Biso   1.000  C
  C525     1.0000 0.77320  0.04584  0.89420  Biso   1.000  C
  H468     1.0000 0.79740  0.02590  0.91230  Biso   1.000  H
  C526     1.0000 0.51436  0.09281  0.90905  Biso   1.000  C
  C527     1.0000 0.45750  0.04352  0.94270  Biso   1.000  C
  H469     1.0000 0.49420  0.02900  0.94110  Biso   1.000  H
  C528     1.0000 0.40590  0.02990  0.96100  Biso   1.000  C
  H470     1.0000 0.40820  0.00640  0.97190  Biso   1.000  H
  C529     1.0000 0.45670  0.07880  0.92621  Biso   1.000  C
  C530     1.0000 0.40260  0.09974  0.93120  Biso   1.000  C
  H471     1.0000 0.40180  0.12360  0.92250  Biso   1.000  H
  C531     1.0000 0.35000  0.08605  0.94860  Biso   1.000  C
  H472     1.0000 0.31350  0.10050  0.95070  Biso   1.000  H
  C532     1.0000 0.35080  0.05049  0.96340  Biso   1.000  C
  C533     1.0000 0.72510  0.85690  0.91011  Biso   1.000  C
  C534     1.0000 0.76060  0.84453  0.96376  Biso   1.000  C
  H473     1.0000 0.75610  0.82090  0.97190  Biso   1.000  H
  C535     1.0000 0.73130  0.89207  0.90000  Biso   1.000  C
  H474     1.0000 0.70610  0.90140  0.86470  Biso   1.000  H
  C536     1.0000 0.68143  0.83303  0.86541  Biso   1.000  C
  C537     1.0000 0.80280  0.86629  0.00590  Biso   1.000  C
  H475     1.0000 0.82560  0.85730  0.04190  Biso   1.000  H
  C538     1.0000 0.77460  0.91410  0.94140  Biso   1.000  C
  H476     1.0000 0.77930  0.93770  0.93320  Biso   1.000  H
  C539     1.0000 0.81100  0.90100  0.99490  Biso   1.000  C
  C540     1.0000 0.64842  0.75569  0.77881  Biso   1.000  C
  C541     1.0000 0.69930  0.74850  0.75394  Biso   1.000  C
  H477     1.0000 0.73730  0.76380  0.75950  Biso   1.000  H
  C542     1.0000 0.69430  0.71919  0.72145  Biso   1.000  C
  H478     1.0000 0.72910  0.71480  0.70530  Biso   1.000  H
  C543     1.0000 0.59318  0.73157  0.77074  Biso   1.000  C
  H479     1.0000 0.55910  0.73550  0.78780  Biso   1.000  H
  C544     1.0000 0.64934  0.78849  0.80993  Biso   1.000  C
  C545     1.0000 0.63840  0.69573  0.71201  Biso   1.000  C
  C546     1.0000 0.58840  0.70221  0.73810  Biso   1.000  C
  H480     1.0000 0.55130  0.68640  0.73330  Biso   1.000  H
  C547     1.0000 0.59277  0.97067  0.80531  Biso   1.000  C
  C548     1.0000 0.63270  0.99352  0.77977  Biso   1.000  C
  C549     1.0000 0.60600  0.02543  0.75419  Biso   1.000  C
  H481     1.0000 0.56370  0.03400  0.75690  Biso   1.000  H
  C550     1.0000 0.70410  0.03244  0.72070  Biso   1.000  C
  C551     1.0000 0.69700  0.98212  0.77650  Biso   1.000  C
  H482     1.0000 0.71650  0.96110  0.79390  Biso   1.000  H
  C552     1.0000 0.64100  0.04466  0.72470  Biso   1.000  C
  H483     1.0000 0.62210  0.06580  0.70770  Biso   1.000  H
  C553     1.0000 0.73260  0.00126  0.74780  Biso   1.000  C
  H484     1.0000 0.77600  0.99330  0.74660  Biso   1.000  H
  C554     1.0000 0.41540  0.96215  0.86827  Biso   1.000  C
  H485     1.0000 0.40740  0.98130  0.84380  Biso   1.000  H
  C555     1.0000 0.43820  0.90582  0.94214  Biso   1.000  C
  H486     1.0000 0.44630  0.88670  0.96670  Biso   1.000  H
  C556     1.0000 0.47790  0.94373  0.88132  Biso   1.000  C
  C557     1.0000 0.52747  0.94938  0.85044  Biso   1.000  C
  C558     1.0000 0.48890  0.91548  0.91916  Biso   1.000  C
  H487     1.0000 0.53130  0.90300  0.92890  Biso   1.000  H
  C559     1.0000 0.37550  0.92409  0.92920  Biso   1.000  C
  C560     1.0000 0.36400  0.95231  0.89150  Biso   1.000  C
  H488     1.0000 0.32150  0.96460  0.88170  Biso   1.000  H
  C561     1.0000 0.96186  0.80775  0.95938  Biso   1.000  C
  C562     1.0000 0.01220  0.81645  0.01118  Biso   1.000  C
  H489     1.0000 0.03640  0.79850  0.03510  Biso   1.000  H
  C563     1.0000 0.92670  0.83559  0.92530  Biso   1.000  C
  H490     1.0000 0.89240  0.83080  0.89050  Biso   1.000  H
  C564     1.0000 0.94180  0.87022  0.94210  Biso   1.000  C
  H491     1.0000 0.91760  0.88830  0.91850  Biso   1.000  H
  C565     1.0000 0.94692  0.77106  0.94171  Biso   1.000  C
  C566     1.0000 0.02710  0.85101  0.02793  Biso   1.000  C
  H492     1.0000 0.06100  0.85600  0.06280  Biso   1.000  H
  C567     1.0000 0.99220  0.87846  0.99340  Biso   1.000  C
  C568     1.0000 0.89196  0.72386  0.90366  Biso   1.000  C
  C569     1.0000 0.77120  0.69998  0.88575  Biso   1.000  C
  H493     1.0000 0.76350  0.71760  0.90890  Biso   1.000  H
  C570     1.0000 0.71890  0.67548  0.86210  Biso   1.000  C
  H494     1.0000 0.67640  0.67670  0.86960  Biso   1.000  H
  C571     1.0000 0.72860  0.64903  0.82750  Biso   1.000  C
  C572     1.0000 0.79140  0.64815  0.81590  Biso   1.000  C
  H495     1.0000 0.79830  0.63090  0.79200  Biso   1.000  H
  C573     1.0000 0.84420  0.67262  0.83946  Biso   1.000  C
  H496     1.0000 0.88610  0.67160  0.83120  Biso   1.000  H
  C574     1.0000 0.83519  0.69883  0.87552  Biso   1.000  C
  C575     1.0000 0.33412  0.85286  0.81398  Biso   1.000  C
  C576     1.0000 0.26151  0.86590  0.78972  Biso   1.000  C
  C577     1.0000 0.23750  0.87562  0.73420  Biso   1.000  C
  H497     1.0000 0.26450  0.87020  0.71140  Biso   1.000  H
  C578     1.0000 0.22040  0.87287  0.82310  Biso   1.000  C
  H498     1.0000 0.23560  0.86620  0.86090  Biso   1.000  H
  C579     1.0000 0.17430  0.89336  0.71080  Biso   1.000  C
  H499     1.0000 0.15970  0.90010  0.67310  Biso   1.000  H
  C580     1.0000 0.13360  0.90090  0.74270  Biso   1.000  C
  C581     1.0000 0.15630  0.89000  0.79930  Biso   1.000  C
  H500     1.0000 0.12770  0.89420  0.82120  Biso   1.000  H
  C582     1.0000 0.48250  0.79960  0.89051  Biso   1.000  C
  C583     1.0000 0.47420  0.76438  0.87523  Biso   1.000  C
  H501     1.0000 0.43210  0.75690  0.84860  Biso   1.000  H
  C584     1.0000 0.52700  0.74034  0.89850  Biso   1.000  C
  H502     1.0000 0.52070  0.71690  0.88720  Biso   1.000  H
  C585     1.0000 0.59790  0.78600  0.95540  Biso   1.000  C
  H503     1.0000 0.63950  0.79330  0.98290  Biso   1.000  H
  C586     1.0000 0.58960  0.75101  0.93880  Biso   1.000  C
  C587     1.0000 0.43003  0.82562  0.85853  Biso   1.000  C
  C588     1.0000 0.54470  0.81017  0.93145  Biso   1.000  C
  H504     1.0000 0.55070  0.83360  0.94290  Biso   1.000  H
  Cu57     1.0000 0.03876  0.37165  0.83183  Biso   1.000  Cu
  Cu58     1.0000 0.05257  0.52550  0.86737  Biso   1.000  Cu
  Cu59     1.0000 0.59297  0.24533  0.99684  Biso   1.000  Cu
  Cu60     1.0000 0.29508  0.28183  0.88101  Biso   1.000  Cu
  Cu61     1.0000 0.50644  0.17126  0.93246  Biso   1.000  Cu
  Cu62     1.0000 0.81729  0.29376  0.88765  Biso   1.000  Cu
  Cu63     1.0000 0.65222  0.16891  0.91260  Biso   1.000  Cu
  Cu64     1.0000 0.10857  0.40534  0.74621  Biso   1.000  Cu
  Cl8      1.0000 0.62515  0.18141  0.00786  Biso   1.000  Cl
  N211     1.0000 0.05008  0.42240  0.82777  Biso   1.000  N
  N212     1.0000 0.05336  0.48041  0.83785  Biso   1.000  N
  N213     1.0000 0.09145  0.43610  0.79829  Biso   1.000  N
  N214     1.0000 0.77889  0.29576  0.08395  Biso   1.000  N
  N215     1.0000 0.72358  0.24597  0.08902  Biso   1.000  N
  N216     1.0000 0.68240  0.26443  0.04221  Biso   1.000  N
  N217     1.0000 0.49500  0.24560  0.95255  Biso   1.000  N
  N218     1.0000 0.45933  0.21506  0.92823  Biso   1.000  N
  N219     1.0000 0.38163  0.25856  0.91097  Biso   1.000  N
  N220     1.0000 0.03323  0.62648  0.91127  Biso   1.000  N
  N221     1.0000 0.09453  0.62787  0.89716  Biso   1.000  N
  N222     1.0000 0.05982  0.57228  0.89271  Biso   1.000  N
  N223     1.0000 0.88607  0.36930  0.80252  Biso   1.000  N
  N224     1.0000 0.94786  0.35165  0.83080  Biso   1.000  N
  N225     1.0000 0.85934  0.32534  0.84936  Biso   1.000  N
  N226     1.0000 0.20585  0.30226  0.85050  Biso   1.000  N
  N227     1.0000 0.11400  0.33787  0.83543  Biso   1.000  N
  N228     1.0000 0.09334  0.30924  0.79985  Biso   1.000  N
  N229     1.0000 0.17700  0.12393  0.80540  Biso   1.000  N
  H505     1.0000 0.18380  0.10750  0.78420  Biso   1.000  H
  H506     1.0000 0.13810  0.12470  0.81290  Biso   1.000  H
  N230     1.0000 0.13170  0.16676  0.67690  Biso   1.000  N
  H507     1.0000 0.09640  0.15270  0.67120  Biso   1.000  H
  H508     1.0000 0.16290  0.16290  0.66090  Biso   1.000  H
  N231     1.0000 0.82600  0.41495  0.95440  Biso   1.000  N
  H509     1.0000 0.83440  0.39780  0.97810  Biso   1.000  H
  H510     1.0000 0.78680  0.42640  0.94630  Biso   1.000  H
  N232     1.0000 0.23890  0.55181  0.69060  Biso   1.000  N
  H511     1.0000 0.22100  0.57130  0.67460  Biso   1.000  H
  H512     1.0000 0.27830  0.54430  0.68800  Biso   1.000  H
  N233     1.0000 0.14480  0.22658  0.96150  Biso   1.000  N
  H513     1.0000 0.18410  0.23330  0.98590  Biso   1.000  H
  H514     1.0000 0.13920  0.20490  0.95090  Biso   1.000  H
  N234     1.0000 0.57630  0.40636  0.89840  Biso   1.000  N
  H515     1.0000 0.58200  0.42760  0.91110  Biso   1.000  H
  H516     1.0000 0.54670  0.40210  0.86530  Biso   1.000  H
  N235     1.0000 0.50910  0.41332  0.00950  Biso   1.000  N
  H517     1.0000 0.48810  0.43020  0.98730  Biso   1.000  H
  H518     1.0000 0.54060  0.41800  0.04150  Biso   1.000  H
  N236     1.0000 0.97810  0.22590  0.32536  Biso   1.000  N
  H519     1.0000 0.00310  0.24190  0.34740  Biso   1.000  H
  H520     1.0000 0.98290  0.20420  0.33560  Biso   1.000  H
  N237     1.0000 0.35170  0.42321  0.03800  Biso   1.000  N
  H521     1.0000 0.37170  0.41500  0.07150  Biso   1.000  H
  H522     1.0000 0.35680  0.44500  0.03090  Biso   1.000  H
  N238     1.0000 0.36530  0.55737  0.85490  Biso   1.000  N
  H523     1.0000 0.38910  0.53960  0.87280  Biso   1.000  H
  H524     1.0000 0.38190  0.57000  0.83370  Biso   1.000  H
  N239     1.0000 0.79700  0.53607  0.97960  Biso   1.000  N
  H525     1.0000 0.79810  0.51410  0.98810  Biso   1.000  H
  H526     1.0000 0.76250  0.54910  0.98100  Biso   1.000  H
  N240     1.0000 0.56820  0.41870  0.71870  Biso   1.000  N
  H527     1.0000 0.55420  0.42460  0.68370  Biso   1.000  H
  H528     1.0000 0.54240  0.42350  0.73920  Biso   1.000  H
  C589     1.0000 0.71638  0.29406  0.04065  Biso   1.000  C
  C590     1.0000 0.64270  0.31668  0.94562  Biso   1.000  C
  H529     1.0000 0.63680  0.29380  0.93140  Biso   1.000  H
  C591     1.0000 0.61520  0.37874  0.93160  Biso   1.000  C
  C592     1.0000 0.66280  0.38511  0.98460  Biso   1.000  C
  H530     1.0000 0.67200  0.40820  0.99750  Biso   1.000  H
  C593     1.0000 0.68675  0.32270  0.00068  Biso   1.000  C
  C594     1.0000 0.69720  0.35748  0.01912  Biso   1.000  C
  H531     1.0000 0.72790  0.36230  0.05530  Biso   1.000  H
  C595     1.0000 0.60740  0.34422  0.91166  Biso   1.000  C
  H532     1.0000 0.57800  0.33960  0.87500  Biso   1.000  H
  C596     1.0000 0.78064  0.26556  0.11346  Biso   1.000  C
  C597     1.0000 0.83480  0.25510  0.16661  Biso   1.000  C
  C598     1.0000 0.87560  0.28016  0.20410  Biso   1.000  C
  H533     1.0000 0.87150  0.30380  0.19390  Biso   1.000  H
  C599     1.0000 0.92280  0.27009  0.25700  Biso   1.000  C
  H534     1.0000 0.94950  0.28720  0.28150  Biso   1.000  H
  C600     1.0000 0.84280  0.22000  0.18410  Biso   1.000  C
  H535     1.0000 0.81630  0.20270  0.16000  Biso   1.000  H
  C601     1.0000 0.93010  0.23522  0.27320  Biso   1.000  C
  C602     1.0000 0.88960  0.21024  0.23680  Biso   1.000  C
  H536     1.0000 0.89340  0.18670  0.24760  Biso   1.000  H
  C603     1.0000 0.10924  0.59513  0.88717  Biso   1.000  C
  C604     1.0000 0.17290  0.58458  0.87508  Biso   1.000  C
  C605     1.0000 0.19980  0.60438  0.84030  Biso   1.000  C
  H537     1.0000 0.17550  0.62420  0.82200  Biso   1.000  H
  C606     1.0000 0.26280  0.59468  0.83270  Biso   1.000  C
  H538     1.0000 0.28000  0.60780  0.80870  Biso   1.000  H
  C607     1.0000 0.21060  0.55519  0.90140  Biso   1.000  C
  H539     1.0000 0.19290  0.54150  0.92440  Biso   1.000  H
  C608     1.0000 0.30050  0.56570  0.86030  Biso   1.000  C
  C609     1.0000 0.27320  0.54584  0.89420  Biso   1.000  C
  H540     1.0000 0.29740  0.52590  0.91230  Biso   1.000  H
  C610     1.0000 0.01436  0.59281  0.90905  Biso   1.000  C
  C611     1.0000 0.95750  0.54352  0.94270  Biso   1.000  C
  H541     1.0000 0.99420  0.52900  0.94110  Biso   1.000  H
  C612     1.0000 0.90590  0.52990  0.96100  Biso   1.000  C
  H542     1.0000 0.90820  0.50640  0.97190  Biso   1.000  H
  C613     1.0000 0.95670  0.57880  0.92621  Biso   1.000  C
  C614     1.0000 0.90260  0.59974  0.93120  Biso   1.000  C
  H543     1.0000 0.90180  0.62360  0.92250  Biso   1.000  H
  C615     1.0000 0.85000  0.58605  0.94860  Biso   1.000  C
  H544     1.0000 0.81350  0.60050  0.95070  Biso   1.000  H
  C616     1.0000 0.85080  0.55049  0.96340  Biso   1.000  C
  C617     1.0000 0.22510  0.35690  0.91011  Biso   1.000  C
  C618     1.0000 0.26060  0.34453  0.96376  Biso   1.000  C
  H545     1.0000 0.25610  0.32090  0.97190  Biso   1.000  H
  C619     1.0000 0.23130  0.39207  0.90000  Biso   1.000  C
  H546     1.0000 0.20610  0.40140  0.86470  Biso   1.000  H
  C620     1.0000 0.18143  0.33303  0.86541  Biso   1.000  C
  C621     1.0000 0.30280  0.36629  0.00590  Biso   1.000  C
  H547     1.0000 0.32560  0.35730  0.04190  Biso   1.000  H
  C622     1.0000 0.27460  0.41410  0.94140  Biso   1.000  C
  H548     1.0000 0.27930  0.43770  0.93320  Biso   1.000  H
  C623     1.0000 0.31100  0.40100  0.99490  Biso   1.000  C
  C624     1.0000 0.14842  0.25569  0.77881  Biso   1.000  C
  C625     1.0000 0.19930  0.24850  0.75394  Biso   1.000  C
  H549     1.0000 0.23730  0.26380  0.75950  Biso   1.000  H
  C626     1.0000 0.19430  0.21919  0.72145  Biso   1.000  C
  H550     1.0000 0.22910  0.21480  0.70530  Biso   1.000  H
  C627     1.0000 0.09318  0.23157  0.77074  Biso   1.000  C
  H551     1.0000 0.05910  0.23550  0.78780  Biso   1.000  H
  C628     1.0000 0.14934  0.28849  0.80993  Biso   1.000  C
  C629     1.0000 0.13840  0.19573  0.71201  Biso   1.000  C
  C630     1.0000 0.08840  0.20221  0.73810  Biso   1.000  C
  H552     1.0000 0.05130  0.18640  0.73330  Biso   1.000  H
  C631     1.0000 0.09277  0.47067  0.80531  Biso   1.000  C
  C632     1.0000 0.13270  0.49352  0.77977  Biso   1.000  C
  C633     1.0000 0.10600  0.52543  0.75419  Biso   1.000  C
  H553     1.0000 0.06370  0.53400  0.75690  Biso   1.000  H
  C634     1.0000 0.20410  0.53244  0.72070  Biso   1.000  C
  C635     1.0000 0.19700  0.48212  0.77650  Biso   1.000  C
  H554     1.0000 0.21650  0.46110  0.79390  Biso   1.000  H
  C636     1.0000 0.14100  0.54466  0.72470  Biso   1.000  C
  H555     1.0000 0.12210  0.56580  0.70770  Biso   1.000  H
  C637     1.0000 0.23260  0.50126  0.74780  Biso   1.000  C
  H556     1.0000 0.27600  0.49330  0.74660  Biso   1.000  H
  C638     1.0000 0.91540  0.46215  0.86827  Biso   1.000  C
  H557     1.0000 0.90740  0.48130  0.84380  Biso   1.000  H
  C639     1.0000 0.93820  0.40582  0.94214  Biso   1.000  C
  H558     1.0000 0.94630  0.38670  0.96670  Biso   1.000  H
  C640     1.0000 0.97790  0.44373  0.88132  Biso   1.000  C
  C641     1.0000 0.02747  0.44938  0.85044  Biso   1.000  C
  C642     1.0000 0.98890  0.41548  0.91916  Biso   1.000  C
  H559     1.0000 0.03130  0.40300  0.92890  Biso   1.000  H
  C643     1.0000 0.87550  0.42409  0.92920  Biso   1.000  C
  C644     1.0000 0.86400  0.45231  0.89150  Biso   1.000  C
  H560     1.0000 0.82150  0.46460  0.88170  Biso   1.000  H
  C645     1.0000 0.46186  0.30775  0.95938  Biso   1.000  C
  C646     1.0000 0.51220  0.31645  0.01118  Biso   1.000  C
  H561     1.0000 0.53640  0.29850  0.03510  Biso   1.000  H
  C647     1.0000 0.42670  0.33559  0.92530  Biso   1.000  C
  H562     1.0000 0.39240  0.33080  0.89050  Biso   1.000  H
  C648     1.0000 0.44180  0.37022  0.94210  Biso   1.000  C
  H563     1.0000 0.41760  0.38830  0.91850  Biso   1.000  H
  C649     1.0000 0.44692  0.27106  0.94171  Biso   1.000  C
  C650     1.0000 0.52710  0.35101  0.02793  Biso   1.000  C
  H564     1.0000 0.56100  0.35600  0.06280  Biso   1.000  H
  C651     1.0000 0.49220  0.37846  0.99340  Biso   1.000  C
  C652     1.0000 0.39196  0.22386  0.90366  Biso   1.000  C
  C653     1.0000 0.27120  0.19998  0.88575  Biso   1.000  C
  H565     1.0000 0.26350  0.21760  0.90890  Biso   1.000  H
  C654     1.0000 0.21890  0.17548  0.86210  Biso   1.000  C
  H566     1.0000 0.17640  0.17670  0.86960  Biso   1.000  H
  C655     1.0000 0.22860  0.14903  0.82750  Biso   1.000  C
  C656     1.0000 0.29140  0.14815  0.81590  Biso   1.000  C
  H567     1.0000 0.29830  0.13090  0.79200  Biso   1.000  H
  C657     1.0000 0.34420  0.17262  0.83946  Biso   1.000  C
  H568     1.0000 0.38610  0.17160  0.83120  Biso   1.000  H
  C658     1.0000 0.33519  0.19883  0.87552  Biso   1.000  C
  C659     1.0000 0.83412  0.35286  0.81398  Biso   1.000  C
  C660     1.0000 0.76151  0.36590  0.78972  Biso   1.000  C
  C661     1.0000 0.73750  0.37562  0.73420  Biso   1.000  C
  H569     1.0000 0.76450  0.37020  0.71140  Biso   1.000  H
  C662     1.0000 0.72040  0.37287  0.82310  Biso   1.000  C
  H570     1.0000 0.73560  0.36620  0.86090  Biso   1.000  H
  C663     1.0000 0.67430  0.39336  0.71080  Biso   1.000  C
  H571     1.0000 0.65970  0.40010  0.67310  Biso   1.000  H
  C664     1.0000 0.63360  0.40090  0.74270  Biso   1.000  C
  C665     1.0000 0.65630  0.39000  0.79930  Biso   1.000  C
  H572     1.0000 0.62770  0.39420  0.82120  Biso   1.000  H
  C666     1.0000 0.98250  0.29960  0.89051  Biso   1.000  C
  C667     1.0000 0.97420  0.26438  0.87523  Biso   1.000  C
  H573     1.0000 0.93210  0.25690  0.84860  Biso   1.000  H
  C668     1.0000 0.02700  0.24034  0.89850  Biso   1.000  C
  H574     1.0000 0.02070  0.21690  0.88720  Biso   1.000  H
  C669     1.0000 0.09790  0.28600  0.95540  Biso   1.000  C
  H575     1.0000 0.13950  0.29330  0.98290  Biso   1.000  H
  C670     1.0000 0.08960  0.25101  0.93880  Biso   1.000  C
  C671     1.0000 0.93003  0.32562  0.85853  Biso   1.000  C
  C672     1.0000 0.04470  0.31017  0.93145  Biso   1.000  C
  H576     1.0000 0.05070  0.33360  0.94290  Biso   1.000  H
  Cu65     1.0000 0.50000  0.19225  0.25000  Biso   1.000  Cu
  Cu66     1.0000 0.00000  0.69225  0.25000  Biso   1.000  Cu
  Cu67     1.0000 0.50000  0.80775  0.75000  Biso   1.000  Cu
  Cu68     1.0000 0.00000  0.30775  0.75000  Biso   1.000  Cu
