data_image0
_cell_length_a       43.1076
_cell_length_b       14.6316
_cell_length_c       32.321
_cell_angle_alpha    90
_cell_angle_beta     109.49
_cell_angle_gamma    90

_symmetry_space_group_name_H-M    "P 1"
_symmetry_int_tables_number       1

loop_
  _symmetry_equiv_pos_as_xyz
  'x, y, z'

loop_
  _atom_site_label
  _atom_site_occupancy
  _atom_site_fract_x
  _atom_site_fract_y
  _atom_site_fract_z
  _atom_site_thermal_displace_type
  _atom_site_B_iso_or_equiv
  _atom_site_type_symbol
  C1       1.0000 0.04760  0.88630  0.04210  Biso   1.000  C
  C2       1.0000 0.95360  0.88200  0.05710  Biso   1.000  C
  C3       1.0000 0.95230  0.57890  0.05290  Biso   1.000  C
  C4       1.0000 0.05350  0.58450  0.05060  Biso   1.000  C
  C5       1.0000 0.11680  0.38490  0.05530  Biso   1.000  C
  C6       1.0000 0.21140  0.38160  0.03950  Biso   1.000  C
  C7       1.0000 0.21700  0.08830  0.04870  Biso   1.000  C
  C8       1.0000 0.11550  0.07720  0.05110  Biso   1.000  C
  C9       1.0000 0.00450  0.73820  0.14370  Biso   1.000  C
  H1       1.0000 0.98130  0.73510  0.13130  Biso   1.000  H
  C10      1.0000 0.05500  0.73910  0.13510  Biso   1.000  C
  H2       1.0000 0.06790  0.73530  0.11640  Biso   1.000  H
  C11      1.0000 0.01860  0.74530  0.18920  Biso   1.000  C
  H3       1.0000 0.00520  0.74470  0.20730  Biso   1.000  H
  C12      1.0000 0.07090  0.74760  0.17950  Biso   1.000  C
  H4       1.0000 0.09430  0.74980  0.19100  Biso   1.000  H
  C13      1.0000 0.05240  0.75310  0.20760  Biso   1.000  C
  C14      1.0000 0.06880  0.76490  0.25550  Biso   1.000  C
  C15      1.0000 0.09830  0.81450  0.27190  Biso   1.000  C
  H5       1.0000 0.10810  0.84170  0.25270  Biso   1.000  H
  C16      1.0000 0.11230  0.82250  0.31620  Biso   1.000  C
  H6       1.0000 0.13220  0.85570  0.32890  Biso   1.000  H
  C17      1.0000 0.09650  0.78050  0.34250  Biso   1.000  C
  C18      1.0000 0.11150  0.78120  0.39090  Biso   1.000  C
  C19      1.0000 0.10950  0.70540  0.41480  Biso   1.000  C
  H7       1.0000 0.09720  0.65380  0.40050  Biso   1.000  H
  C20      1.0000 0.12870  0.85520  0.41400  Biso   1.000  C
  H8       1.0000 0.13050  0.90940  0.39890  Biso   1.000  H
  C21      1.0000 0.12540  0.70400  0.46010  Biso   1.000  C
  H9       1.0000 0.12420  0.64990  0.47570  Biso   1.000  H
  C22      1.0000 0.14330  0.85030  0.45940  Biso   1.000  C
  H10      1.0000 0.15450  0.90250  0.47470  Biso   1.000  H
  C23      1.0000 0.16880  0.23810  0.14210  Biso   1.000  C
  H11      1.0000 0.14550  0.23220  0.13000  Biso   1.000  H
  C24      1.0000 0.21910  0.24060  0.13320  Biso   1.000  C
  H12      1.0000 0.23190  0.23650  0.11430  Biso   1.000  H
  C25      1.0000 0.18300  0.24720  0.18720  Biso   1.000  C
  H13      1.0000 0.16970  0.24850  0.20540  Biso   1.000  H
  C26      1.0000 0.23550  0.24950  0.17720  Biso   1.000  C
  H14      1.0000 0.25880  0.25220  0.18830  Biso   1.000  H
  C27      1.0000 0.21710  0.25450  0.20550  Biso   1.000  C
  C28      1.0000 0.23420  0.26680  0.25350  Biso   1.000  C
  C29      1.0000 0.26360  0.31290  0.26940  Biso   1.000  C
  H15      1.0000 0.27350  0.33800  0.24980  Biso   1.000  H
  C30      1.0000 0.27820  0.32190  0.31340  Biso   1.000  C
  H16      1.0000 0.29860  0.35310  0.32570  Biso   1.000  H
  C31      1.0000 0.26170  0.28270  0.34020  Biso   1.000  C
  C32      1.0000 0.27690  0.28400  0.38850  Biso   1.000  C
  C33      1.0000 0.27240  0.21180  0.41290  Biso   1.000  C
  H17      1.0000 0.25820  0.16280  0.39910  Biso   1.000  H
  C34      1.0000 0.29610  0.35550  0.41130  Biso   1.000  C
  H18      1.0000 0.29910  0.40840  0.39600  Biso   1.000  H
  C35      1.0000 0.28850  0.21060  0.45760  Biso   1.000  C
  H19      1.0000 0.28550  0.15860  0.47340  Biso   1.000  H
  C36      1.0000 0.31090  0.34970  0.45590  Biso   1.000  C
  H20      1.0000 0.32390  0.39980  0.47080  Biso   1.000  H
  N1       1.0000 0.03010  0.82950  0.04410  Biso   1.000  N
  N2       1.0000 0.97003  0.82430  0.05530  Biso   1.000  N
  N3       1.0000 0.97142  0.63340  0.05490  Biso   1.000  N
  N4       1.0000 0.03391  0.63840  0.04890  Biso   1.000  N
  N5       1.0000 0.13353  0.32560  0.05360  Biso   1.000  N
  N6       1.0000 0.19345  0.32830  0.04170  Biso   1.000  N
  N7       1.0000 0.19703  0.14020  0.04670  Biso   1.000  N
  N8       1.0000 0.13460  0.13260  0.05370  Biso   1.000  N
  N9       1.0000 0.02224  0.73580  0.11700  Biso   1.000  N
  N10      1.0000 0.05420  0.72980  0.28200  Biso   1.000  N
  N11      1.0000 0.06860  0.73620  0.32610  Biso   1.000  N
  N12      1.0000 0.14218  0.77420  0.48230  Biso   1.000  N
  N13      1.0000 0.18616  0.23710  0.11470  Biso   1.000  N
  N14      1.0000 0.21900  0.23340  0.27980  Biso   1.000  N
  N15      1.0000 0.23330  0.24030  0.32380  Biso   1.000  N
  N16      1.0000 0.30790  0.27660  0.48010  Biso   1.000  N
  Fe1      1.0000 0.00111  0.73091  0.05090  Biso   1.000  Fe
  Fe2      1.0000 0.16455  0.23131  0.04874  Biso   1.000  Fe
  Au1      1.0000 0.08117  0.98247  0.04453  Biso   1.000  Au
  Au2      1.0000 0.08585  0.48708  0.05257  Biso   1.000  Au
  Au3      1.0000 0.24639  0.47770  0.04347  Biso   1.000  Au
  C37      1.0000 0.54760  0.38630  0.04210  Biso   1.000  C
  C38      1.0000 0.45360  0.38200  0.05710  Biso   1.000  C
  C39      1.0000 0.45230  0.07890  0.05290  Biso   1.000  C
  C40      1.0000 0.55350  0.08450  0.05060  Biso   1.000  C
  C41      1.0000 0.61680  0.88490  0.05530  Biso   1.000  C
  C42      1.0000 0.71140  0.88160  0.03950  Biso   1.000  C
  C43      1.0000 0.71700  0.58830  0.04870  Biso   1.000  C
  C44      1.0000 0.61550  0.57720  0.05110  Biso   1.000  C
  C45      1.0000 0.50450  0.23820  0.14370  Biso   1.000  C
  H21      1.0000 0.48130  0.23510  0.13130  Biso   1.000  H
  C46      1.0000 0.55500  0.23910  0.13510  Biso   1.000  C
  H22      1.0000 0.56790  0.23530  0.11640  Biso   1.000  H
  C47      1.0000 0.51860  0.24530  0.18920  Biso   1.000  C
  H23      1.0000 0.50520  0.24470  0.20730  Biso   1.000  H
  C48      1.0000 0.57090  0.24760  0.17950  Biso   1.000  C
  H24      1.0000 0.59430  0.24980  0.19100  Biso   1.000  H
  C49      1.0000 0.55240  0.25310  0.20760  Biso   1.000  C
  C50      1.0000 0.56880  0.26490  0.25550  Biso   1.000  C
  C51      1.0000 0.59830  0.31450  0.27190  Biso   1.000  C
  H25      1.0000 0.60810  0.34170  0.25270  Biso   1.000  H
  C52      1.0000 0.61230  0.32250  0.31620  Biso   1.000  C
  H26      1.0000 0.63220  0.35570  0.32890  Biso   1.000  H
  C53      1.0000 0.59650  0.28050  0.34250  Biso   1.000  C
  C54      1.0000 0.61150  0.28120  0.39090  Biso   1.000  C
  C55      1.0000 0.60950  0.20540  0.41480  Biso   1.000  C
  H27      1.0000 0.59720  0.15380  0.40050  Biso   1.000  H
  C56      1.0000 0.62870  0.35520  0.41400  Biso   1.000  C
  H28      1.0000 0.63050  0.40940  0.39890  Biso   1.000  H
  C57      1.0000 0.62540  0.20400  0.46010  Biso   1.000  C
  H29      1.0000 0.62420  0.14990  0.47570  Biso   1.000  H
  C58      1.0000 0.64330  0.35030  0.45940  Biso   1.000  C
  H30      1.0000 0.65450  0.40250  0.47470  Biso   1.000  H
  C59      1.0000 0.66880  0.73810  0.14210  Biso   1.000  C
  H31      1.0000 0.64550  0.73220  0.13000  Biso   1.000  H
  C60      1.0000 0.71910  0.74060  0.13320  Biso   1.000  C
  H32      1.0000 0.73190  0.73650  0.11430  Biso   1.000  H
  C61      1.0000 0.68300  0.74720  0.18720  Biso   1.000  C
  H33      1.0000 0.66970  0.74850  0.20540  Biso   1.000  H
  C62      1.0000 0.73550  0.74950  0.17720  Biso   1.000  C
  H34      1.0000 0.75880  0.75220  0.18830  Biso   1.000  H
  C63      1.0000 0.71710  0.75450  0.20550  Biso   1.000  C
  C64      1.0000 0.73420  0.76680  0.25350  Biso   1.000  C
  C65      1.0000 0.76360  0.81290  0.26940  Biso   1.000  C
  H35      1.0000 0.77350  0.83800  0.24980  Biso   1.000  H
  C66      1.0000 0.77820  0.82190  0.31340  Biso   1.000  C
  H36      1.0000 0.79860  0.85310  0.32570  Biso   1.000  H
  C67      1.0000 0.76170  0.78270  0.34020  Biso   1.000  C
  C68      1.0000 0.77690  0.78400  0.38850  Biso   1.000  C
  C69      1.0000 0.77240  0.71180  0.41290  Biso   1.000  C
  H37      1.0000 0.75820  0.66280  0.39910  Biso   1.000  H
  C70      1.0000 0.79610  0.85550  0.41130  Biso   1.000  C
  H38      1.0000 0.79910  0.90840  0.39600  Biso   1.000  H
  C71      1.0000 0.78850  0.71060  0.45760  Biso   1.000  C
  H39      1.0000 0.78550  0.65860  0.47340  Biso   1.000  H
  C72      1.0000 0.81090  0.84970  0.45590  Biso   1.000  C
  H40      1.0000 0.82390  0.89980  0.47080  Biso   1.000  H
  N17      1.0000 0.53010  0.32950  0.04410  Biso   1.000  N
  N18      1.0000 0.47003  0.32430  0.05530  Biso   1.000  N
  N19      1.0000 0.47142  0.13340  0.05490  Biso   1.000  N
  N20      1.0000 0.53391  0.13840  0.04890  Biso   1.000  N
  N21      1.0000 0.63353  0.82560  0.05360  Biso   1.000  N
  N22      1.0000 0.69345  0.82830  0.04170  Biso   1.000  N
  N23      1.0000 0.69703  0.64020  0.04670  Biso   1.000  N
  N24      1.0000 0.63460  0.63260  0.05370  Biso   1.000  N
  N25      1.0000 0.52224  0.23580  0.11700  Biso   1.000  N
  N26      1.0000 0.55420  0.22980  0.28200  Biso   1.000  N
  N27      1.0000 0.56860  0.23620  0.32610  Biso   1.000  N
  N28      1.0000 0.64218  0.27420  0.48230  Biso   1.000  N
  N29      1.0000 0.68616  0.73710  0.11470  Biso   1.000  N
  N30      1.0000 0.71900  0.73340  0.27980  Biso   1.000  N
  N31      1.0000 0.73330  0.74030  0.32380  Biso   1.000  N
  N32      1.0000 0.80790  0.77660  0.48010  Biso   1.000  N
  Fe3      1.0000 0.50111  0.23091  0.05090  Biso   1.000  Fe
  Fe4      1.0000 0.66455  0.73131  0.04874  Biso   1.000  Fe
  Au4      1.0000 0.58117  0.48247  0.04453  Biso   1.000  Au
  Au5      1.0000 0.58585  0.98708  0.05257  Biso   1.000  Au
  Au6      1.0000 0.74639  0.97770  0.04347  Biso   1.000  Au
  C73      1.0000 0.88870  0.92130  0.54910  Biso   1.000  C
  C74      1.0000 0.88280  0.60690  0.54100  Biso   1.000  C
  C75      1.0000 0.78220  0.60700  0.55630  Biso   1.000  C
  C76      1.0000 0.78060  0.93190  0.55210  Biso   1.000  C
  C77      1.0000 0.88880  0.76140  0.63770  Biso   1.000  C
  H41      1.0000 0.90170  0.76660  0.61900  Biso   1.000  H
  C78      1.0000 0.83900  0.75930  0.64710  Biso   1.000  C
  H42      1.0000 0.81560  0.76210  0.63490  Biso   1.000  H
  C79      1.0000 0.90480  0.75160  0.68180  Biso   1.000  C
  H43      1.0000 0.92810  0.74930  0.69310  Biso   1.000  H
  C80      1.0000 0.85280  0.75070  0.69200  Biso   1.000  C
  H44      1.0000 0.83930  0.74860  0.71000  Biso   1.000  H
  C81      1.0000 0.88660  0.74520  0.71010  Biso   1.000  C
  C82      1.0000 0.90380  0.73180  0.75780  Biso   1.000  C
  C83      1.0000 0.93290  0.68320  0.77380  Biso   1.000  C
  H45      1.0000 0.94260  0.65610  0.75440  Biso   1.000  H
  C84      1.0000 0.94730  0.67500  0.81800  Biso   1.000  C
  H46      1.0000 0.96710  0.64140  0.83020  Biso   1.000  H
  C85      1.0000 0.93200  0.71750  0.84500  Biso   1.000  C
  C86      1.0000 0.94710  0.71780  0.89340  Biso   1.000  C
  C87      1.0000 0.96430  0.64340  0.91610  Biso   1.000  C
  H47      1.0000 0.96590  0.58890  0.90100  Biso   1.000  H
  C88      1.0000 0.94570  0.79560  0.91740  Biso   1.000  C
  H48      1.0000 0.93360  0.84760  0.90330  Biso   1.000  H
  C89      1.0000 0.97900  0.64900  0.96100  Biso   1.000  C
  H49      1.0000 0.98990  0.59640  0.97620  Biso   1.000  H
  C90      1.0000 0.96250  0.79570  0.96220  Biso   1.000  C
  H50      1.0000 0.96210  0.85050  0.97780  Biso   1.000  H
  N33      1.0000 0.86810  0.86650  0.54760  Biso   1.000  N
  N34      1.0000 0.86380  0.66460  0.54130  Biso   1.000  N
  N35      1.0000 0.79980  0.66850  0.55610  Biso   1.000  N
  N36      1.0000 0.80090  0.87580  0.55570  Biso   1.000  N
  N37      1.0000 0.85618  0.76400  0.61960  Biso   1.000  N
  N38      1.0000 0.88910  0.76870  0.78450  Biso   1.000  N
  N39      1.0000 0.90380  0.76130  0.82840  Biso   1.000  N
  N40      1.0000 0.97880  0.72580  0.98480  Biso   1.000  N
  Fe5      1.0000 0.83276  0.76914  0.54985  Biso   1.000  Fe
  Au7      1.0000 0.92114  0.01581  0.55307  Biso   1.000  Au
  Au8      1.0000 0.91672  0.51568  0.54456  Biso   1.000  Au
  Au9      1.0000 0.75091  0.50888  0.55223  Biso   1.000  Au
  C91      1.0000 0.38870  0.42130  0.54910  Biso   1.000  C
  C92      1.0000 0.38280  0.10690  0.54100  Biso   1.000  C
  C93      1.0000 0.28220  0.10700  0.55630  Biso   1.000  C
  C94      1.0000 0.28060  0.43190  0.55210  Biso   1.000  C
  C95      1.0000 0.38880  0.26140  0.63770  Biso   1.000  C
  H51      1.0000 0.40170  0.26660  0.61900  Biso   1.000  H
  C96      1.0000 0.33900  0.25930  0.64710  Biso   1.000  C
  H52      1.0000 0.31560  0.26210  0.63490  Biso   1.000  H
  C97      1.0000 0.40480  0.25160  0.68180  Biso   1.000  C
  H53      1.0000 0.42810  0.24930  0.69310  Biso   1.000  H
  C98      1.0000 0.35280  0.25070  0.69200  Biso   1.000  C
  H54      1.0000 0.33930  0.24860  0.71000  Biso   1.000  H
  C99      1.0000 0.38660  0.24520  0.71010  Biso   1.000  C
  C100     1.0000 0.40380  0.23180  0.75780  Biso   1.000  C
  C101     1.0000 0.43290  0.18320  0.77380  Biso   1.000  C
  H55      1.0000 0.44260  0.15610  0.75440  Biso   1.000  H
  C102     1.0000 0.44730  0.17500  0.81800  Biso   1.000  C
  H56      1.0000 0.46710  0.14140  0.83020  Biso   1.000  H
  C103     1.0000 0.43200  0.21750  0.84500  Biso   1.000  C
  C104     1.0000 0.44710  0.21780  0.89340  Biso   1.000  C
  C105     1.0000 0.46430  0.14340  0.91610  Biso   1.000  C
  H57      1.0000 0.46590  0.08890  0.90100  Biso   1.000  H
  C106     1.0000 0.44570  0.29560  0.91740  Biso   1.000  C
  H58      1.0000 0.43360  0.34760  0.90330  Biso   1.000  H
  C107     1.0000 0.47900  0.14900  0.96100  Biso   1.000  C
  H59      1.0000 0.48990  0.09640  0.97620  Biso   1.000  H
  C108     1.0000 0.46250  0.29570  0.96220  Biso   1.000  C
  H60      1.0000 0.46210  0.35050  0.97780  Biso   1.000  H
  N41      1.0000 0.36810  0.36650  0.54760  Biso   1.000  N
  N42      1.0000 0.36380  0.16460  0.54130  Biso   1.000  N
  N43      1.0000 0.29980  0.16850  0.55610  Biso   1.000  N
  N44      1.0000 0.30090  0.37580  0.55570  Biso   1.000  N
  N45      1.0000 0.35618  0.26400  0.61960  Biso   1.000  N
  N46      1.0000 0.38910  0.26870  0.78450  Biso   1.000  N
  N47      1.0000 0.40380  0.26130  0.82840  Biso   1.000  N
  N48      1.0000 0.47880  0.22580  0.98480  Biso   1.000  N
  Fe6      1.0000 0.33276  0.26914  0.54985  Biso   1.000  Fe
  Au10     1.0000 0.42114  0.51581  0.55307  Biso   1.000  Au
  Au11     1.0000 0.41672  0.01568  0.54457  Biso   1.000  Au
  Au12     1.0000 0.25091  0.00888  0.55223  Biso   1.000  Au
  C109     1.0000 0.88870  0.07870  0.04910  Biso   1.000  C
  C110     1.0000 0.88280  0.39310  0.04100  Biso   1.000  C
  C111     1.0000 0.78220  0.39300  0.05630  Biso   1.000  C
  C112     1.0000 0.78060  0.06810  0.05210  Biso   1.000  C
  C113     1.0000 0.88880  0.23860  0.13770  Biso   1.000  C
  H61      1.0000 0.90170  0.23340  0.11900  Biso   1.000  H
  C114     1.0000 0.83900  0.24070  0.14710  Biso   1.000  C
  H62      1.0000 0.81560  0.23790  0.13490  Biso   1.000  H
  C115     1.0000 0.90480  0.24840  0.18180  Biso   1.000  C
  H63      1.0000 0.92810  0.25070  0.19310  Biso   1.000  H
  C116     1.0000 0.85280  0.24930  0.19200  Biso   1.000  C
  H64      1.0000 0.83930  0.25140  0.21000  Biso   1.000  H
  C117     1.0000 0.88660  0.25480  0.21010  Biso   1.000  C
  C118     1.0000 0.90380  0.26820  0.25780  Biso   1.000  C
  C119     1.0000 0.93290  0.31680  0.27380  Biso   1.000  C
  H65      1.0000 0.94260  0.34390  0.25440  Biso   1.000  H
  C120     1.0000 0.94730  0.32500  0.31800  Biso   1.000  C
  H66      1.0000 0.96710  0.35860  0.33020  Biso   1.000  H
  C121     1.0000 0.93200  0.28250  0.34500  Biso   1.000  C
  C122     1.0000 0.94710  0.28220  0.39340  Biso   1.000  C
  C123     1.0000 0.96430  0.35660  0.41610  Biso   1.000  C
  H67      1.0000 0.96590  0.41110  0.40100  Biso   1.000  H
  C124     1.0000 0.94570  0.20440  0.41740  Biso   1.000  C
  H68      1.0000 0.93360  0.15240  0.40330  Biso   1.000  H
  C125     1.0000 0.97900  0.35100  0.46100  Biso   1.000  C
  H69      1.0000 0.98990  0.40360  0.47620  Biso   1.000  H
  C126     1.0000 0.96250  0.20430  0.46220  Biso   1.000  C
  H70      1.0000 0.96210  0.14950  0.47780  Biso   1.000  H
  N49      1.0000 0.86810  0.13350  0.04760  Biso   1.000  N
  N50      1.0000 0.86380  0.33540  0.04130  Biso   1.000  N
  N51      1.0000 0.79980  0.33150  0.05610  Biso   1.000  N
  N52      1.0000 0.80090  0.12420  0.05570  Biso   1.000  N
  N53      1.0000 0.85618  0.23600  0.11960  Biso   1.000  N
  N54      1.0000 0.88910  0.23130  0.28450  Biso   1.000  N
  N55      1.0000 0.90380  0.23870  0.32840  Biso   1.000  N
  N56      1.0000 0.97880  0.27420  0.48480  Biso   1.000  N
  Fe7      1.0000 0.83276  0.23086  0.04985  Biso   1.000  Fe
  Au13     1.0000 0.92114  0.98419  0.05307  Biso   1.000  Au
  Au14     1.0000 0.91672  0.48432  0.04456  Biso   1.000  Au
  Au15     1.0000 0.75091  0.49112  0.05223  Biso   1.000  Au
  C127     1.0000 0.38870  0.57870  0.04910  Biso   1.000  C
  C128     1.0000 0.38280  0.89310  0.04100  Biso   1.000  C
  C129     1.0000 0.28220  0.89300  0.05630  Biso   1.000  C
  C130     1.0000 0.28060  0.56810  0.05210  Biso   1.000  C
  C131     1.0000 0.38880  0.73860  0.13770  Biso   1.000  C
  H71      1.0000 0.40170  0.73340  0.11900  Biso   1.000  H
  C132     1.0000 0.33900  0.74070  0.14710  Biso   1.000  C
  H72      1.0000 0.31560  0.73790  0.13490  Biso   1.000  H
  C133     1.0000 0.40480  0.74840  0.18180  Biso   1.000  C
  H73      1.0000 0.42810  0.75070  0.19310  Biso   1.000  H
  C134     1.0000 0.35280  0.74930  0.19200  Biso   1.000  C
  H74      1.0000 0.33930  0.75140  0.21000  Biso   1.000  H
  C135     1.0000 0.38660  0.75480  0.21010  Biso   1.000  C
  C136     1.0000 0.40380  0.76820  0.25780  Biso   1.000  C
  C137     1.0000 0.43290  0.81680  0.27380  Biso   1.000  C
  H75      1.0000 0.44260  0.84390  0.25440  Biso   1.000  H
  C138     1.0000 0.44730  0.82500  0.31800  Biso   1.000  C
  H76      1.0000 0.46710  0.85860  0.33020  Biso   1.000  H
  C139     1.0000 0.43200  0.78250  0.34500  Biso   1.000  C
  C140     1.0000 0.44710  0.78220  0.39340  Biso   1.000  C
  C141     1.0000 0.46430  0.85660  0.41610  Biso   1.000  C
  H77      1.0000 0.46590  0.91110  0.40100  Biso   1.000  H
  C142     1.0000 0.44570  0.70440  0.41740  Biso   1.000  C
  H78      1.0000 0.43360  0.65240  0.40330  Biso   1.000  H
  C143     1.0000 0.47900  0.85100  0.46100  Biso   1.000  C
  H79      1.0000 0.48990  0.90360  0.47620  Biso   1.000  H
  C144     1.0000 0.46250  0.70430  0.46220  Biso   1.000  C
  H80      1.0000 0.46210  0.64950  0.47780  Biso   1.000  H
  N57      1.0000 0.36810  0.63350  0.04760  Biso   1.000  N
  N58      1.0000 0.36380  0.83540  0.04130  Biso   1.000  N
  N59      1.0000 0.29980  0.83150  0.05610  Biso   1.000  N
  N60      1.0000 0.30090  0.62420  0.05570  Biso   1.000  N
  N61      1.0000 0.35618  0.73600  0.11960  Biso   1.000  N
  N62      1.0000 0.38910  0.73130  0.28450  Biso   1.000  N
  N63      1.0000 0.40380  0.73870  0.32840  Biso   1.000  N
  N64      1.0000 0.47880  0.77420  0.48480  Biso   1.000  N
  Fe8      1.0000 0.33276  0.73086  0.04985  Biso   1.000  Fe
  Au16     1.0000 0.42114  0.48419  0.05307  Biso   1.000  Au
  Au17     1.0000 0.41672  0.98432  0.04457  Biso   1.000  Au
  Au18     1.0000 0.25091  0.99112  0.05223  Biso   1.000  Au
  C145     1.0000 0.04760  0.11370  0.54210  Biso   1.000  C
  C146     1.0000 0.95360  0.11800  0.55710  Biso   1.000  C
  C147     1.0000 0.95230  0.42110  0.55290  Biso   1.000  C
  C148     1.0000 0.05350  0.41550  0.55060  Biso   1.000  C
  C149     1.0000 0.11680  0.61510  0.55530  Biso   1.000  C
  C150     1.0000 0.21140  0.61840  0.53950  Biso   1.000  C
  C151     1.0000 0.21700  0.91170  0.54870  Biso   1.000  C
  C152     1.0000 0.11550  0.92280  0.55110  Biso   1.000  C
  C153     1.0000 0.00450  0.26180  0.64370  Biso   1.000  C
  H81      1.0000 0.98130  0.26490  0.63130  Biso   1.000  H
  C154     1.0000 0.05500  0.26090  0.63510  Biso   1.000  C
  H82      1.0000 0.06790  0.26470  0.61640  Biso   1.000  H
  C155     1.0000 0.01860  0.25470  0.68920  Biso   1.000  C
  H83      1.0000 0.00520  0.25530  0.70730  Biso   1.000  H
  C156     1.0000 0.07090  0.25240  0.67950  Biso   1.000  C
  H84      1.0000 0.09430  0.25020  0.69100  Biso   1.000  H
  C157     1.0000 0.05240  0.24690  0.70760  Biso   1.000  C
  C158     1.0000 0.06880  0.23510  0.75550  Biso   1.000  C
  C159     1.0000 0.09830  0.18550  0.77190  Biso   1.000  C
  H85      1.0000 0.10810  0.15830  0.75270  Biso   1.000  H
  C160     1.0000 0.11230  0.17750  0.81620  Biso   1.000  C
  H86      1.0000 0.13220  0.14430  0.82890  Biso   1.000  H
  C161     1.0000 0.09650  0.21950  0.84250  Biso   1.000  C
  C162     1.0000 0.11150  0.21880  0.89090  Biso   1.000  C
  C163     1.0000 0.10950  0.29460  0.91480  Biso   1.000  C
  H87      1.0000 0.09720  0.34620  0.90050  Biso   1.000  H
  C164     1.0000 0.12870  0.14480  0.91400  Biso   1.000  C
  H88      1.0000 0.13050  0.09060  0.89890  Biso   1.000  H
  C165     1.0000 0.12540  0.29600  0.96010  Biso   1.000  C
  H89      1.0000 0.12420  0.35010  0.97570  Biso   1.000  H
  C166     1.0000 0.14330  0.14970  0.95940  Biso   1.000  C
  H90      1.0000 0.15450  0.09750  0.97470  Biso   1.000  H
  C167     1.0000 0.16880  0.76190  0.64210  Biso   1.000  C
  H91      1.0000 0.14550  0.76780  0.63000  Biso   1.000  H
  C168     1.0000 0.21910  0.75940  0.63320  Biso   1.000  C
  H92      1.0000 0.23190  0.76350  0.61430  Biso   1.000  H
  C169     1.0000 0.18300  0.75280  0.68720  Biso   1.000  C
  H93      1.0000 0.16970  0.75150  0.70540  Biso   1.000  H
  C170     1.0000 0.23550  0.75050  0.67720  Biso   1.000  C
  H94      1.0000 0.25880  0.74780  0.68830  Biso   1.000  H
  C171     1.0000 0.21710  0.74550  0.70550  Biso   1.000  C
  C172     1.0000 0.23420  0.73320  0.75350  Biso   1.000  C
  C173     1.0000 0.26360  0.68710  0.76940  Biso   1.000  C
  H95      1.0000 0.27350  0.66200  0.74980  Biso   1.000  H
  C174     1.0000 0.27820  0.67810  0.81340  Biso   1.000  C
  H96      1.0000 0.29860  0.64690  0.82570  Biso   1.000  H
  C175     1.0000 0.26170  0.71730  0.84020  Biso   1.000  C
  C176     1.0000 0.27690  0.71600  0.88850  Biso   1.000  C
  C177     1.0000 0.27240  0.78820  0.91290  Biso   1.000  C
  H97      1.0000 0.25820  0.83720  0.89910  Biso   1.000  H
  C178     1.0000 0.29610  0.64450  0.91130  Biso   1.000  C
  H98      1.0000 0.29910  0.59160  0.89600  Biso   1.000  H
  C179     1.0000 0.28850  0.78940  0.95760  Biso   1.000  C
  H99      1.0000 0.28550  0.84140  0.97340  Biso   1.000  H
  C180     1.0000 0.31090  0.65030  0.95590  Biso   1.000  C
  H100     1.0000 0.32390  0.60020  0.97080  Biso   1.000  H
  N65      1.0000 0.03010  0.17050  0.54410  Biso   1.000  N
  N66      1.0000 0.97003  0.17570  0.55530  Biso   1.000  N
  N67      1.0000 0.97142  0.36660  0.55490  Biso   1.000  N
  N68      1.0000 0.03391  0.36160  0.54890  Biso   1.000  N
  N69      1.0000 0.13353  0.67440  0.55360  Biso   1.000  N
  N70      1.0000 0.19345  0.67170  0.54170  Biso   1.000  N
  N71      1.0000 0.19703  0.85980  0.54670  Biso   1.000  N
  N72      1.0000 0.13460  0.86740  0.55370  Biso   1.000  N
  N73      1.0000 0.02224  0.26420  0.61700  Biso   1.000  N
  N74      1.0000 0.05420  0.27020  0.78200  Biso   1.000  N
  N75      1.0000 0.06860  0.26380  0.82610  Biso   1.000  N
  N76      1.0000 0.14218  0.22580  0.98230  Biso   1.000  N
  N77      1.0000 0.18616  0.76290  0.61470  Biso   1.000  N
  N78      1.0000 0.21900  0.76660  0.77980  Biso   1.000  N
  N79      1.0000 0.23330  0.75970  0.82380  Biso   1.000  N
  N80      1.0000 0.30790  0.72340  0.98010  Biso   1.000  N
  Fe9      1.0000 0.00111  0.26909  0.55090  Biso   1.000  Fe
  Fe10     1.0000 0.16455  0.76869  0.54874  Biso   1.000  Fe
  Au19     1.0000 0.08117  0.01753  0.54453  Biso   1.000  Au
  Au20     1.0000 0.08585  0.51292  0.55258  Biso   1.000  Au
  Au21     1.0000 0.24639  0.52230  0.54347  Biso   1.000  Au
  C181     1.0000 0.54760  0.61370  0.54210  Biso   1.000  C
  C182     1.0000 0.45360  0.61800  0.55710  Biso   1.000  C
  C183     1.0000 0.45230  0.92110  0.55290  Biso   1.000  C
  C184     1.0000 0.55350  0.91550  0.55060  Biso   1.000  C
  C185     1.0000 0.61680  0.11510  0.55530  Biso   1.000  C
  C186     1.0000 0.71140  0.11840  0.53950  Biso   1.000  C
  C187     1.0000 0.71700  0.41170  0.54870  Biso   1.000  C
  C188     1.0000 0.61550  0.42280  0.55110  Biso   1.000  C
  C189     1.0000 0.50450  0.76180  0.64370  Biso   1.000  C
  H101     1.0000 0.48130  0.76490  0.63130  Biso   1.000  H
  C190     1.0000 0.55500  0.76090  0.63510  Biso   1.000  C
  H102     1.0000 0.56790  0.76470  0.61640  Biso   1.000  H
  C191     1.0000 0.51860  0.75470  0.68920  Biso   1.000  C
  H103     1.0000 0.50520  0.75530  0.70730  Biso   1.000  H
  C192     1.0000 0.57090  0.75240  0.67950  Biso   1.000  C
  H104     1.0000 0.59430  0.75020  0.69100  Biso   1.000  H
  C193     1.0000 0.55240  0.74690  0.70760  Biso   1.000  C
  C194     1.0000 0.56880  0.73510  0.75550  Biso   1.000  C
  C195     1.0000 0.59830  0.68550  0.77190  Biso   1.000  C
  H105     1.0000 0.60810  0.65830  0.75270  Biso   1.000  H
  C196     1.0000 0.61230  0.67750  0.81620  Biso   1.000  C
  H106     1.0000 0.63220  0.64430  0.82890  Biso   1.000  H
  C197     1.0000 0.59650  0.71950  0.84250  Biso   1.000  C
  C198     1.0000 0.61150  0.71880  0.89090  Biso   1.000  C
  C199     1.0000 0.60950  0.79460  0.91480  Biso   1.000  C
  H107     1.0000 0.59720  0.84620  0.90050  Biso   1.000  H
  C200     1.0000 0.62870  0.64480  0.91400  Biso   1.000  C
  H108     1.0000 0.63050  0.59060  0.89890  Biso   1.000  H
  C201     1.0000 0.62540  0.79600  0.96010  Biso   1.000  C
  H109     1.0000 0.62420  0.85010  0.97570  Biso   1.000  H
  C202     1.0000 0.64330  0.64970  0.95940  Biso   1.000  C
  H110     1.0000 0.65450  0.59750  0.97470  Biso   1.000  H
  C203     1.0000 0.66880  0.26190  0.64210  Biso   1.000  C
  H111     1.0000 0.64550  0.26780  0.63000  Biso   1.000  H
  C204     1.0000 0.71910  0.25940  0.63320  Biso   1.000  C
  H112     1.0000 0.73190  0.26350  0.61430  Biso   1.000  H
  C205     1.0000 0.68300  0.25280  0.68720  Biso   1.000  C
  H113     1.0000 0.66970  0.25150  0.70540  Biso   1.000  H
  C206     1.0000 0.73550  0.25050  0.67720  Biso   1.000  C
  H114     1.0000 0.75880  0.24780  0.68830  Biso   1.000  H
  C207     1.0000 0.71710  0.24550  0.70550  Biso   1.000  C
  C208     1.0000 0.73420  0.23320  0.75350  Biso   1.000  C
  C209     1.0000 0.76360  0.18710  0.76940  Biso   1.000  C
  H115     1.0000 0.77350  0.16200  0.74980  Biso   1.000  H
  C210     1.0000 0.77820  0.17810  0.81340  Biso   1.000  C
  H116     1.0000 0.79860  0.14690  0.82570  Biso   1.000  H
  C211     1.0000 0.76170  0.21730  0.84020  Biso   1.000  C
  C212     1.0000 0.77690  0.21600  0.88850  Biso   1.000  C
  C213     1.0000 0.77240  0.28820  0.91290  Biso   1.000  C
  H117     1.0000 0.75820  0.33720  0.89910  Biso   1.000  H
  C214     1.0000 0.79610  0.14450  0.91130  Biso   1.000  C
  H118     1.0000 0.79910  0.09160  0.89600  Biso   1.000  H
  C215     1.0000 0.78850  0.28940  0.95760  Biso   1.000  C
  H119     1.0000 0.78550  0.34140  0.97340  Biso   1.000  H
  C216     1.0000 0.81090  0.15030  0.95590  Biso   1.000  C
  H120     1.0000 0.82390  0.10020  0.97080  Biso   1.000  H
  N81      1.0000 0.53010  0.67050  0.54410  Biso   1.000  N
  N82      1.0000 0.47003  0.67570  0.55530  Biso   1.000  N
  N83      1.0000 0.47142  0.86660  0.55490  Biso   1.000  N
  N84      1.0000 0.53391  0.86160  0.54890  Biso   1.000  N
  N85      1.0000 0.63353  0.17440  0.55360  Biso   1.000  N
  N86      1.0000 0.69345  0.17170  0.54170  Biso   1.000  N
  N87      1.0000 0.69703  0.35980  0.54670  Biso   1.000  N
  N88      1.0000 0.63460  0.36740  0.55370  Biso   1.000  N
  N89      1.0000 0.52224  0.76420  0.61700  Biso   1.000  N
  N90      1.0000 0.55420  0.77020  0.78200  Biso   1.000  N
  N91      1.0000 0.56860  0.76380  0.82610  Biso   1.000  N
  N92      1.0000 0.64218  0.72580  0.98230  Biso   1.000  N
  N93      1.0000 0.68616  0.26290  0.61470  Biso   1.000  N
  N94      1.0000 0.71900  0.26660  0.77980  Biso   1.000  N
  N95      1.0000 0.73330  0.25970  0.82380  Biso   1.000  N
  N96      1.0000 0.80790  0.22340  0.98010  Biso   1.000  N
  Fe11     1.0000 0.50111  0.76909  0.55090  Biso   1.000  Fe
  Fe12     1.0000 0.66455  0.26869  0.54874  Biso   1.000  Fe
  Au22     1.0000 0.58117  0.51753  0.54453  Biso   1.000  Au
  Au23     1.0000 0.58585  0.01292  0.55258  Biso   1.000  Au
  Au24     1.0000 0.74639  0.02230  0.54347  Biso   1.000  Au
  C217     1.0000 0.11130  0.92130  0.95090  Biso   1.000  C
  C218     1.0000 0.11720  0.60690  0.95900  Biso   1.000  C
  C219     1.0000 0.21780  0.60700  0.94370  Biso   1.000  C
  C220     1.0000 0.21940  0.93190  0.94790  Biso   1.000  C
  C221     1.0000 0.11120  0.76140  0.86230  Biso   1.000  C
  H121     1.0000 0.09830  0.76660  0.88100  Biso   1.000  H
  C222     1.0000 0.16100  0.75930  0.85290  Biso   1.000  C
  H122     1.0000 0.18440  0.76210  0.86510  Biso   1.000  H
  C223     1.0000 0.09520  0.75160  0.81820  Biso   1.000  C
  H123     1.0000 0.07190  0.74930  0.80690  Biso   1.000  H
  C224     1.0000 0.14720  0.75070  0.80800  Biso   1.000  C
  H124     1.0000 0.16070  0.74860  0.79000  Biso   1.000  H
  C225     1.0000 0.11340  0.74520  0.78990  Biso   1.000  C
  C226     1.0000 0.09620  0.73180  0.74220  Biso   1.000  C
  C227     1.0000 0.06710  0.68320  0.72620  Biso   1.000  C
  H125     1.0000 0.05740  0.65610  0.74560  Biso   1.000  H
  C228     1.0000 0.05270  0.67500  0.68200  Biso   1.000  C
  H126     1.0000 0.03290  0.64140  0.66980  Biso   1.000  H
  C229     1.0000 0.06800  0.71750  0.65500  Biso   1.000  C
  C230     1.0000 0.05290  0.71780  0.60660  Biso   1.000  C
  C231     1.0000 0.03570  0.64340  0.58390  Biso   1.000  C
  H127     1.0000 0.03410  0.58890  0.59900  Biso   1.000  H
  C232     1.0000 0.05430  0.79560  0.58260  Biso   1.000  C
  H128     1.0000 0.06640  0.84760  0.59670  Biso   1.000  H
  C233     1.0000 0.02100  0.64900  0.53900  Biso   1.000  C
  H129     1.0000 0.01010  0.59640  0.52380  Biso   1.000  H
  C234     1.0000 0.03750  0.79570  0.53780  Biso   1.000  C
  H130     1.0000 0.03790  0.85050  0.52220  Biso   1.000  H
  N97      1.0000 0.13190  0.86650  0.95240  Biso   1.000  N
  N98      1.0000 0.13620  0.66460  0.95870  Biso   1.000  N
  N99      1.0000 0.20020  0.66850  0.94390  Biso   1.000  N
  N100     1.0000 0.19910  0.87580  0.94430  Biso   1.000  N
  N101     1.0000 0.14382  0.76400  0.88040  Biso   1.000  N
  N102     1.0000 0.11090  0.76870  0.71550  Biso   1.000  N
  N103     1.0000 0.09620  0.76130  0.67160  Biso   1.000  N
  N104     1.0000 0.02120  0.72580  0.51520  Biso   1.000  N
  Fe13     1.0000 0.16724  0.76914  0.95015  Biso   1.000  Fe
  Au25     1.0000 0.07886  0.01581  0.94693  Biso   1.000  Au
  Au26     1.0000 0.08328  0.51568  0.95544  Biso   1.000  Au
  Au27     1.0000 0.24909  0.50888  0.94777  Biso   1.000  Au
  C235     1.0000 0.61130  0.42130  0.95090  Biso   1.000  C
  C236     1.0000 0.61720  0.10690  0.95900  Biso   1.000  C
  C237     1.0000 0.71780  0.10700  0.94370  Biso   1.000  C
  C238     1.0000 0.71940  0.43190  0.94790  Biso   1.000  C
  C239     1.0000 0.61120  0.26140  0.86230  Biso   1.000  C
  H131     1.0000 0.59830  0.26660  0.88100  Biso   1.000  H
  C240     1.0000 0.66100  0.25930  0.85290  Biso   1.000  C
  H132     1.0000 0.68440  0.26210  0.86510  Biso   1.000  H
  C241     1.0000 0.59520  0.25160  0.81820  Biso   1.000  C
  H133     1.0000 0.57190  0.24930  0.80690  Biso   1.000  H
  C242     1.0000 0.64720  0.25070  0.80800  Biso   1.000  C
  H134     1.0000 0.66070  0.24860  0.79000  Biso   1.000  H
  C243     1.0000 0.61340  0.24520  0.78990  Biso   1.000  C
  C244     1.0000 0.59620  0.23180  0.74220  Biso   1.000  C
  C245     1.0000 0.56710  0.18320  0.72620  Biso   1.000  C
  H135     1.0000 0.55740  0.15610  0.74560  Biso   1.000  H
  C246     1.0000 0.55270  0.17500  0.68200  Biso   1.000  C
  H136     1.0000 0.53290  0.14140  0.66980  Biso   1.000  H
  C247     1.0000 0.56800  0.21750  0.65500  Biso   1.000  C
  C248     1.0000 0.55290  0.21780  0.60660  Biso   1.000  C
  C249     1.0000 0.53570  0.14340  0.58390  Biso   1.000  C
  H137     1.0000 0.53410  0.08890  0.59900  Biso   1.000  H
  C250     1.0000 0.55430  0.29560  0.58260  Biso   1.000  C
  H138     1.0000 0.56640  0.34760  0.59670  Biso   1.000  H
  C251     1.0000 0.52100  0.14900  0.53900  Biso   1.000  C
  H139     1.0000 0.51010  0.09640  0.52380  Biso   1.000  H
  C252     1.0000 0.53750  0.29570  0.53780  Biso   1.000  C
  H140     1.0000 0.53790  0.35050  0.52220  Biso   1.000  H
  N105     1.0000 0.63190  0.36650  0.95240  Biso   1.000  N
  N106     1.0000 0.63620  0.16460  0.95870  Biso   1.000  N
  N107     1.0000 0.70020  0.16850  0.94390  Biso   1.000  N
  N108     1.0000 0.69910  0.37580  0.94430  Biso   1.000  N
  N109     1.0000 0.64382  0.26400  0.88040  Biso   1.000  N
  N110     1.0000 0.61090  0.26870  0.71550  Biso   1.000  N
  N111     1.0000 0.59620  0.26130  0.67160  Biso   1.000  N
  N112     1.0000 0.52120  0.22580  0.51520  Biso   1.000  N
  Fe14     1.0000 0.66724  0.26914  0.95015  Biso   1.000  Fe
  Au28     1.0000 0.57886  0.51581  0.94693  Biso   1.000  Au
  Au29     1.0000 0.58328  0.01568  0.95543  Biso   1.000  Au
  Au30     1.0000 0.74909  0.00888  0.94777  Biso   1.000  Au
  C253     1.0000 0.95240  0.88630  0.45790  Biso   1.000  C
  C254     1.0000 0.04640  0.88200  0.44290  Biso   1.000  C
  C255     1.0000 0.04770  0.57890  0.44710  Biso   1.000  C
  C256     1.0000 0.94650  0.58450  0.44940  Biso   1.000  C
  C257     1.0000 0.88320  0.38490  0.44470  Biso   1.000  C
  C258     1.0000 0.78860  0.38160  0.46050  Biso   1.000  C
  C259     1.0000 0.78300  0.08830  0.45130  Biso   1.000  C
  C260     1.0000 0.88450  0.07720  0.44890  Biso   1.000  C
  C261     1.0000 0.99550  0.73820  0.35630  Biso   1.000  C
  H141     1.0000 0.01870  0.73510  0.36870  Biso   1.000  H
  C262     1.0000 0.94500  0.73910  0.36490  Biso   1.000  C
  H142     1.0000 0.93210  0.73530  0.38360  Biso   1.000  H
  C263     1.0000 0.98140  0.74530  0.31080  Biso   1.000  C
  H143     1.0000 0.99480  0.74470  0.29270  Biso   1.000  H
  C264     1.0000 0.92910  0.74760  0.32050  Biso   1.000  C
  H144     1.0000 0.90570  0.74980  0.30900  Biso   1.000  H
  C265     1.0000 0.94760  0.75310  0.29240  Biso   1.000  C
  C266     1.0000 0.93120  0.76490  0.24450  Biso   1.000  C
  C267     1.0000 0.90170  0.81450  0.22810  Biso   1.000  C
  H145     1.0000 0.89190  0.84170  0.24730  Biso   1.000  H
  C268     1.0000 0.88770  0.82250  0.18380  Biso   1.000  C
  H146     1.0000 0.86780  0.85570  0.17110  Biso   1.000  H
  C269     1.0000 0.90350  0.78050  0.15750  Biso   1.000  C
  C270     1.0000 0.88850  0.78120  0.10910  Biso   1.000  C
  C271     1.0000 0.89050  0.70540  0.08520  Biso   1.000  C
  H147     1.0000 0.90280  0.65380  0.09950  Biso   1.000  H
  C272     1.0000 0.87130  0.85520  0.08600  Biso   1.000  C
  H148     1.0000 0.86950  0.90940  0.10110  Biso   1.000  H
  C273     1.0000 0.87460  0.70400  0.03990  Biso   1.000  C
  H149     1.0000 0.87580  0.64990  0.02430  Biso   1.000  H
  C274     1.0000 0.85670  0.85030  0.04060  Biso   1.000  C
  H150     1.0000 0.84550  0.90250  0.02530  Biso   1.000  H
  C275     1.0000 0.83120  0.23810  0.35790  Biso   1.000  C
  H151     1.0000 0.85450  0.23220  0.37000  Biso   1.000  H
  C276     1.0000 0.78090  0.24060  0.36680  Biso   1.000  C
  H152     1.0000 0.76810  0.23650  0.38570  Biso   1.000  H
  C277     1.0000 0.81700  0.24720  0.31280  Biso   1.000  C
  H153     1.0000 0.83030  0.24850  0.29460  Biso   1.000  H
  C278     1.0000 0.76450  0.24950  0.32280  Biso   1.000  C
  H154     1.0000 0.74120  0.25220  0.31170  Biso   1.000  H
  C279     1.0000 0.78290  0.25450  0.29450  Biso   1.000  C
  C280     1.0000 0.76580  0.26680  0.24650  Biso   1.000  C
  C281     1.0000 0.73640  0.31290  0.23060  Biso   1.000  C
  H155     1.0000 0.72650  0.33800  0.25020  Biso   1.000  H
  C282     1.0000 0.72180  0.32190  0.18660  Biso   1.000  C
  H156     1.0000 0.70140  0.35310  0.17430  Biso   1.000  H
  C283     1.0000 0.73830  0.28270  0.15980  Biso   1.000  C
  C284     1.0000 0.72310  0.28400  0.11150  Biso   1.000  C
  C285     1.0000 0.72760  0.21180  0.08710  Biso   1.000  C
  H157     1.0000 0.74180  0.16280  0.10090  Biso   1.000  H
  C286     1.0000 0.70390  0.35550  0.08870  Biso   1.000  C
  H158     1.0000 0.70090  0.40840  0.10400  Biso   1.000  H
  C287     1.0000 0.71150  0.21060  0.04240  Biso   1.000  C
  H159     1.0000 0.71450  0.15860  0.02660  Biso   1.000  H
  C288     1.0000 0.68910  0.34970  0.04410  Biso   1.000  C
  H160     1.0000 0.67610  0.39980  0.02920  Biso   1.000  H
  N113     1.0000 0.96990  0.82950  0.45590  Biso   1.000  N
  N114     1.0000 0.02997  0.82430  0.44470  Biso   1.000  N
  N115     1.0000 0.02858  0.63340  0.44510  Biso   1.000  N
  N116     1.0000 0.96609  0.63840  0.45110  Biso   1.000  N
  N117     1.0000 0.86647  0.32560  0.44640  Biso   1.000  N
  N118     1.0000 0.80655  0.32830  0.45830  Biso   1.000  N
  N119     1.0000 0.80297  0.14020  0.45330  Biso   1.000  N
  N120     1.0000 0.86540  0.13260  0.44630  Biso   1.000  N
  N121     1.0000 0.97776  0.73580  0.38300  Biso   1.000  N
  N122     1.0000 0.94580  0.72980  0.21800  Biso   1.000  N
  N123     1.0000 0.93140  0.73620  0.17390  Biso   1.000  N
  N124     1.0000 0.85782  0.77420  0.01770  Biso   1.000  N
  N125     1.0000 0.81384  0.23710  0.38530  Biso   1.000  N
  N126     1.0000 0.78100  0.23340  0.22020  Biso   1.000  N
  N127     1.0000 0.76670  0.24030  0.17620  Biso   1.000  N
  N128     1.0000 0.69210  0.27660  0.01990  Biso   1.000  N
  Fe15     1.0000 0.99889  0.73091  0.44910  Biso   1.000  Fe
  Fe16     1.0000 0.83545  0.23131  0.45126  Biso   1.000  Fe
  Au31     1.0000 0.91883  0.98247  0.45547  Biso   1.000  Au
  Au32     1.0000 0.91415  0.48708  0.44742  Biso   1.000  Au
  Au33     1.0000 0.75361  0.47770  0.45653  Biso   1.000  Au
  C289     1.0000 0.45240  0.38630  0.45790  Biso   1.000  C
  C290     1.0000 0.54640  0.38200  0.44290  Biso   1.000  C
  C291     1.0000 0.54770  0.07890  0.44710  Biso   1.000  C
  C292     1.0000 0.44650  0.08450  0.44940  Biso   1.000  C
  C293     1.0000 0.38320  0.88490  0.44470  Biso   1.000  C
  C294     1.0000 0.28860  0.88160  0.46050  Biso   1.000  C
  C295     1.0000 0.28300  0.58830  0.45130  Biso   1.000  C
  C296     1.0000 0.38450  0.57720  0.44890  Biso   1.000  C
  C297     1.0000 0.49550  0.23820  0.35630  Biso   1.000  C
  H161     1.0000 0.51870  0.23510  0.36870  Biso   1.000  H
  C298     1.0000 0.44500  0.23910  0.36490  Biso   1.000  C
  H162     1.0000 0.43210  0.23530  0.38360  Biso   1.000  H
  C299     1.0000 0.48140  0.24530  0.31080  Biso   1.000  C
  H163     1.0000 0.49480  0.24470  0.29270  Biso   1.000  H
  C300     1.0000 0.42910  0.24760  0.32050  Biso   1.000  C
  H164     1.0000 0.40570  0.24980  0.30900  Biso   1.000  H
  C301     1.0000 0.44760  0.25310  0.29240  Biso   1.000  C
  C302     1.0000 0.43120  0.26490  0.24450  Biso   1.000  C
  C303     1.0000 0.40170  0.31450  0.22810  Biso   1.000  C
  H165     1.0000 0.39190  0.34170  0.24730  Biso   1.000  H
  C304     1.0000 0.38770  0.32250  0.18380  Biso   1.000  C
  H166     1.0000 0.36780  0.35570  0.17110  Biso   1.000  H
  C305     1.0000 0.40350  0.28050  0.15750  Biso   1.000  C
  C306     1.0000 0.38850  0.28120  0.10910  Biso   1.000  C
  C307     1.0000 0.39050  0.20540  0.08520  Biso   1.000  C
  H167     1.0000 0.40280  0.15380  0.09950  Biso   1.000  H
  C308     1.0000 0.37130  0.35520  0.08600  Biso   1.000  C
  H168     1.0000 0.36950  0.40940  0.10110  Biso   1.000  H
  C309     1.0000 0.37460  0.20400  0.03990  Biso   1.000  C
  H169     1.0000 0.37580  0.14990  0.02430  Biso   1.000  H
  C310     1.0000 0.35670  0.35030  0.04060  Biso   1.000  C
  H170     1.0000 0.34550  0.40250  0.02530  Biso   1.000  H
  C311     1.0000 0.33120  0.73810  0.35790  Biso   1.000  C
  H171     1.0000 0.35450  0.73220  0.37000  Biso   1.000  H
  C312     1.0000 0.28090  0.74060  0.36680  Biso   1.000  C
  H172     1.0000 0.26810  0.73650  0.38570  Biso   1.000  H
  C313     1.0000 0.31700  0.74720  0.31280  Biso   1.000  C
  H173     1.0000 0.33030  0.74850  0.29460  Biso   1.000  H
  C314     1.0000 0.26450  0.74950  0.32280  Biso   1.000  C
  H174     1.0000 0.24120  0.75220  0.31170  Biso   1.000  H
  C315     1.0000 0.28290  0.75450  0.29450  Biso   1.000  C
  C316     1.0000 0.26580  0.76680  0.24650  Biso   1.000  C
  C317     1.0000 0.23640  0.81290  0.23060  Biso   1.000  C
  H175     1.0000 0.22650  0.83800  0.25020  Biso   1.000  H
  C318     1.0000 0.22180  0.82190  0.18660  Biso   1.000  C
  H176     1.0000 0.20140  0.85310  0.17430  Biso   1.000  H
  C319     1.0000 0.23830  0.78270  0.15980  Biso   1.000  C
  C320     1.0000 0.22310  0.78400  0.11150  Biso   1.000  C
  C321     1.0000 0.22760  0.71180  0.08710  Biso   1.000  C
  H177     1.0000 0.24180  0.66280  0.10090  Biso   1.000  H
  C322     1.0000 0.20390  0.85550  0.08870  Biso   1.000  C
  H178     1.0000 0.20090  0.90840  0.10400  Biso   1.000  H
  C323     1.0000 0.21150  0.71060  0.04240  Biso   1.000  C
  H179     1.0000 0.21450  0.65860  0.02660  Biso   1.000  H
  C324     1.0000 0.18910  0.84970  0.04410  Biso   1.000  C
  H180     1.0000 0.17610  0.89980  0.02920  Biso   1.000  H
  N129     1.0000 0.46990  0.32950  0.45590  Biso   1.000  N
  N130     1.0000 0.52997  0.32430  0.44470  Biso   1.000  N
  N131     1.0000 0.52858  0.13340  0.44510  Biso   1.000  N
  N132     1.0000 0.46609  0.13840  0.45110  Biso   1.000  N
  N133     1.0000 0.36647  0.82560  0.44640  Biso   1.000  N
  N134     1.0000 0.30655  0.82830  0.45830  Biso   1.000  N
  N135     1.0000 0.30297  0.64020  0.45330  Biso   1.000  N
  N136     1.0000 0.36540  0.63260  0.44630  Biso   1.000  N
  N137     1.0000 0.47776  0.23580  0.38300  Biso   1.000  N
  N138     1.0000 0.44580  0.22980  0.21800  Biso   1.000  N
  N139     1.0000 0.43140  0.23620  0.17390  Biso   1.000  N
  N140     1.0000 0.35782  0.27420  0.01770  Biso   1.000  N
  N141     1.0000 0.31384  0.73710  0.38530  Biso   1.000  N
  N142     1.0000 0.28100  0.73340  0.22020  Biso   1.000  N
  N143     1.0000 0.26670  0.74030  0.17620  Biso   1.000  N
  N144     1.0000 0.19210  0.77660  0.01990  Biso   1.000  N
  Fe17     1.0000 0.49889  0.23091  0.44910  Biso   1.000  Fe
  Fe18     1.0000 0.33545  0.73131  0.45126  Biso   1.000  Fe
  Au34     1.0000 0.41883  0.48247  0.45547  Biso   1.000  Au
  Au35     1.0000 0.41415  0.98708  0.44743  Biso   1.000  Au
  Au36     1.0000 0.25361  0.97770  0.45653  Biso   1.000  Au
  C325     1.0000 0.95240  0.11370  0.95790  Biso   1.000  C
  C326     1.0000 0.04640  0.11800  0.94290  Biso   1.000  C
  C327     1.0000 0.04770  0.42110  0.94710  Biso   1.000  C
  C328     1.0000 0.94650  0.41550  0.94940  Biso   1.000  C
  C329     1.0000 0.88320  0.61510  0.94470  Biso   1.000  C
  C330     1.0000 0.78860  0.61840  0.96050  Biso   1.000  C
  C331     1.0000 0.78300  0.91170  0.95130  Biso   1.000  C
  C332     1.0000 0.88450  0.92280  0.94890  Biso   1.000  C
  C333     1.0000 0.99550  0.26180  0.85630  Biso   1.000  C
  H181     1.0000 0.01870  0.26490  0.86870  Biso   1.000  H
  C334     1.0000 0.94500  0.26090  0.86490  Biso   1.000  C
  H182     1.0000 0.93210  0.26470  0.88360  Biso   1.000  H
  C335     1.0000 0.98140  0.25470  0.81080  Biso   1.000  C
  H183     1.0000 0.99480  0.25530  0.79270  Biso   1.000  H
  C336     1.0000 0.92910  0.25240  0.82050  Biso   1.000  C
  H184     1.0000 0.90570  0.25020  0.80900  Biso   1.000  H
  C337     1.0000 0.94760  0.24690  0.79240  Biso   1.000  C
  C338     1.0000 0.93120  0.23510  0.74450  Biso   1.000  C
  C339     1.0000 0.90170  0.18550  0.72810  Biso   1.000  C
  H185     1.0000 0.89190  0.15830  0.74730  Biso   1.000  H
  C340     1.0000 0.88770  0.17750  0.68380  Biso   1.000  C
  H186     1.0000 0.86780  0.14430  0.67110  Biso   1.000  H
  C341     1.0000 0.90350  0.21950  0.65750  Biso   1.000  C
  C342     1.0000 0.88850  0.21880  0.60910  Biso   1.000  C
  C343     1.0000 0.89050  0.29460  0.58520  Biso   1.000  C
  H187     1.0000 0.90280  0.34620  0.59950  Biso   1.000  H
  C344     1.0000 0.87130  0.14480  0.58600  Biso   1.000  C
  H188     1.0000 0.86950  0.09060  0.60110  Biso   1.000  H
  C345     1.0000 0.87460  0.29600  0.53990  Biso   1.000  C
  H189     1.0000 0.87580  0.35010  0.52430  Biso   1.000  H
  C346     1.0000 0.85670  0.14970  0.54060  Biso   1.000  C
  H190     1.0000 0.84550  0.09750  0.52530  Biso   1.000  H
  C347     1.0000 0.83120  0.76190  0.85790  Biso   1.000  C
  H191     1.0000 0.85450  0.76780  0.87000  Biso   1.000  H
  C348     1.0000 0.78090  0.75940  0.86680  Biso   1.000  C
  H192     1.0000 0.76810  0.76350  0.88570  Biso   1.000  H
  C349     1.0000 0.81700  0.75280  0.81280  Biso   1.000  C
  H193     1.0000 0.83030  0.75150  0.79460  Biso   1.000  H
  C350     1.0000 0.76450  0.75050  0.82280  Biso   1.000  C
  H194     1.0000 0.74120  0.74780  0.81170  Biso   1.000  H
  C351     1.0000 0.78290  0.74550  0.79450  Biso   1.000  C
  C352     1.0000 0.76580  0.73320  0.74650  Biso   1.000  C
  C353     1.0000 0.73640  0.68710  0.73060  Biso   1.000  C
  H195     1.0000 0.72650  0.66200  0.75020  Biso   1.000  H
  C354     1.0000 0.72180  0.67810  0.68660  Biso   1.000  C
  H196     1.0000 0.70140  0.64690  0.67430  Biso   1.000  H
  C355     1.0000 0.73830  0.71730  0.65980  Biso   1.000  C
  C356     1.0000 0.72310  0.71600  0.61150  Biso   1.000  C
  C357     1.0000 0.72760  0.78820  0.58710  Biso   1.000  C
  H197     1.0000 0.74180  0.83720  0.60090  Biso   1.000  H
  C358     1.0000 0.70390  0.64450  0.58870  Biso   1.000  C
  H198     1.0000 0.70090  0.59160  0.60400  Biso   1.000  H
  C359     1.0000 0.71150  0.78940  0.54240  Biso   1.000  C
  H199     1.0000 0.71450  0.84140  0.52660  Biso   1.000  H
  C360     1.0000 0.68910  0.65030  0.54410  Biso   1.000  C
  H200     1.0000 0.67610  0.60020  0.52920  Biso   1.000  H
  N145     1.0000 0.96990  0.17050  0.95590  Biso   1.000  N
  N146     1.0000 0.02997  0.17570  0.94470  Biso   1.000  N
  N147     1.0000 0.02858  0.36660  0.94510  Biso   1.000  N
  N148     1.0000 0.96609  0.36160  0.95110  Biso   1.000  N
  N149     1.0000 0.86647  0.67440  0.94640  Biso   1.000  N
  N150     1.0000 0.80655  0.67170  0.95830  Biso   1.000  N
  N151     1.0000 0.80297  0.85980  0.95330  Biso   1.000  N
  N152     1.0000 0.86540  0.86740  0.94630  Biso   1.000  N
  N153     1.0000 0.97776  0.26420  0.88300  Biso   1.000  N
  N154     1.0000 0.94580  0.27020  0.71800  Biso   1.000  N
  N155     1.0000 0.93140  0.26380  0.67390  Biso   1.000  N
  N156     1.0000 0.85782  0.22580  0.51770  Biso   1.000  N
  N157     1.0000 0.81384  0.76290  0.88530  Biso   1.000  N
  N158     1.0000 0.78100  0.76660  0.72020  Biso   1.000  N
  N159     1.0000 0.76670  0.75970  0.67620  Biso   1.000  N
  N160     1.0000 0.69210  0.72340  0.51990  Biso   1.000  N
  Fe19     1.0000 0.99889  0.26909  0.94910  Biso   1.000  Fe
  Fe20     1.0000 0.83545  0.76869  0.95126  Biso   1.000  Fe
  Au37     1.0000 0.91883  0.01753  0.95547  Biso   1.000  Au
  Au38     1.0000 0.91415  0.51292  0.94742  Biso   1.000  Au
  Au39     1.0000 0.75361  0.52230  0.95653  Biso   1.000  Au
  C361     1.0000 0.45240  0.61370  0.95790  Biso   1.000  C
  C362     1.0000 0.54640  0.61800  0.94290  Biso   1.000  C
  C363     1.0000 0.54770  0.92110  0.94710  Biso   1.000  C
  C364     1.0000 0.44650  0.91550  0.94940  Biso   1.000  C
  C365     1.0000 0.38320  0.11510  0.94470  Biso   1.000  C
  C366     1.0000 0.28860  0.11840  0.96050  Biso   1.000  C
  C367     1.0000 0.28300  0.41170  0.95130  Biso   1.000  C
  C368     1.0000 0.38450  0.42280  0.94890  Biso   1.000  C
  C369     1.0000 0.49550  0.76180  0.85630  Biso   1.000  C
  H201     1.0000 0.51870  0.76490  0.86870  Biso   1.000  H
  C370     1.0000 0.44500  0.76090  0.86490  Biso   1.000  C
  H202     1.0000 0.43210  0.76470  0.88360  Biso   1.000  H
  C371     1.0000 0.48140  0.75470  0.81080  Biso   1.000  C
  H203     1.0000 0.49480  0.75530  0.79270  Biso   1.000  H
  C372     1.0000 0.42910  0.75240  0.82050  Biso   1.000  C
  H204     1.0000 0.40570  0.75020  0.80900  Biso   1.000  H
  C373     1.0000 0.44760  0.74690  0.79240  Biso   1.000  C
  C374     1.0000 0.43120  0.73510  0.74450  Biso   1.000  C
  C375     1.0000 0.40170  0.68550  0.72810  Biso   1.000  C
  H205     1.0000 0.39190  0.65830  0.74730  Biso   1.000  H
  C376     1.0000 0.38770  0.67750  0.68380  Biso   1.000  C
  H206     1.0000 0.36780  0.64430  0.67110  Biso   1.000  H
  C377     1.0000 0.40350  0.71950  0.65750  Biso   1.000  C
  C378     1.0000 0.38850  0.71880  0.60910  Biso   1.000  C
  C379     1.0000 0.39050  0.79460  0.58520  Biso   1.000  C
  H207     1.0000 0.40280  0.84620  0.59950  Biso   1.000  H
  C380     1.0000 0.37130  0.64480  0.58600  Biso   1.000  C
  H208     1.0000 0.36950  0.59060  0.60110  Biso   1.000  H
  C381     1.0000 0.37460  0.79600  0.53990  Biso   1.000  C
  H209     1.0000 0.37580  0.85010  0.52430  Biso   1.000  H
  C382     1.0000 0.35670  0.64970  0.54060  Biso   1.000  C
  H210     1.0000 0.34550  0.59750  0.52530  Biso   1.000  H
  C383     1.0000 0.33120  0.26190  0.85790  Biso   1.000  C
  H211     1.0000 0.35450  0.26780  0.87000  Biso   1.000  H
  C384     1.0000 0.28090  0.25940  0.86680  Biso   1.000  C
  H212     1.0000 0.26810  0.26350  0.88570  Biso   1.000  H
  C385     1.0000 0.31700  0.25280  0.81280  Biso   1.000  C
  H213     1.0000 0.33030  0.25150  0.79460  Biso   1.000  H
  C386     1.0000 0.26450  0.25050  0.82280  Biso   1.000  C
  H214     1.0000 0.24120  0.24780  0.81170  Biso   1.000  H
  C387     1.0000 0.28290  0.24550  0.79450  Biso   1.000  C
  C388     1.0000 0.26580  0.23320  0.74650  Biso   1.000  C
  C389     1.0000 0.23640  0.18710  0.73060  Biso   1.000  C
  H215     1.0000 0.22650  0.16200  0.75020  Biso   1.000  H
  C390     1.0000 0.22180  0.17810  0.68660  Biso   1.000  C
  H216     1.0000 0.20140  0.14690  0.67430  Biso   1.000  H
  C391     1.0000 0.23830  0.21730  0.65980  Biso   1.000  C
  C392     1.0000 0.22310  0.21600  0.61150  Biso   1.000  C
  C393     1.0000 0.22760  0.28820  0.58710  Biso   1.000  C
  H217     1.0000 0.24180  0.33720  0.60090  Biso   1.000  H
  C394     1.0000 0.20390  0.14450  0.58870  Biso   1.000  C
  H218     1.0000 0.20090  0.09160  0.60400  Biso   1.000  H
  C395     1.0000 0.21150  0.28940  0.54240  Biso   1.000  C
  H219     1.0000 0.21450  0.34140  0.52660  Biso   1.000  H
  C396     1.0000 0.18910  0.15030  0.54410  Biso   1.000  C
  H220     1.0000 0.17610  0.10020  0.52920  Biso   1.000  H
  N161     1.0000 0.46990  0.67050  0.95590  Biso   1.000  N
  N162     1.0000 0.52997  0.67570  0.94470  Biso   1.000  N
  N163     1.0000 0.52858  0.86660  0.94510  Biso   1.000  N
  N164     1.0000 0.46609  0.86160  0.95110  Biso   1.000  N
  N165     1.0000 0.36647  0.17440  0.94640  Biso   1.000  N
  N166     1.0000 0.30655  0.17170  0.95830  Biso   1.000  N
  N167     1.0000 0.30297  0.35980  0.95330  Biso   1.000  N
  N168     1.0000 0.36540  0.36740  0.94630  Biso   1.000  N
  N169     1.0000 0.47776  0.76420  0.88300  Biso   1.000  N
  N170     1.0000 0.44580  0.77020  0.71800  Biso   1.000  N
  N171     1.0000 0.43140  0.76380  0.67390  Biso   1.000  N
  N172     1.0000 0.35782  0.72580  0.51770  Biso   1.000  N
  N173     1.0000 0.31384  0.26290  0.88530  Biso   1.000  N
  N174     1.0000 0.28100  0.26660  0.72020  Biso   1.000  N
  N175     1.0000 0.26670  0.25970  0.67620  Biso   1.000  N
  N176     1.0000 0.19210  0.22340  0.51990  Biso   1.000  N
  Fe21     1.0000 0.49889  0.76909  0.94910  Biso   1.000  Fe
  Fe22     1.0000 0.33545  0.26869  0.95126  Biso   1.000  Fe
  Au40     1.0000 0.41883  0.51753  0.95547  Biso   1.000  Au
  Au41     1.0000 0.41415  0.01292  0.94743  Biso   1.000  Au
  Au42     1.0000 0.25361  0.02230  0.95653  Biso   1.000  Au
  C397     1.0000 0.11130  0.07870  0.45090  Biso   1.000  C
  C398     1.0000 0.11720  0.39310  0.45900  Biso   1.000  C
  C399     1.0000 0.21780  0.39300  0.44370  Biso   1.000  C
  C400     1.0000 0.21940  0.06810  0.44790  Biso   1.000  C
  C401     1.0000 0.11120  0.23860  0.36230  Biso   1.000  C
  H221     1.0000 0.09830  0.23340  0.38100  Biso   1.000  H
  C402     1.0000 0.16100  0.24070  0.35290  Biso   1.000  C
  H222     1.0000 0.18440  0.23790  0.36510  Biso   1.000  H
  C403     1.0000 0.09520  0.24840  0.31820  Biso   1.000  C
  H223     1.0000 0.07190  0.25070  0.30690  Biso   1.000  H
  C404     1.0000 0.14720  0.24930  0.30800  Biso   1.000  C
  H224     1.0000 0.16070  0.25140  0.29000  Biso   1.000  H
  C405     1.0000 0.11340  0.25480  0.28990  Biso   1.000  C
  C406     1.0000 0.09620  0.26820  0.24220  Biso   1.000  C
  C407     1.0000 0.06710  0.31680  0.22620  Biso   1.000  C
  H225     1.0000 0.05740  0.34390  0.24560  Biso   1.000  H
  C408     1.0000 0.05270  0.32500  0.18200  Biso   1.000  C
  H226     1.0000 0.03290  0.35860  0.16980  Biso   1.000  H
  C409     1.0000 0.06800  0.28250  0.15500  Biso   1.000  C
  C410     1.0000 0.05290  0.28220  0.10660  Biso   1.000  C
  C411     1.0000 0.03570  0.35660  0.08390  Biso   1.000  C
  H227     1.0000 0.03410  0.41110  0.09900  Biso   1.000  H
  C412     1.0000 0.05430  0.20440  0.08260  Biso   1.000  C
  H228     1.0000 0.06640  0.15240  0.09670  Biso   1.000  H
  C413     1.0000 0.02100  0.35100  0.03900  Biso   1.000  C
  H229     1.0000 0.01010  0.40360  0.02380  Biso   1.000  H
  C414     1.0000 0.03750  0.20430  0.03780  Biso   1.000  C
  H230     1.0000 0.03790  0.14950  0.02220  Biso   1.000  H
  N177     1.0000 0.13190  0.13350  0.45240  Biso   1.000  N
  N178     1.0000 0.13620  0.33540  0.45870  Biso   1.000  N
  N179     1.0000 0.20020  0.33150  0.44390  Biso   1.000  N
  N180     1.0000 0.19910  0.12420  0.44430  Biso   1.000  N
  N181     1.0000 0.14382  0.23600  0.38040  Biso   1.000  N
  N182     1.0000 0.11090  0.23130  0.21550  Biso   1.000  N
  N183     1.0000 0.09620  0.23870  0.17160  Biso   1.000  N
  N184     1.0000 0.02120  0.27420  0.01520  Biso   1.000  N
  Fe23     1.0000 0.16724  0.23086  0.45015  Biso   1.000  Fe
  Au43     1.0000 0.07886  0.98419  0.44693  Biso   1.000  Au
  Au44     1.0000 0.08328  0.48432  0.45543  Biso   1.000  Au
  Au45     1.0000 0.24909  0.49112  0.44777  Biso   1.000  Au
  C415     1.0000 0.61130  0.57870  0.45090  Biso   1.000  C
  C416     1.0000 0.61720  0.89310  0.45900  Biso   1.000  C
  C417     1.0000 0.71780  0.89300  0.44370  Biso   1.000  C
  C418     1.0000 0.71940  0.56810  0.44790  Biso   1.000  C
  C419     1.0000 0.61120  0.73860  0.36230  Biso   1.000  C
  H231     1.0000 0.59830  0.73340  0.38100  Biso   1.000  H
  C420     1.0000 0.66100  0.74070  0.35290  Biso   1.000  C
  H232     1.0000 0.68440  0.73790  0.36510  Biso   1.000  H
  C421     1.0000 0.59520  0.74840  0.31820  Biso   1.000  C
  H233     1.0000 0.57190  0.75070  0.30690  Biso   1.000  H
  C422     1.0000 0.64720  0.74930  0.30800  Biso   1.000  C
  H234     1.0000 0.66070  0.75140  0.29000  Biso   1.000  H
  C423     1.0000 0.61340  0.75480  0.28990  Biso   1.000  C
  C424     1.0000 0.59620  0.76820  0.24220  Biso   1.000  C
  C425     1.0000 0.56710  0.81680  0.22620  Biso   1.000  C
  H235     1.0000 0.55740  0.84390  0.24560  Biso   1.000  H
  C426     1.0000 0.55270  0.82500  0.18200  Biso   1.000  C
  H236     1.0000 0.53290  0.85860  0.16980  Biso   1.000  H
  C427     1.0000 0.56800  0.78250  0.15500  Biso   1.000  C
  C428     1.0000 0.55290  0.78220  0.10660  Biso   1.000  C
  C429     1.0000 0.53570  0.85660  0.08390  Biso   1.000  C
  H237     1.0000 0.53410  0.91110  0.09900  Biso   1.000  H
  C430     1.0000 0.55430  0.70440  0.08260  Biso   1.000  C
  H238     1.0000 0.56640  0.65240  0.09670  Biso   1.000  H
  C431     1.0000 0.52100  0.85100  0.03900  Biso   1.000  C
  H239     1.0000 0.51010  0.90360  0.02380  Biso   1.000  H
  C432     1.0000 0.53750  0.70430  0.03780  Biso   1.000  C
  H240     1.0000 0.53790  0.64950  0.02220  Biso   1.000  H
  N185     1.0000 0.63190  0.63350  0.45240  Biso   1.000  N
  N186     1.0000 0.63620  0.83540  0.45870  Biso   1.000  N
  N187     1.0000 0.70020  0.83150  0.44390  Biso   1.000  N
  N188     1.0000 0.69910  0.62420  0.44430  Biso   1.000  N
  N189     1.0000 0.64382  0.73600  0.38040  Biso   1.000  N
  N190     1.0000 0.61090  0.73130  0.21550  Biso   1.000  N
  N191     1.0000 0.59620  0.73870  0.17160  Biso   1.000  N
  N192     1.0000 0.52120  0.77420  0.01520  Biso   1.000  N
  Fe24     1.0000 0.66724  0.73086  0.45015  Biso   1.000  Fe
  Au46     1.0000 0.57886  0.48419  0.44693  Biso   1.000  Au
  Au47     1.0000 0.58328  0.98432  0.45543  Biso   1.000  Au
  Au48     1.0000 0.74909  0.99112  0.44777  Biso   1.000  Au
