data_AXUHEH_clean
_audit_creation_date              2014-07-02
_audit_creation_method            'Materials Studio'
_symmetry_space_group_name_H-M    'P1'
_symmetry_Int_Tables_number       1
_symmetry_cell_setting            triclinic
loop_
_symmetry_equiv_pos_as_xyz
  x,y,z
_cell_length_a                    12.7259
_cell_length_b                    18.7486
_cell_length_c                    36.7932
_cell_angle_alpha                 90.0000
_cell_angle_beta                  90.0000
_cell_angle_gamma                 101.4520
loop_
_atom_site_label
_atom_site_type_symbol
_atom_site_fract_x
_atom_site_fract_y
_atom_site_fract_z
_atom_site_U_iso_or_equiv
_atom_site_adp_type
_atom_site_occupancy
Na1    Na    0.03406   0.01926   0.84611   0.01267  Uiso   1.00
Na2    Na    0.46594   0.48074   0.34611   0.01267  Uiso   1.00
Na3    Na    0.96594   0.98074   0.15389   0.01267  Uiso   1.00
Na4    Na    0.53406   0.51926   0.65389   0.01267  Uiso   1.00
Co1    Co    0.58053   0.82891   0.71069   0.01267  Uiso   1.00
Co2    Co    0.91947   0.67109   0.21069   0.01267  Uiso   1.00
Co3    Co    0.41947   0.17109   0.28931   0.01267  Uiso   1.00
Co4    Co    0.08053   0.32891   0.78931   0.01267  Uiso   1.00
Co5    Co    0.00000   0.00000   0.00000   0.01267  Uiso   1.00
Co6    Co    0.50000   0.50000   0.50000   0.01267  Uiso   1.00
H1     H     0.97800   0.70210   0.79660   0.01267  Uiso   1.00
H2     H     0.29390   0.78370   0.80760   0.01267  Uiso   1.00
H3     H     0.30960   0.02050   0.89890   0.01267  Uiso   1.00
H4     H     0.30170   0.17630   0.82400   0.01267  Uiso   1.00
H5     H     0.27180   0.01900   0.69540   0.01267  Uiso   1.00
H6     H     0.95370   0.94540   0.68560   0.01267  Uiso   1.00
H7     H     0.76540   0.04480   0.80420   0.01267  Uiso   1.00
H8     H     0.77370   0.88520   0.87700   0.01267  Uiso   1.00
H9     H     0.01060   0.84150   0.90810   0.01267  Uiso   1.00
H10    H     0.13710   0.87280   0.91060   0.01267  Uiso   1.00
H11    H     0.45580   0.99010   0.77140   0.01267  Uiso   1.00
H12    H     0.43350   0.92210   0.79860   0.01267  Uiso   1.00
H13    H     0.12380   0.17930   0.77300   0.01267  Uiso   1.00
H14    H     0.99880   0.15520   0.76350   0.01267  Uiso   1.00
H15    H     0.93150   0.78580   0.73680   0.01267  Uiso   1.00
H16    H     0.85040   0.76640   0.77020   0.01267  Uiso   1.00
H17    H     0.31680   0.67670   0.78320   0.01267  Uiso   1.00
H18    H     0.29340   0.65350   0.74170   0.01267  Uiso   1.00
H19    H     0.31360   0.73760   0.75300   0.01267  Uiso   1.00
H20    H     0.14590   0.59190   0.80080   0.01267  Uiso   1.00
H21    H     0.03660   0.59880   0.78090   0.01267  Uiso   1.00
H22    H     0.12880   0.57050   0.75890   0.01267  Uiso   1.00
H23    H     0.12310   0.66430   0.71300   0.01267  Uiso   1.00
H24    H     0.03220   0.69220   0.73590   0.01267  Uiso   1.00
H25    H     0.13930   0.74810   0.72460   0.01267  Uiso   1.00
H26    H     0.16190   0.14720   0.91260   0.01267  Uiso   1.00
H27    H     0.22760   0.09410   0.93260   0.01267  Uiso   1.00
H28    H     0.24220   0.17720   0.94510   0.01267  Uiso   1.00
H29    H     0.46440   0.12260   0.90890   0.01267  Uiso   1.00
H30    H     0.47990   0.20700   0.91930   0.01267  Uiso   1.00
H31    H     0.41060   0.14660   0.94500   0.01267  Uiso   1.00
H32    H     0.40740   0.26270   0.88220   0.01267  Uiso   1.00
H33    H     0.29450   0.24130   0.86180   0.01267  Uiso   1.00
H34    H     0.29890   0.26710   0.90330   0.01267  Uiso   1.00
H35    H     0.25360   0.01360   0.62720   0.01267  Uiso   1.00
H36    H     0.29520   0.95520   0.65230   0.01267  Uiso   1.00
H37    H     0.25190   0.93320   0.61220   0.01267  Uiso   1.00
H38    H     0.04140   0.83980   0.66790   0.01267  Uiso   1.00
H39    H     0.12230   0.82860   0.63600   0.01267  Uiso   1.00
H40    H     0.16680   0.84870   0.67620   0.01267  Uiso   1.00
H41    H     0.05870   0.00020   0.61480   0.01267  Uiso   1.00
H42    H     0.05940   0.92120   0.59850   0.01267  Uiso   1.00
H43    H     0.97680   0.93070   0.63000   0.01267  Uiso   1.00
H44    H     0.54820   0.93630   0.86680   0.01267  Uiso   1.00
H45    H     0.62170   0.91390   0.89850   0.01267  Uiso   1.00
H46    H     0.55920   0.97910   0.90470   0.01267  Uiso   1.00
H47    H     0.60520   0.05500   0.83510   0.01267  Uiso   1.00
H48    H     0.61540   0.09500   0.87370   0.01267  Uiso   1.00
H49    H     0.71490   0.10800   0.84620   0.01267  Uiso   1.00
H50    H     0.73290   0.06140   0.92120   0.01267  Uiso   1.00
H51    H     0.79420   0.99570   0.91480   0.01267  Uiso   1.00
H52    H     0.83210   0.07110   0.89370   0.01267  Uiso   1.00
H53    H     0.47500   0.20170   0.04870   0.01267  Uiso   1.00
H54    H     0.90240   0.40480   0.09180   0.01267  Uiso   1.00
H55    H     0.40500   0.02970   0.00560   0.01267  Uiso   1.00
H56    H     0.22960   0.97590   0.99430   0.01267  Uiso   1.00
H57    H     0.12570   0.14650   0.02940   0.01267  Uiso   1.00
H58    H     0.29470   0.20510   0.04310   0.01267  Uiso   1.00
H59    H     0.76550   0.15140   0.00530   0.01267  Uiso   1.00
H60    H     0.92430   0.22820   0.02110   0.01267  Uiso   1.00
H61    H     0.92490   0.31950   0.06350   0.01267  Uiso   1.00
H62    H     0.60240   0.26120   0.07170   0.01267  Uiso   1.00
H63    H     0.69960   0.47690   0.13380   0.01267  Uiso   1.00
H64    H     0.73380   0.57800   0.17050   0.01267  Uiso   1.00
H65    H     0.04250   0.58190   0.16790   0.01267  Uiso   1.00
H66    H     0.01820   0.48550   0.12790   0.01267  Uiso   1.00
H67    H     0.52200   0.79790   0.29660   0.01267  Uiso   1.00
H68    H     0.20610   0.71630   0.30760   0.01267  Uiso   1.00
H69    H     0.19040   0.47950   0.39890   0.01267  Uiso   1.00
H70    H     0.19830   0.32370   0.32400   0.01267  Uiso   1.00
H71    H     0.22820   0.48100   0.19540   0.01267  Uiso   1.00
H72    H     0.54630   0.55460   0.18560   0.01267  Uiso   1.00
H73    H     0.73460   0.45520   0.30420   0.01267  Uiso   1.00
H74    H     0.72630   0.61480   0.37700   0.01267  Uiso   1.00
H75    H     0.48940   0.65850   0.40810   0.01267  Uiso   1.00
H76    H     0.36290   0.62720   0.41060   0.01267  Uiso   1.00
H77    H     0.04420   0.50990   0.27140   0.01267  Uiso   1.00
H78    H     0.06650   0.57790   0.29860   0.01267  Uiso   1.00
H79    H     0.37620   0.32070   0.27300   0.01267  Uiso   1.00
H80    H     0.50120   0.34480   0.26350   0.01267  Uiso   1.00
H81    H     0.56850   0.71420   0.23680   0.01267  Uiso   1.00
H82    H     0.64960   0.73360   0.27020   0.01267  Uiso   1.00
H83    H     0.18320   0.82330   0.28320   0.01267  Uiso   1.00
H84    H     0.20660   0.84650   0.24170   0.01267  Uiso   1.00
H85    H     0.18640   0.76240   0.25300   0.01267  Uiso   1.00
H86    H     0.35410   0.90810   0.30080   0.01267  Uiso   1.00
H87    H     0.46340   0.90120   0.28090   0.01267  Uiso   1.00
H88    H     0.37120   0.92950   0.25890   0.01267  Uiso   1.00
H89    H     0.37690   0.83570   0.21300   0.01267  Uiso   1.00
H90    H     0.46780   0.80780   0.23590   0.01267  Uiso   1.00
H91    H     0.36070   0.75190   0.22460   0.01267  Uiso   1.00
H92    H     0.33810   0.35280   0.41260   0.01267  Uiso   1.00
H93    H     0.27240   0.40590   0.43260   0.01267  Uiso   1.00
H94    H     0.25780   0.32280   0.44510   0.01267  Uiso   1.00
H95    H     0.03560   0.37740   0.40890   0.01267  Uiso   1.00
H96    H     0.02010   0.29300   0.41930   0.01267  Uiso   1.00
H97    H     0.08940   0.35340   0.44500   0.01267  Uiso   1.00
H98    H     0.09260   0.23730   0.38220   0.01267  Uiso   1.00
H99    H     0.20550   0.25870   0.36180   0.01267  Uiso   1.00
H100   H     0.20110   0.23290   0.40330   0.01267  Uiso   1.00
H101   H     0.24640   0.48640   0.12720   0.01267  Uiso   1.00
H102   H     0.20480   0.54480   0.15230   0.01267  Uiso   1.00
H103   H     0.24810   0.56680   0.11220   0.01267  Uiso   1.00
H104   H     0.45860   0.66020   0.16790   0.01267  Uiso   1.00
H105   H     0.37770   0.67140   0.13600   0.01267  Uiso   1.00
H106   H     0.33320   0.65130   0.17620   0.01267  Uiso   1.00
H107   H     0.44130   0.49980   0.11480   0.01267  Uiso   1.00
H108   H     0.44060   0.57880   0.09850   0.01267  Uiso   1.00
H109   H     0.52320   0.56930   0.13000   0.01267  Uiso   1.00
H110   H     0.95180   0.56370   0.36680   0.01267  Uiso   1.00
H111   H     0.87830   0.58610   0.39850   0.01267  Uiso   1.00
H112   H     0.94080   0.52090   0.40470   0.01267  Uiso   1.00
H113   H     0.89480   0.44500   0.33510   0.01267  Uiso   1.00
H114   H     0.88460   0.40500   0.37370   0.01267  Uiso   1.00
H115   H     0.78510   0.39200   0.34620   0.01267  Uiso   1.00
H116   H     0.76710   0.43860   0.42120   0.01267  Uiso   1.00
H117   H     0.70580   0.50430   0.41480   0.01267  Uiso   1.00
H118   H     0.66790   0.42890   0.39370   0.01267  Uiso   1.00
H119   H     0.02500   0.29830   0.54870   0.01267  Uiso   1.00
H120   H     0.59760   0.09520   0.59180   0.01267  Uiso   1.00
H121   H     0.09500   0.47030   0.50560   0.01267  Uiso   1.00
H122   H     0.27040   0.52410   0.49430   0.01267  Uiso   1.00
H123   H     0.37430   0.35350   0.52940   0.01267  Uiso   1.00
H124   H     0.20530   0.29490   0.54310   0.01267  Uiso   1.00
H125   H     0.73450   0.34860   0.50530   0.01267  Uiso   1.00
H126   H     0.57570   0.27180   0.52110   0.01267  Uiso   1.00
H127   H     0.57510   0.18050   0.56350   0.01267  Uiso   1.00
H128   H     0.89760   0.23880   0.57170   0.01267  Uiso   1.00
H129   H     0.80040   0.02310   0.63380   0.01267  Uiso   1.00
H130   H     0.76620   0.92200   0.67050   0.01267  Uiso   1.00
H131   H     0.45750   0.91810   0.66790   0.01267  Uiso   1.00
H132   H     0.48180   0.01450   0.62790   0.01267  Uiso   1.00
H133   H     0.02200   0.29790   0.20340   0.01267  Uiso   1.00
H134   H     0.70610   0.21630   0.19240   0.01267  Uiso   1.00
H135   H     0.69040   0.97950   0.10110   0.01267  Uiso   1.00
H136   H     0.69830   0.82370   0.17600   0.01267  Uiso   1.00
H137   H     0.72820   0.98100   0.30460   0.01267  Uiso   1.00
H138   H     0.04630   0.05460   0.31440   0.01267  Uiso   1.00
H139   H     0.23460   0.95520   0.19580   0.01267  Uiso   1.00
H140   H     0.22630   0.11480   0.12300   0.01267  Uiso   1.00
H141   H     0.98940   0.15850   0.09190   0.01267  Uiso   1.00
H142   H     0.86290   0.12720   0.08940   0.01267  Uiso   1.00
H143   H     0.54420   0.00990   0.22860   0.01267  Uiso   1.00
H144   H     0.56650   0.07790   0.20140   0.01267  Uiso   1.00
H145   H     0.87620   0.82070   0.22700   0.01267  Uiso   1.00
H146   H     0.00120   0.84480   0.23650   0.01267  Uiso   1.00
H147   H     0.06850   0.21420   0.26320   0.01267  Uiso   1.00
H148   H     0.14960   0.23360   0.22980   0.01267  Uiso   1.00
H149   H     0.68320   0.32330   0.21680   0.01267  Uiso   1.00
H150   H     0.70660   0.34650   0.25830   0.01267  Uiso   1.00
H151   H     0.68640   0.26240   0.24700   0.01267  Uiso   1.00
H152   H     0.85410   0.40810   0.19920   0.01267  Uiso   1.00
H153   H     0.96340   0.40120   0.21910   0.01267  Uiso   1.00
H154   H     0.87120   0.42950   0.24110   0.01267  Uiso   1.00
H155   H     0.87690   0.33570   0.28700   0.01267  Uiso   1.00
H156   H     0.96780   0.30780   0.26410   0.01267  Uiso   1.00
H157   H     0.86070   0.25190   0.27540   0.01267  Uiso   1.00
H158   H     0.83810   0.85280   0.08740   0.01267  Uiso   1.00
H159   H     0.77240   0.90590   0.06740   0.01267  Uiso   1.00
H160   H     0.75780   0.82280   0.05490   0.01267  Uiso   1.00
H161   H     0.53560   0.87740   0.09110   0.01267  Uiso   1.00
H162   H     0.52010   0.79300   0.08070   0.01267  Uiso   1.00
H163   H     0.58940   0.85340   0.05500   0.01267  Uiso   1.00
H164   H     0.59260   0.73730   0.11780   0.01267  Uiso   1.00
H165   H     0.70550   0.75870   0.13820   0.01267  Uiso   1.00
H166   H     0.70110   0.73290   0.09670   0.01267  Uiso   1.00
H167   H     0.74640   0.98640   0.37280   0.01267  Uiso   1.00
H168   H     0.70480   0.04480   0.34770   0.01267  Uiso   1.00
H169   H     0.74810   0.06680   0.38780   0.01267  Uiso   1.00
H170   H     0.95860   0.16020   0.33210   0.01267  Uiso   1.00
H171   H     0.87770   0.17140   0.36400   0.01267  Uiso   1.00
H172   H     0.83320   0.15130   0.32380   0.01267  Uiso   1.00
H173   H     0.94130   0.99980   0.38520   0.01267  Uiso   1.00
H174   H     0.94060   0.07880   0.40150   0.01267  Uiso   1.00
H175   H     0.02320   0.06930   0.37000   0.01267  Uiso   1.00
H176   H     0.45180   0.06370   0.13320   0.01267  Uiso   1.00
H177   H     0.37830   0.08610   0.10150   0.01267  Uiso   1.00
H178   H     0.44080   0.02090   0.09530   0.01267  Uiso   1.00
H179   H     0.39480   0.94500   0.16490   0.01267  Uiso   1.00
H180   H     0.38460   0.90500   0.12630   0.01267  Uiso   1.00
H181   H     0.28510   0.89200   0.15380   0.01267  Uiso   1.00
H182   H     0.26710   0.93860   0.07880   0.01267  Uiso   1.00
H183   H     0.20580   0.00430   0.08520   0.01267  Uiso   1.00
H184   H     0.16790   0.92890   0.10630   0.01267  Uiso   1.00
H185   H     0.52500   0.79830   0.95130   0.01267  Uiso   1.00
H186   H     0.09760   0.59520   0.90820   0.01267  Uiso   1.00
H187   H     0.59500   0.97030   0.99440   0.01267  Uiso   1.00
H188   H     0.77040   0.02410   0.00570   0.01267  Uiso   1.00
H189   H     0.87430   0.85350   0.97060   0.01267  Uiso   1.00
H190   H     0.70530   0.79490   0.95690   0.01267  Uiso   1.00
H191   H     0.23450   0.84860   0.99470   0.01267  Uiso   1.00
H192   H     0.07570   0.77180   0.97890   0.01267  Uiso   1.00
H193   H     0.07510   0.68050   0.93650   0.01267  Uiso   1.00
H194   H     0.39760   0.73880   0.92830   0.01267  Uiso   1.00
H195   H     0.30040   0.52310   0.86620   0.01267  Uiso   1.00
H196   H     0.26620   0.42200   0.82950   0.01267  Uiso   1.00
H197   H     0.95750   0.41810   0.83210   0.01267  Uiso   1.00
H198   H     0.98180   0.51450   0.87210   0.01267  Uiso   1.00
H199   H     0.47800   0.20210   0.70340   0.01267  Uiso   1.00
H200   H     0.79390   0.28370   0.69240   0.01267  Uiso   1.00
H201   H     0.80960   0.52050   0.60110   0.01267  Uiso   1.00
H202   H     0.80170   0.67630   0.67600   0.01267  Uiso   1.00
H203   H     0.77180   0.51900   0.80460   0.01267  Uiso   1.00
H204   H     0.45370   0.44540   0.81440   0.01267  Uiso   1.00
H205   H     0.26540   0.54480   0.69580   0.01267  Uiso   1.00
H206   H     0.27370   0.38520   0.62300   0.01267  Uiso   1.00
H207   H     0.51060   0.34150   0.59190   0.01267  Uiso   1.00
H208   H     0.63710   0.37280   0.58940   0.01267  Uiso   1.00
H209   H     0.95580   0.49010   0.72860   0.01267  Uiso   1.00
H210   H     0.93350   0.42210   0.70140   0.01267  Uiso   1.00
H211   H     0.62380   0.67930   0.72700   0.01267  Uiso   1.00
H212   H     0.49880   0.65520   0.73650   0.01267  Uiso   1.00
H213   H     0.43150   0.28580   0.76320   0.01267  Uiso   1.00
H214   H     0.35040   0.26640   0.72980   0.01267  Uiso   1.00
H215   H     0.81680   0.17670   0.71680   0.01267  Uiso   1.00
H216   H     0.79340   0.15350   0.75830   0.01267  Uiso   1.00
H217   H     0.81360   0.23760   0.74700   0.01267  Uiso   1.00
H218   H     0.64590   0.09190   0.69920   0.01267  Uiso   1.00
H219   H     0.53660   0.09880   0.71910   0.01267  Uiso   1.00
H220   H     0.62880   0.07050   0.74110   0.01267  Uiso   1.00
H221   H     0.62310   0.16430   0.78700   0.01267  Uiso   1.00
H222   H     0.53220   0.19220   0.76410   0.01267  Uiso   1.00
H223   H     0.63930   0.24810   0.77540   0.01267  Uiso   1.00
H224   H     0.66190   0.64720   0.58740   0.01267  Uiso   1.00
H225   H     0.72760   0.59410   0.56740   0.01267  Uiso   1.00
H226   H     0.74220   0.67720   0.55490   0.01267  Uiso   1.00
H227   H     0.96440   0.62260   0.59110   0.01267  Uiso   1.00
H228   H     0.97990   0.70700   0.58070   0.01267  Uiso   1.00
H229   H     0.91060   0.64660   0.55500   0.01267  Uiso   1.00
H230   H     0.90740   0.76270   0.61780   0.01267  Uiso   1.00
H231   H     0.79450   0.74130   0.63820   0.01267  Uiso   1.00
H232   H     0.79890   0.76710   0.59670   0.01267  Uiso   1.00
H233   H     0.75360   0.51360   0.87280   0.01267  Uiso   1.00
H234   H     0.79520   0.45520   0.84770   0.01267  Uiso   1.00
H235   H     0.75190   0.43320   0.88780   0.01267  Uiso   1.00
H236   H     0.54140   0.33980   0.83210   0.01267  Uiso   1.00
H237   H     0.62230   0.32860   0.86400   0.01267  Uiso   1.00
H238   H     0.66680   0.34870   0.82380   0.01267  Uiso   1.00
H239   H     0.55870   0.50020   0.88520   0.01267  Uiso   1.00
H240   H     0.55940   0.42120   0.90150   0.01267  Uiso   1.00
H241   H     0.47680   0.43070   0.87000   0.01267  Uiso   1.00
H242   H     0.04820   0.43630   0.63320   0.01267  Uiso   1.00
H243   H     0.12170   0.41390   0.60150   0.01267  Uiso   1.00
H244   H     0.05920   0.47910   0.59530   0.01267  Uiso   1.00
H245   H     0.10520   0.55500   0.66490   0.01267  Uiso   1.00
H246   H     0.11540   0.59500   0.62630   0.01267  Uiso   1.00
H247   H     0.21490   0.60800   0.65380   0.01267  Uiso   1.00
H248   H     0.23290   0.56140   0.57880   0.01267  Uiso   1.00
H249   H     0.29420   0.49570   0.58520   0.01267  Uiso   1.00
H250   H     0.33210   0.57110   0.60630   0.01267  Uiso   1.00
H251   H     0.97500   0.70170   0.45130   0.01267  Uiso   1.00
H252   H     0.40240   0.90480   0.40820   0.01267  Uiso   1.00
H253   H     0.90500   0.52970   0.49440   0.01267  Uiso   1.00
H254   H     0.72960   0.47590   0.50570   0.01267  Uiso   1.00
H255   H     0.62570   0.64650   0.47060   0.01267  Uiso   1.00
H256   H     0.79470   0.70510   0.45690   0.01267  Uiso   1.00
H257   H     0.26550   0.65140   0.49470   0.01267  Uiso   1.00
H258   H     0.42430   0.72820   0.47890   0.01267  Uiso   1.00
H259   H     0.42490   0.81950   0.43650   0.01267  Uiso   1.00
H260   H     0.10240   0.76120   0.42830   0.01267  Uiso   1.00
H261   H     0.19960   0.97690   0.36620   0.01267  Uiso   1.00
H262   H     0.23380   0.07800   0.32950   0.01267  Uiso   1.00
H263   H     0.54250   0.08190   0.33210   0.01267  Uiso   1.00
H264   H     0.51820   0.98550   0.37210   0.01267  Uiso   1.00
C1     C     0.09407   0.84287   0.84388   0.01267  Uiso   1.00
C2     C     0.01078   0.79108   0.82938   0.01267  Uiso   1.00
C3     C     0.03502   0.73772   0.80614   0.01267  Uiso   1.00
C4     C     0.14023   0.73493   0.79648   0.01267  Uiso   1.00
C5     C     0.22130   0.78540   0.81282   0.01267  Uiso   1.00
C6     C     0.19908   0.83828   0.83651   0.01267  Uiso   1.00
C7     C     0.30084   0.00414   0.81075   0.01267  Uiso   1.00
C8     C     0.30233   0.98343   0.84691   0.01267  Uiso   1.00
C9     C     0.30810   0.03540   0.87423   0.01267  Uiso   1.00
C10    C     0.31160   0.10830   0.86656   0.01267  Uiso   1.00
C11    C     0.30340   0.12730   0.83010   0.01267  Uiso   1.00
C12    C     0.29770   0.07630   0.80261   0.01267  Uiso   1.00
C13    C     0.08096   0.04446   0.75059   0.01267  Uiso   1.00
C14    C     0.18423   0.04963   0.73694   0.01267  Uiso   1.00
C15    C     0.20070   0.01580   0.70414   0.01267  Uiso   1.00
C16    C     0.11570   0.97770   0.68410   0.01267  Uiso   1.00
C17    C     0.01310   0.97260   0.69845   0.01267  Uiso   1.00
C18    C     0.99526   0.00566   0.73049   0.01267  Uiso   1.00
C19    C     0.86796   0.89986   0.79423   0.01267  Uiso   1.00
C20    C     0.84015   0.96615   0.78580   0.01267  Uiso   1.00
C21    C     0.78390   0.99980   0.81062   0.01267  Uiso   1.00
C22    C     0.75370   0.97000   0.84461   0.01267  Uiso   1.00
C23    C     0.78880   0.90560   0.85346   0.01267  Uiso   1.00
C24    C     0.84499   0.87079   0.82895   0.01267  Uiso   1.00
C25    C     0.06780   0.88440   0.90297   0.01267  Uiso   1.00
C26    C     0.04740   0.94810   0.92405   0.01267  Uiso   1.00
C27    C     0.40740   0.94290   0.77639   0.01267  Uiso   1.00
C28    C     0.41190   0.89180   0.74474   0.01267  Uiso   1.00
C29    C     0.05471   0.14981   0.78138   0.01267  Uiso   1.00
C30    C     0.02640   0.17640   0.81792   0.01267  Uiso   1.00
C31    C     0.87670   0.80350   0.75145   0.01267  Uiso   1.00
C32    C     0.78446   0.81166   0.72705   0.01267  Uiso   1.00
C33    C     0.16290   0.68130   0.76721   0.01267  Uiso   1.00
C34    C     0.28230   0.68790   0.76070   0.01267  Uiso   1.00
C35    C     0.11430   0.60380   0.77789   0.01267  Uiso   1.00
C36    C     0.10970   0.69800   0.73208   0.01267  Uiso   1.00
C37    C     0.32210   0.16540   0.89678   0.01267  Uiso   1.00
C38    C     0.23010   0.14400   0.92430   0.01267  Uiso   1.00
C39    C     0.43010   0.15990   0.91980   0.01267  Uiso   1.00
C40    C     0.33150   0.24020   0.88510   0.01267  Uiso   1.00
C41    C     0.13040   0.93710   0.64877   0.01267  Uiso   1.00
C42    C     0.24280   0.96200   0.63381   0.01267  Uiso   1.00
C43    C     0.11370   0.85630   0.65804   0.01267  Uiso   1.00
C44    C     0.04920   0.94830   0.62056   0.01267  Uiso   1.00
C45    C     0.69320   0.00870   0.87199   0.01267  Uiso   1.00
C46    C     0.59700   0.95470   0.88683   0.01267  Uiso   1.00
C47    C     0.65370   0.07230   0.85527   0.01267  Uiso   1.00
C48    C     0.77010   0.03680   0.90324   0.01267  Uiso   1.00
C49    C     0.34900   0.05490   0.01089   0.01267  Uiso   1.00
C50    C     0.24390   0.02360   0.00426   0.01267  Uiso   1.00
C51    C     0.18340   0.12240   0.02476   0.01267  Uiso   1.00
C52    C     0.28350   0.15780   0.03271   0.01267  Uiso   1.00
C53    C     0.37140   0.12510   0.02566   0.01267  Uiso   1.00
C54    C     0.56840   0.14840   0.02391   0.01267  Uiso   1.00
C55    C     0.66800   0.19920   0.03629   0.01267  Uiso   1.00
C56    C     0.76440   0.18980   0.02210   0.01267  Uiso   1.00
C57    C     0.85880   0.23480   0.03167   0.01267  Uiso   1.00
C58    C     0.85910   0.28910   0.05641   0.01267  Uiso   1.00
C59    C     0.76150   0.30000   0.07137   0.01267  Uiso   1.00
C60    C     0.66830   0.25470   0.06133   0.01267  Uiso   1.00
C61    C     0.75540   0.35890   0.09758   0.01267  Uiso   1.00
C62    C     0.85550   0.46960   0.12691   0.01267  Uiso   1.00
C63    C     0.77150   0.49830   0.14010   0.01267  Uiso   1.00
C64    C     0.79270   0.55800   0.16240   0.01267  Uiso   1.00
C65    C     0.97170   0.56080   0.16040   0.01267  Uiso   1.00
C66    C     0.95790   0.50270   0.13704   0.01267  Uiso   1.00
C67    C     0.40593   0.65713   0.34388   0.01267  Uiso   1.00
C68    C     0.48922   0.70892   0.32938   0.01267  Uiso   1.00
C69    C     0.46498   0.76228   0.30614   0.01267  Uiso   1.00
C70    C     0.35977   0.76507   0.29648   0.01267  Uiso   1.00
C71    C     0.27870   0.71460   0.31282   0.01267  Uiso   1.00
C72    C     0.30092   0.66172   0.33651   0.01267  Uiso   1.00
C73    C     0.19916   0.49586   0.31075   0.01267  Uiso   1.00
C74    C     0.19767   0.51657   0.34691   0.01267  Uiso   1.00
C75    C     0.19190   0.46460   0.37423   0.01267  Uiso   1.00
C76    C     0.18840   0.39170   0.36656   0.01267  Uiso   1.00
C77    C     0.19660   0.37270   0.33010   0.01267  Uiso   1.00
C78    C     0.20230   0.42370   0.30261   0.01267  Uiso   1.00
C79    C     0.41904   0.45554   0.25059   0.01267  Uiso   1.00
C80    C     0.31577   0.45037   0.23694   0.01267  Uiso   1.00
C81    C     0.29930   0.48420   0.20414   0.01267  Uiso   1.00
C82    C     0.38430   0.52230   0.18410   0.01267  Uiso   1.00
C83    C     0.48690   0.52740   0.19845   0.01267  Uiso   1.00
C84    C     0.50474   0.49434   0.23049   0.01267  Uiso   1.00
C85    C     0.63204   0.60014   0.29423   0.01267  Uiso   1.00
C86    C     0.65985   0.53385   0.28580   0.01267  Uiso   1.00
C87    C     0.71610   0.50020   0.31062   0.01267  Uiso   1.00
C88    C     0.74630   0.53000   0.34461   0.01267  Uiso   1.00
C89    C     0.71120   0.59440   0.35346   0.01267  Uiso   1.00
C90    C     0.65501   0.62921   0.32895   0.01267  Uiso   1.00
C91    C     0.43220   0.61560   0.40297   0.01267  Uiso   1.00
C92    C     0.45260   0.55190   0.42405   0.01267  Uiso   1.00
C93    C     0.09260   0.55710   0.27639   0.01267  Uiso   1.00
C94    C     0.08810   0.60820   0.24474   0.01267  Uiso   1.00
C95    C     0.44529   0.35019   0.28138   0.01267  Uiso   1.00
C96    C     0.47360   0.32360   0.31792   0.01267  Uiso   1.00
C97    C     0.62330   0.69650   0.25145   0.01267  Uiso   1.00
C98    C     0.71554   0.68834   0.22705   0.01267  Uiso   1.00
C99    C     0.33710   0.81870   0.26721   0.01267  Uiso   1.00
C100   C     0.21770   0.81210   0.26070   0.01267  Uiso   1.00
C101   C     0.38570   0.89620   0.27789   0.01267  Uiso   1.00
C102   C     0.39030   0.80200   0.23208   0.01267  Uiso   1.00
C103   C     0.17790   0.33460   0.39678   0.01267  Uiso   1.00
C104   C     0.26990   0.35600   0.42430   0.01267  Uiso   1.00
C105   C     0.06990   0.34010   0.41980   0.01267  Uiso   1.00
C106   C     0.16850   0.25980   0.38510   0.01267  Uiso   1.00
C107   C     0.36960   0.56290   0.14877   0.01267  Uiso   1.00
C108   C     0.25720   0.53800   0.13381   0.01267  Uiso   1.00
C109   C     0.38630   0.64370   0.15804   0.01267  Uiso   1.00
C110   C     0.45080   0.55170   0.12056   0.01267  Uiso   1.00
C111   C     0.80680   0.49130   0.37199   0.01267  Uiso   1.00
C112   C     0.90300   0.54530   0.38683   0.01267  Uiso   1.00
C113   C     0.84630   0.42770   0.35527   0.01267  Uiso   1.00
C114   C     0.72990   0.46320   0.40324   0.01267  Uiso   1.00
C115   C     0.15100   0.44510   0.51089   0.01267  Uiso   1.00
C116   C     0.25610   0.47640   0.50426   0.01267  Uiso   1.00
C117   C     0.31660   0.37760   0.52476   0.01267  Uiso   1.00
C118   C     0.21650   0.34220   0.53271   0.01267  Uiso   1.00
C119   C     0.12860   0.37490   0.52566   0.01267  Uiso   1.00
C120   C     0.93160   0.35160   0.52391   0.01267  Uiso   1.00
C121   C     0.83200   0.30080   0.53629   0.01267  Uiso   1.00
C122   C     0.73560   0.31020   0.52210   0.01267  Uiso   1.00
C123   C     0.64120   0.26520   0.53167   0.01267  Uiso   1.00
C124   C     0.64090   0.21090   0.55641   0.01267  Uiso   1.00
C125   C     0.73850   0.20000   0.57137   0.01267  Uiso   1.00
C126   C     0.83170   0.24530   0.56133   0.01267  Uiso   1.00
C127   C     0.74460   0.14110   0.59758   0.01267  Uiso   1.00
C128   C     0.64450   0.03040   0.62691   0.01267  Uiso   1.00
C129   C     0.72850   0.00170   0.64010   0.01267  Uiso   1.00
C130   C     0.70730   0.94200   0.66240   0.01267  Uiso   1.00
C131   C     0.52830   0.93920   0.66040   0.01267  Uiso   1.00
C132   C     0.54210   0.99730   0.63704   0.01267  Uiso   1.00
C133   C     0.90593   0.15713   0.15612   0.01267  Uiso   1.00
C134   C     0.98922   0.20892   0.17062   0.01267  Uiso   1.00
C135   C     0.96498   0.26228   0.19386   0.01267  Uiso   1.00
C136   C     0.85977   0.26507   0.20352   0.01267  Uiso   1.00
C137   C     0.77870   0.21460   0.18718   0.01267  Uiso   1.00
C138   C     0.80092   0.16172   0.16349   0.01267  Uiso   1.00
C139   C     0.69916   0.99586   0.18925   0.01267  Uiso   1.00
C140   C     0.69767   0.01657   0.15309   0.01267  Uiso   1.00
C141   C     0.69190   0.96460   0.12577   0.01267  Uiso   1.00
C142   C     0.68840   0.89170   0.13344   0.01267  Uiso   1.00
C143   C     0.69660   0.87270   0.16990   0.01267  Uiso   1.00
C144   C     0.70230   0.92370   0.19739   0.01267  Uiso   1.00
C145   C     0.91904   0.95554   0.24941   0.01267  Uiso   1.00
C146   C     0.81577   0.95037   0.26306   0.01267  Uiso   1.00
C147   C     0.79930   0.98420   0.29586   0.01267  Uiso   1.00
C148   C     0.88430   0.02230   0.31590   0.01267  Uiso   1.00
C149   C     0.98690   0.02740   0.30155   0.01267  Uiso   1.00
C150   C     0.00474   0.99434   0.26951   0.01267  Uiso   1.00
C151   C     0.13204   0.10014   0.20577   0.01267  Uiso   1.00
C152   C     0.15985   0.03385   0.21420   0.01267  Uiso   1.00
C153   C     0.21610   0.00020   0.18938   0.01267  Uiso   1.00
C154   C     0.24630   0.03000   0.15539   0.01267  Uiso   1.00
C155   C     0.21120   0.09440   0.14654   0.01267  Uiso   1.00
C156   C     0.15501   0.12921   0.17105   0.01267  Uiso   1.00
C157   C     0.93220   0.11560   0.09703   0.01267  Uiso   1.00
C158   C     0.95260   0.05190   0.07595   0.01267  Uiso   1.00
C159   C     0.59260   0.05710   0.22361   0.01267  Uiso   1.00
C160   C     0.58810   0.10820   0.25526   0.01267  Uiso   1.00
C161   C     0.94529   0.85019   0.21862   0.01267  Uiso   1.00
C162   C     0.97360   0.82360   0.18208   0.01267  Uiso   1.00
C163   C     0.12330   0.19650   0.24855   0.01267  Uiso   1.00
C164   C     0.21554   0.18834   0.27295   0.01267  Uiso   1.00
C165   C     0.83710   0.31870   0.23279   0.01267  Uiso   1.00
C166   C     0.71770   0.31210   0.23930   0.01267  Uiso   1.00
C167   C     0.88570   0.39620   0.22211   0.01267  Uiso   1.00
C168   C     0.89030   0.30200   0.26792   0.01267  Uiso   1.00
C169   C     0.67790   0.83460   0.10322   0.01267  Uiso   1.00
C170   C     0.76990   0.85600   0.07570   0.01267  Uiso   1.00
C171   C     0.56990   0.84010   0.08020   0.01267  Uiso   1.00
C172   C     0.66850   0.75980   0.11490   0.01267  Uiso   1.00
C173   C     0.86960   0.06290   0.35123   0.01267  Uiso   1.00
C174   C     0.75720   0.03800   0.36619   0.01267  Uiso   1.00
C175   C     0.88630   0.14370   0.34196   0.01267  Uiso   1.00
C176   C     0.95080   0.05170   0.37944   0.01267  Uiso   1.00
C177   C     0.30680   0.99130   0.12801   0.01267  Uiso   1.00
C178   C     0.40300   0.04530   0.11317   0.01267  Uiso   1.00
C179   C     0.34630   0.92770   0.14473   0.01267  Uiso   1.00
C180   C     0.22990   0.96320   0.09676   0.01267  Uiso   1.00
C181   C     0.65100   0.94510   0.98911   0.01267  Uiso   1.00
C182   C     0.75610   0.97640   0.99574   0.01267  Uiso   1.00
C183   C     0.81660   0.87760   0.97524   0.01267  Uiso   1.00
C184   C     0.71650   0.84220   0.96729   0.01267  Uiso   1.00
C185   C     0.62860   0.87490   0.97434   0.01267  Uiso   1.00
C186   C     0.43160   0.85160   0.97609   0.01267  Uiso   1.00
C187   C     0.33200   0.80080   0.96371   0.01267  Uiso   1.00
C188   C     0.23560   0.81020   0.97790   0.01267  Uiso   1.00
C189   C     0.14120   0.76520   0.96833   0.01267  Uiso   1.00
C190   C     0.14090   0.71090   0.94359   0.01267  Uiso   1.00
C191   C     0.23850   0.70000   0.92863   0.01267  Uiso   1.00
C192   C     0.33170   0.74530   0.93867   0.01267  Uiso   1.00
C193   C     0.24460   0.64110   0.90242   0.01267  Uiso   1.00
C194   C     0.14450   0.53040   0.87309   0.01267  Uiso   1.00
C195   C     0.22850   0.50170   0.85990   0.01267  Uiso   1.00
C196   C     0.20730   0.44200   0.83760   0.01267  Uiso   1.00
C197   C     0.02830   0.43920   0.83960   0.01267  Uiso   1.00
C198   C     0.04210   0.49730   0.86296   0.01267  Uiso   1.00
C199   C     0.59407   0.34287   0.65612   0.01267  Uiso   1.00
C200   C     0.51078   0.29108   0.67062   0.01267  Uiso   1.00
C201   C     0.53502   0.23772   0.69386   0.01267  Uiso   1.00
C202   C     0.64023   0.23493   0.70352   0.01267  Uiso   1.00
C203   C     0.72130   0.28540   0.68718   0.01267  Uiso   1.00
C204   C     0.69908   0.33828   0.66349   0.01267  Uiso   1.00
C205   C     0.80084   0.50414   0.68925   0.01267  Uiso   1.00
C206   C     0.80233   0.48343   0.65309   0.01267  Uiso   1.00
C207   C     0.80810   0.53540   0.62577   0.01267  Uiso   1.00
C208   C     0.81160   0.60830   0.63344   0.01267  Uiso   1.00
C209   C     0.80340   0.62730   0.66990   0.01267  Uiso   1.00
C210   C     0.79770   0.57630   0.69739   0.01267  Uiso   1.00
C211   C     0.58096   0.54446   0.74941   0.01267  Uiso   1.00
C212   C     0.68423   0.54963   0.76306   0.01267  Uiso   1.00
C213   C     0.70070   0.51580   0.79586   0.01267  Uiso   1.00
C214   C     0.61570   0.47770   0.81590   0.01267  Uiso   1.00
C215   C     0.51310   0.47260   0.80155   0.01267  Uiso   1.00
C216   C     0.49526   0.50566   0.76951   0.01267  Uiso   1.00
C217   C     0.36796   0.39986   0.70577   0.01267  Uiso   1.00
C218   C     0.34015   0.46615   0.71420   0.01267  Uiso   1.00
C219   C     0.28390   0.49980   0.68938   0.01267  Uiso   1.00
C220   C     0.25370   0.47000   0.65539   0.01267  Uiso   1.00
C221   C     0.28880   0.40560   0.64654   0.01267  Uiso   1.00
C222   C     0.34499   0.37079   0.67105   0.01267  Uiso   1.00
C223   C     0.56780   0.38440   0.59703   0.01267  Uiso   1.00
C224   C     0.54740   0.44810   0.57595   0.01267  Uiso   1.00
C225   C     0.90740   0.44290   0.72361   0.01267  Uiso   1.00
C226   C     0.91190   0.39180   0.75526   0.01267  Uiso   1.00
C227   C     0.55471   0.64981   0.71862   0.01267  Uiso   1.00
C228   C     0.52640   0.67640   0.68208   0.01267  Uiso   1.00
C229   C     0.37670   0.30350   0.74855   0.01267  Uiso   1.00
C230   C     0.28446   0.31166   0.77295   0.01267  Uiso   1.00
C231   C     0.66290   0.18130   0.73279   0.01267  Uiso   1.00
C232   C     0.78230   0.18790   0.73930   0.01267  Uiso   1.00
C233   C     0.61430   0.10380   0.72211   0.01267  Uiso   1.00
C234   C     0.60970   0.19800   0.76792   0.01267  Uiso   1.00
C235   C     0.82210   0.66540   0.60322   0.01267  Uiso   1.00
C236   C     0.73010   0.64400   0.57570   0.01267  Uiso   1.00
C237   C     0.93010   0.65990   0.58020   0.01267  Uiso   1.00
C238   C     0.83150   0.74020   0.61490   0.01267  Uiso   1.00
C239   C     0.63040   0.43710   0.85123   0.01267  Uiso   1.00
C240   C     0.74280   0.46200   0.86619   0.01267  Uiso   1.00
C241   C     0.61370   0.35630   0.84196   0.01267  Uiso   1.00
C242   C     0.54920   0.44830   0.87944   0.01267  Uiso   1.00
C243   C     0.19320   0.50870   0.62801   0.01267  Uiso   1.00
C244   C     0.09700   0.45470   0.61317   0.01267  Uiso   1.00
C245   C     0.15370   0.57230   0.64473   0.01267  Uiso   1.00
C246   C     0.27010   0.53680   0.59676   0.01267  Uiso   1.00
C247   C     0.84900   0.55490   0.48911   0.01267  Uiso   1.00
C248   C     0.74390   0.52360   0.49574   0.01267  Uiso   1.00
C249   C     0.68340   0.62240   0.47524   0.01267  Uiso   1.00
C250   C     0.78350   0.65780   0.46729   0.01267  Uiso   1.00
C251   C     0.87140   0.62510   0.47434   0.01267  Uiso   1.00
C252   C     0.06840   0.64840   0.47609   0.01267  Uiso   1.00
C253   C     0.16800   0.69920   0.46371   0.01267  Uiso   1.00
C254   C     0.26440   0.68980   0.47790   0.01267  Uiso   1.00
C255   C     0.35880   0.73480   0.46833   0.01267  Uiso   1.00
C256   C     0.35910   0.78910   0.44359   0.01267  Uiso   1.00
C257   C     0.26150   0.80000   0.42863   0.01267  Uiso   1.00
C258   C     0.16830   0.75470   0.43867   0.01267  Uiso   1.00
C259   C     0.25540   0.85890   0.40242   0.01267  Uiso   1.00
C260   C     0.35550   0.96960   0.37309   0.01267  Uiso   1.00
C261   C     0.27150   0.99830   0.35990   0.01267  Uiso   1.00
C262   C     0.29270   0.05800   0.33760   0.01267  Uiso   1.00
C263   C     0.47170   0.06080   0.33960   0.01267  Uiso   1.00
C264   C     0.45790   0.00270   0.36296   0.01267  Uiso   1.00
S1     S     0.30809   0.89318   0.86006   0.01267  Uiso   1.00
S2     S     0.29801   0.10617   0.75708   0.01267  Uiso   1.00
S3     S     0.85981   0.00509   0.74212   0.01267  Uiso   1.00
S4     S     0.87548   0.78640   0.84267   0.01267  Uiso   1.00
S5     S     0.19191   0.60682   0.36006   0.01267  Uiso   1.00
S6     S     0.20199   0.39383   0.25708   0.01267  Uiso   1.00
S7     S     0.64019   0.49491   0.24212   0.01267  Uiso   1.00
S8     S     0.62452   0.71360   0.34267   0.01267  Uiso   1.00
S9     S     0.69191   0.10682   0.13994   0.01267  Uiso   1.00
S10    S     0.70199   0.89383   0.24292   0.01267  Uiso   1.00
S11    S     0.14019   0.99491   0.25788   0.01267  Uiso   1.00
S12    S     0.12452   0.21360   0.15733   0.01267  Uiso   1.00
S13    S     0.80809   0.39318   0.63994   0.01267  Uiso   1.00
S14    S     0.79801   0.60617   0.74292   0.01267  Uiso   1.00
S15    S     0.35981   0.50509   0.75788   0.01267  Uiso   1.00
S16    S     0.37548   0.28640   0.65733   0.01267  Uiso   1.00
N1     N     0.16008   0.05468   0.01067   0.01267  Uiso   1.00
N2     N     0.47240   0.16350   0.03460   0.01267  Uiso   1.00
N3     N     0.84450   0.40990   0.10379   0.01267  Uiso   1.00
N4     N     0.88976   0.58966   0.17335   0.01267  Uiso   1.00
N5     N     0.33992   0.44532   0.51067   0.01267  Uiso   1.00
N6     N     0.02760   0.33650   0.53460   0.01267  Uiso   1.00
N7     N     0.65550   0.09010   0.60379   0.01267  Uiso   1.00
N8     N     0.61024   0.91034   0.67335   0.01267  Uiso   1.00
N9     N     0.83992   0.94532   0.98933   0.01267  Uiso   1.00
N10    N     0.52760   0.83650   0.96540   0.01267  Uiso   1.00
N11    N     0.15550   0.59010   0.89621   0.01267  Uiso   1.00
N12    N     0.11024   0.41034   0.82665   0.01267  Uiso   1.00
N13    N     0.66008   0.55468   0.48933   0.01267  Uiso   1.00
N14    N     0.97240   0.66350   0.46540   0.01267  Uiso   1.00
N15    N     0.34450   0.90990   0.39621   0.01267  Uiso   1.00
N16    N     0.38976   0.08966   0.32665   0.01267  Uiso   1.00
O1     O     0.07042   0.89962   0.86456   0.01267  Uiso   1.00
O2     O     0.05135   0.94025   0.95790   0.01267  Uiso   1.00
O3     O     0.02726   0.00226   0.90784   0.01267  Uiso   1.00
O4     O     0.30161   0.95491   0.78277   0.01267  Uiso   1.00
O5     O     0.49373   0.86253   0.74734   0.01267  Uiso   1.00
O6     O     0.34570   0.88350   0.72058   0.01267  Uiso   1.00
O7     O     0.06313   0.07403   0.78393   0.01267  Uiso   1.00
O8     O     0.02355   0.24405   0.81892   0.01267  Uiso   1.00
O9     O     0.00581   0.13461   0.84371   0.01267  Uiso   1.00
O10    O     0.92604   0.87014   0.76918   0.01267  Uiso   1.00
O11    O     0.70051   0.82161   0.74285   0.01267  Uiso   1.00
O12    O     0.79389   0.80739   0.69397   0.01267  Uiso   1.00
O13    O     0.57280   0.09800   0.00313   0.01267  Uiso   1.00
O14    O     0.66940   0.36180   0.11265   0.01267  Uiso   1.00
O15    O     0.42958   0.60038   0.36456   0.01267  Uiso   1.00
O16    O     0.44865   0.55975   0.45790   0.01267  Uiso   1.00
O17    O     0.47274   0.49774   0.40784   0.01267  Uiso   1.00
O18    O     0.19839   0.54509   0.28277   0.01267  Uiso   1.00
O19    O     0.00627   0.63747   0.24734   0.01267  Uiso   1.00
O20    O     0.15430   0.61650   0.22058   0.01267  Uiso   1.00
O21    O     0.43687   0.42597   0.28393   0.01267  Uiso   1.00
O22    O     0.47645   0.25595   0.31892   0.01267  Uiso   1.00
O23    O     0.49419   0.36539   0.34371   0.01267  Uiso   1.00
O24    O     0.57396   0.62986   0.26918   0.01267  Uiso   1.00
O25    O     0.79949   0.67839   0.24285   0.01267  Uiso   1.00
O26    O     0.70611   0.69261   0.19397   0.01267  Uiso   1.00
O27    O     0.92720   0.40200   0.50313   0.01267  Uiso   1.00
O28    O     0.83060   0.13820   0.61265   0.01267  Uiso   1.00
O29    O     0.92958   0.10038   0.13544   0.01267  Uiso   1.00
O30    O     0.94865   0.05975   0.04210   0.01267  Uiso   1.00
O31    O     0.97274   0.99774   0.09216   0.01267  Uiso   1.00
O32    O     0.69839   0.04509   0.21723   0.01267  Uiso   1.00
O33    O     0.50627   0.13747   0.25266   0.01267  Uiso   1.00
O34    O     0.65430   0.11650   0.27942   0.01267  Uiso   1.00
O35    O     0.93687   0.92597   0.21607   0.01267  Uiso   1.00
O36    O     0.97645   0.75595   0.18108   0.01267  Uiso   1.00
O37    O     0.99419   0.86539   0.15629   0.01267  Uiso   1.00
O38    O     0.07396   0.12986   0.23082   0.01267  Uiso   1.00
O39    O     0.29949   0.17839   0.25715   0.01267  Uiso   1.00
O40    O     0.20611   0.19261   0.30603   0.01267  Uiso   1.00
O41    O     0.42720   0.90200   0.99687   0.01267  Uiso   1.00
O42    O     0.33060   0.63820   0.88735   0.01267  Uiso   1.00
O43    O     0.57042   0.39962   0.63544   0.01267  Uiso   1.00
O44    O     0.55135   0.44025   0.54210   0.01267  Uiso   1.00
O45    O     0.52726   0.50226   0.59216   0.01267  Uiso   1.00
O46    O     0.80161   0.45491   0.71723   0.01267  Uiso   1.00
O47    O     0.99373   0.36253   0.75266   0.01267  Uiso   1.00
O48    O     0.84570   0.38350   0.77942   0.01267  Uiso   1.00
O49    O     0.56313   0.57403   0.71607   0.01267  Uiso   1.00
O50    O     0.52355   0.74405   0.68108   0.01267  Uiso   1.00
O51    O     0.50581   0.63461   0.65629   0.01267  Uiso   1.00
O52    O     0.42604   0.37014   0.73082   0.01267  Uiso   1.00
O53    O     0.20051   0.32161   0.75715   0.01267  Uiso   1.00
O54    O     0.29389   0.30739   0.80603   0.01267  Uiso   1.00
O55    O     0.07280   0.59800   0.49687   0.01267  Uiso   1.00
O56    O     0.16940   0.86180   0.38735   0.01267  Uiso   1.00
