data_image0
_cell_length_a       45.8487
_cell_length_b       45.8487
_cell_length_c       45.8487
_cell_angle_alpha    33.465
_cell_angle_beta     33.465
_cell_angle_gamma    33.465

_symmetry_space_group_name_H-M    "P 1"
_symmetry_int_tables_number       1

loop_
  _symmetry_equiv_pos_as_xyz
  'x, y, z'

loop_
  _atom_site_label
  _atom_site_occupancy
  _atom_site_fract_x
  _atom_site_fract_y
  _atom_site_fract_z
  _atom_site_thermal_displace_type
  _atom_site_B_iso_or_equiv
  _atom_site_type_symbol
  Cu1      1.0000 0.68653  0.24886  0.15644  Biso   1.000  Cu
  O1       1.0000 0.60910  0.27250  0.22130  Biso   1.000  O
  Cu2      1.0000 0.70865  0.14265  0.24505  Biso   1.000  Cu
  O2       1.0000 0.65690  0.22370  0.16760  Biso   1.000  O
  O3       1.0000 0.72040  0.25690  0.15810  Biso   1.000  O
  O4       1.0000 0.76690  0.20980  0.10590  Biso   1.000  O
  C1       1.0000 0.59480  0.23540  0.27570  Biso   1.000  C
  O5       1.0000 0.62680  0.18040  0.29680  Biso   1.000  O
  O6       1.0000 0.78620  0.12060  0.18140  Biso   1.000  O
  O7       1.0000 0.67910  0.13290  0.23990  Biso   1.000  O
  O8       1.0000 0.73400  0.16970  0.23710  Biso   1.000  O
  C2       1.0000 0.65760  0.17360  0.20630  Biso   1.000  C
  C3       1.0000 0.73720  0.21650  0.19630  Biso   1.000  C
  C4       1.0000 0.80100  0.15560  0.12640  Biso   1.000  C
  C5       1.0000 0.53340  0.25880  0.31790  Biso   1.000  C
  C6       1.0000 0.63190  0.16410  0.20800  Biso   1.000  C
  C7       1.0000 0.76630  0.22780  0.18960  Biso   1.000  C
  C8       1.0000 0.86140  0.13340  0.08530  Biso   1.000  C
  H1       1.0000 0.51970  0.23220  0.35770  Biso   1.000  H
  C9       1.0000 0.49750  0.31550  0.30180  Biso   1.000  C
  C10      1.0000 0.61220  0.20180  0.17220  Biso   1.000  C
  H2       1.0000 0.63000  0.12840  0.23700  Biso   1.000  H
  H3       1.0000 0.77000  0.26270  0.15840  Biso   1.000  H
  C11      1.0000 0.78570  0.19130  0.22510  Biso   1.000  C
  C12      1.0000 0.90210  0.07830  0.10080  Biso   1.000  C
  H4       1.0000 0.87250  0.15970  0.04500  Biso   1.000  H
  H5       1.0000 0.51380  0.34060  0.26210  Biso   1.000  H
  C13      1.0000 0.43390  0.34520  0.33850  Biso   1.000  C
  H6       1.0000 0.61790  0.23540  0.14130  Biso   1.000  H
  C14      1.0000 0.58140  0.19830  0.17400  Biso   1.000  C
  H7       1.0000 0.78010  0.15750  0.25640  Biso   1.000  H
  C15      1.0000 0.81580  0.19620  0.22230  Biso   1.000  C
  H8       1.0000 0.88950  0.05260  0.14120  Biso   1.000  H
  C16      1.0000 0.96640  0.05210  0.06090  Biso   1.000  C
  C17      1.0000 0.40110  0.40450  0.31150  Biso   1.000  C
  C18      1.0000 0.56930  0.15150  0.21660  Biso   1.000  C
  C19      1.0000 0.56400  0.24350  0.13080  Biso   1.000  C
  C20      1.0000 0.82890  0.24320  0.17750  Biso   1.000  C
  C21      1.0000 0.83460  0.15050  0.26590  Biso   1.000  C
  C22      1.0000 0.99230  0.08690  0.00020  Biso   1.000  C
  H9       1.0000 0.41960  0.42620  0.27070  Biso   1.000  H
  H10      1.0000 0.58130  0.12040  0.24590  Biso   1.000  H
  C23      1.0000 0.54090  0.14820  0.21850  Biso   1.000  C
  C24      1.0000 0.53300  0.24480  0.13030  Biso   1.000  C
  H11      1.0000 0.57340  0.27450  0.10070  Biso   1.000  H
  C25      1.0000 0.85750  0.24580  0.17680  Biso   1.000  C
  H12      1.0000 0.81830  0.27340  0.14750  Biso   1.000  H
  C26      1.0000 0.86420  0.15080  0.26560  Biso   1.000  C
  H13      1.0000 0.82640  0.11860  0.29620  Biso   1.000  H
  H14      1.0000 0.96910  0.12740  0.98270  Biso   1.000  H
  C27      1.0000 0.52750  0.09830  0.26660  Biso   1.000  C
  C28      1.0000 0.52230  0.19400  0.17640  Biso   1.000  C
  C29      1.0000 0.51070  0.29420  0.08720  Biso   1.000  C
  C30      1.0000 0.86940  0.29800  0.12850  Biso   1.000  C
  C31      1.0000 0.87580  0.19980  0.22030  Biso   1.000  C
  C32      1.0000 0.88550  0.10030  0.31060  Biso   1.000  C
  C33      1.0000 0.53880  0.05250  0.31030  Biso   1.000  C
  H15      1.0000 0.50690  0.10080  0.26440  Biso   1.000  H
  H16      1.0000 0.50250  0.19250  0.17730  Biso   1.000  H
  C34      1.0000 0.52010  0.34020  0.04210  Biso   1.000  C
  H17      1.0000 0.48740  0.29240  0.09290  Biso   1.000  H
  C35      1.0000 0.88810  0.31070  0.12550  Biso   1.000  C
  H18      1.0000 0.86220  0.32390  0.09730  Biso   1.000  H
  H19      1.0000 0.89540  0.20140  0.21960  Biso   1.000  H
  H20      1.0000 0.87280  0.07170  0.34150  Biso   1.000  H
  C36      1.0000 0.91850  0.09150  0.31220  Biso   1.000  C
  H21      1.0000 0.56160  0.04750  0.31200  Biso   1.000  H
  C37      1.0000 0.52010  0.00520  0.35950  Biso   1.000  C
  H22      1.0000 0.54450  0.34180  0.03510  Biso   1.000  H
  C38      1.0000 0.49400  0.39210  0.99920  Biso   1.000  C
  H23      1.0000 0.88960  0.28880  0.15900  Biso   1.000  H
  C39      1.0000 0.90810  0.35790  0.07260  Biso   1.000  C
  C40      1.0000 0.93860  0.03930  0.35900  Biso   1.000  C
  H24      1.0000 0.93150  0.11980  0.28190  Biso   1.000  H
  O9       1.0000 0.49220  0.00940  0.35680  Biso   1.000  O
  O10      1.0000 0.53130  0.96700  0.40280  Biso   1.000  O
  O11      1.0000 0.46490  0.38670  0.00790  Biso   1.000  O
  O12      1.0000 0.50840  0.43240  0.96000  Biso   1.000  O
  O13      1.0000 0.93520  0.35670  0.07360  Biso   1.000  O
  O14      1.0000 0.89430  0.39520  0.03260  Biso   1.000  O
  O15      1.0000 0.92420  0.99900  0.39820  Biso   1.000  O
  O16      1.0000 0.97260  0.03770  0.35240  Biso   1.000  O
  Cu3      1.0000 0.45590  0.95557  0.42535  Biso   1.000  Cu
  Cu4      1.0000 0.50695  0.90475  0.47452  Biso   1.000  Cu
  Cu5      1.0000 0.15644  0.68653  0.24886  Biso   1.000  Cu
  O17      1.0000 0.22130  0.60910  0.27250  Biso   1.000  O
  Cu6      1.0000 0.24505  0.70865  0.14265  Biso   1.000  Cu
  O18      1.0000 0.16760  0.65690  0.22370  Biso   1.000  O
  O19      1.0000 0.15810  0.72040  0.25690  Biso   1.000  O
  O20      1.0000 0.10590  0.76690  0.20980  Biso   1.000  O
  C41      1.0000 0.27570  0.59480  0.23540  Biso   1.000  C
  O21      1.0000 0.29680  0.62680  0.18040  Biso   1.000  O
  O22      1.0000 0.18140  0.78620  0.12060  Biso   1.000  O
  O23      1.0000 0.23990  0.67910  0.13290  Biso   1.000  O
  O24      1.0000 0.23710  0.73400  0.16970  Biso   1.000  O
  C42      1.0000 0.20630  0.65760  0.17360  Biso   1.000  C
  C43      1.0000 0.19630  0.73720  0.21650  Biso   1.000  C
  C44      1.0000 0.12640  0.80100  0.15560  Biso   1.000  C
  C45      1.0000 0.31790  0.53340  0.25880  Biso   1.000  C
  C46      1.0000 0.20800  0.63190  0.16410  Biso   1.000  C
  C47      1.0000 0.18960  0.76630  0.22780  Biso   1.000  C
  C48      1.0000 0.08530  0.86140  0.13340  Biso   1.000  C
  H25      1.0000 0.35770  0.51970  0.23220  Biso   1.000  H
  C49      1.0000 0.30180  0.49750  0.31550  Biso   1.000  C
  C50      1.0000 0.17220  0.61220  0.20180  Biso   1.000  C
  H26      1.0000 0.23700  0.63000  0.12840  Biso   1.000  H
  H27      1.0000 0.15840  0.77000  0.26270  Biso   1.000  H
  C51      1.0000 0.22510  0.78570  0.19130  Biso   1.000  C
  C52      1.0000 0.10080  0.90210  0.07830  Biso   1.000  C
  H28      1.0000 0.04500  0.87250  0.15970  Biso   1.000  H
  H29      1.0000 0.26210  0.51380  0.34060  Biso   1.000  H
  C53      1.0000 0.33850  0.43390  0.34520  Biso   1.000  C
  H30      1.0000 0.14130  0.61790  0.23540  Biso   1.000  H
  C54      1.0000 0.17400  0.58140  0.19830  Biso   1.000  C
  H31      1.0000 0.25640  0.78010  0.15750  Biso   1.000  H
  C55      1.0000 0.22230  0.81580  0.19620  Biso   1.000  C
  H32      1.0000 0.14120  0.88950  0.05260  Biso   1.000  H
  C56      1.0000 0.06090  0.96640  0.05210  Biso   1.000  C
  C57      1.0000 0.31150  0.40110  0.40450  Biso   1.000  C
  C58      1.0000 0.21660  0.56930  0.15150  Biso   1.000  C
  C59      1.0000 0.13080  0.56400  0.24350  Biso   1.000  C
  C60      1.0000 0.17750  0.82890  0.24320  Biso   1.000  C
  C61      1.0000 0.26590  0.83460  0.15050  Biso   1.000  C
  C62      1.0000 0.00020  0.99230  0.08690  Biso   1.000  C
  H33      1.0000 0.27070  0.41960  0.42620  Biso   1.000  H
  H34      1.0000 0.24590  0.58130  0.12040  Biso   1.000  H
  C63      1.0000 0.21850  0.54090  0.14820  Biso   1.000  C
  C64      1.0000 0.13030  0.53300  0.24480  Biso   1.000  C
  H35      1.0000 0.10070  0.57340  0.27450  Biso   1.000  H
  C65      1.0000 0.17680  0.85750  0.24580  Biso   1.000  C
  H36      1.0000 0.14750  0.81830  0.27340  Biso   1.000  H
  C66      1.0000 0.26560  0.86420  0.15080  Biso   1.000  C
  H37      1.0000 0.29620  0.82640  0.11860  Biso   1.000  H
  H38      1.0000 0.98270  0.96910  0.12740  Biso   1.000  H
  C67      1.0000 0.26660  0.52750  0.09830  Biso   1.000  C
  C68      1.0000 0.17640  0.52230  0.19400  Biso   1.000  C
  C69      1.0000 0.08720  0.51070  0.29420  Biso   1.000  C
  C70      1.0000 0.12850  0.86940  0.29800  Biso   1.000  C
  C71      1.0000 0.22030  0.87580  0.19980  Biso   1.000  C
  C72      1.0000 0.31060  0.88550  0.10030  Biso   1.000  C
  C73      1.0000 0.31030  0.53880  0.05250  Biso   1.000  C
  H39      1.0000 0.26440  0.50690  0.10080  Biso   1.000  H
  H40      1.0000 0.17730  0.50250  0.19250  Biso   1.000  H
  C74      1.0000 0.04210  0.52010  0.34020  Biso   1.000  C
  H41      1.0000 0.09290  0.48740  0.29240  Biso   1.000  H
  C75      1.0000 0.12550  0.88810  0.31070  Biso   1.000  C
  H42      1.0000 0.09730  0.86220  0.32390  Biso   1.000  H
  H43      1.0000 0.21960  0.89540  0.20140  Biso   1.000  H
  H44      1.0000 0.34150  0.87280  0.07170  Biso   1.000  H
  C76      1.0000 0.31220  0.91850  0.09150  Biso   1.000  C
  H45      1.0000 0.31200  0.56160  0.04750  Biso   1.000  H
  C77      1.0000 0.35950  0.52010  0.00520  Biso   1.000  C
  H46      1.0000 0.03510  0.54450  0.34180  Biso   1.000  H
  C78      1.0000 0.99920  0.49400  0.39210  Biso   1.000  C
  H47      1.0000 0.15900  0.88960  0.28880  Biso   1.000  H
  C79      1.0000 0.07260  0.90810  0.35790  Biso   1.000  C
  C80      1.0000 0.35900  0.93860  0.03930  Biso   1.000  C
  H48      1.0000 0.28190  0.93150  0.11980  Biso   1.000  H
  O25      1.0000 0.35680  0.49220  0.00940  Biso   1.000  O
  O26      1.0000 0.40280  0.53130  0.96700  Biso   1.000  O
  O27      1.0000 0.00790  0.46490  0.38670  Biso   1.000  O
  O28      1.0000 0.96000  0.50840  0.43240  Biso   1.000  O
  O29      1.0000 0.07360  0.93520  0.35670  Biso   1.000  O
  O30      1.0000 0.03260  0.89430  0.39520  Biso   1.000  O
  O31      1.0000 0.39820  0.92420  0.99900  Biso   1.000  O
  O32      1.0000 0.35240  0.97260  0.03770  Biso   1.000  O
  Cu7      1.0000 0.42535  0.45590  0.95557  Biso   1.000  Cu
  Cu8      1.0000 0.47452  0.50695  0.90475  Biso   1.000  Cu
  Cu9      1.0000 0.24886  0.15644  0.68653  Biso   1.000  Cu
  O33      1.0000 0.27250  0.22130  0.60910  Biso   1.000  O
  Cu10     1.0000 0.14265  0.24505  0.70865  Biso   1.000  Cu
  O34      1.0000 0.22370  0.16760  0.65690  Biso   1.000  O
  O35      1.0000 0.25690  0.15810  0.72040  Biso   1.000  O
  O36      1.0000 0.20980  0.10590  0.76690  Biso   1.000  O
  C81      1.0000 0.23540  0.27570  0.59480  Biso   1.000  C
  O37      1.0000 0.18040  0.29680  0.62680  Biso   1.000  O
  O38      1.0000 0.12060  0.18140  0.78620  Biso   1.000  O
  O39      1.0000 0.13290  0.23990  0.67910  Biso   1.000  O
  O40      1.0000 0.16970  0.23710  0.73400  Biso   1.000  O
  C82      1.0000 0.17360  0.20630  0.65760  Biso   1.000  C
  C83      1.0000 0.21650  0.19630  0.73720  Biso   1.000  C
  C84      1.0000 0.15560  0.12640  0.80100  Biso   1.000  C
  C85      1.0000 0.25880  0.31790  0.53340  Biso   1.000  C
  C86      1.0000 0.16410  0.20800  0.63190  Biso   1.000  C
  C87      1.0000 0.22780  0.18960  0.76630  Biso   1.000  C
  C88      1.0000 0.13340  0.08530  0.86140  Biso   1.000  C
  H49      1.0000 0.23220  0.35770  0.51970  Biso   1.000  H
  C89      1.0000 0.31550  0.30180  0.49750  Biso   1.000  C
  C90      1.0000 0.20180  0.17220  0.61220  Biso   1.000  C
  H50      1.0000 0.12840  0.23700  0.63000  Biso   1.000  H
  H51      1.0000 0.26270  0.15840  0.77000  Biso   1.000  H
  C91      1.0000 0.19130  0.22510  0.78570  Biso   1.000  C
  C92      1.0000 0.07830  0.10080  0.90210  Biso   1.000  C
  H52      1.0000 0.15970  0.04500  0.87250  Biso   1.000  H
  H53      1.0000 0.34060  0.26210  0.51380  Biso   1.000  H
  C93      1.0000 0.34520  0.33850  0.43390  Biso   1.000  C
  H54      1.0000 0.23540  0.14130  0.61790  Biso   1.000  H
  C94      1.0000 0.19830  0.17400  0.58140  Biso   1.000  C
  H55      1.0000 0.15750  0.25640  0.78010  Biso   1.000  H
  C95      1.0000 0.19620  0.22230  0.81580  Biso   1.000  C
  H56      1.0000 0.05260  0.14120  0.88950  Biso   1.000  H
  C96      1.0000 0.05210  0.06090  0.96640  Biso   1.000  C
  C97      1.0000 0.40450  0.31150  0.40110  Biso   1.000  C
  C98      1.0000 0.15150  0.21660  0.56930  Biso   1.000  C
  C99      1.0000 0.24350  0.13080  0.56400  Biso   1.000  C
  C100     1.0000 0.24320  0.17750  0.82890  Biso   1.000  C
  C101     1.0000 0.15050  0.26590  0.83460  Biso   1.000  C
  C102     1.0000 0.08690  0.00020  0.99230  Biso   1.000  C
  H57      1.0000 0.42620  0.27070  0.41960  Biso   1.000  H
  H58      1.0000 0.12040  0.24590  0.58130  Biso   1.000  H
  C103     1.0000 0.14820  0.21850  0.54090  Biso   1.000  C
  C104     1.0000 0.24480  0.13030  0.53300  Biso   1.000  C
  H59      1.0000 0.27450  0.10070  0.57340  Biso   1.000  H
  C105     1.0000 0.24580  0.17680  0.85750  Biso   1.000  C
  H60      1.0000 0.27340  0.14750  0.81830  Biso   1.000  H
  C106     1.0000 0.15080  0.26560  0.86420  Biso   1.000  C
  H61      1.0000 0.11860  0.29620  0.82640  Biso   1.000  H
  H62      1.0000 0.12740  0.98270  0.96910  Biso   1.000  H
  C107     1.0000 0.09830  0.26660  0.52750  Biso   1.000  C
  C108     1.0000 0.19400  0.17640  0.52230  Biso   1.000  C
  C109     1.0000 0.29420  0.08720  0.51070  Biso   1.000  C
  C110     1.0000 0.29800  0.12850  0.86940  Biso   1.000  C
  C111     1.0000 0.19980  0.22030  0.87580  Biso   1.000  C
  C112     1.0000 0.10030  0.31060  0.88550  Biso   1.000  C
  C113     1.0000 0.05250  0.31030  0.53880  Biso   1.000  C
  H63      1.0000 0.10080  0.26440  0.50690  Biso   1.000  H
  H64      1.0000 0.19250  0.17730  0.50250  Biso   1.000  H
  C114     1.0000 0.34020  0.04210  0.52010  Biso   1.000  C
  H65      1.0000 0.29240  0.09290  0.48740  Biso   1.000  H
  C115     1.0000 0.31070  0.12550  0.88810  Biso   1.000  C
  H66      1.0000 0.32390  0.09730  0.86220  Biso   1.000  H
  H67      1.0000 0.20140  0.21960  0.89540  Biso   1.000  H
  H68      1.0000 0.07170  0.34150  0.87280  Biso   1.000  H
  C116     1.0000 0.09150  0.31220  0.91850  Biso   1.000  C
  H69      1.0000 0.04750  0.31200  0.56160  Biso   1.000  H
  C117     1.0000 0.00520  0.35950  0.52010  Biso   1.000  C
  H70      1.0000 0.34180  0.03510  0.54450  Biso   1.000  H
  C118     1.0000 0.39210  0.99920  0.49400  Biso   1.000  C
  H71      1.0000 0.28880  0.15900  0.88960  Biso   1.000  H
  C119     1.0000 0.35790  0.07260  0.90810  Biso   1.000  C
  C120     1.0000 0.03930  0.35900  0.93860  Biso   1.000  C
  H72      1.0000 0.11980  0.28190  0.93150  Biso   1.000  H
  O41      1.0000 0.00940  0.35680  0.49220  Biso   1.000  O
  O42      1.0000 0.96700  0.40280  0.53130  Biso   1.000  O
  O43      1.0000 0.38670  0.00790  0.46490  Biso   1.000  O
  O44      1.0000 0.43240  0.96000  0.50840  Biso   1.000  O
  O45      1.0000 0.35670  0.07360  0.93520  Biso   1.000  O
  O46      1.0000 0.39520  0.03260  0.89430  Biso   1.000  O
  O47      1.0000 0.99900  0.39820  0.92420  Biso   1.000  O
  O48      1.0000 0.03770  0.35240  0.97260  Biso   1.000  O
  Cu11     1.0000 0.95557  0.42535  0.45590  Biso   1.000  Cu
  Cu12     1.0000 0.90475  0.47452  0.50695  Biso   1.000  Cu
  Cu13     1.0000 0.74886  0.18653  0.65644  Biso   1.000  Cu
  O49      1.0000 0.77250  0.10910  0.72130  Biso   1.000  O
  Cu14     1.0000 0.64265  0.20865  0.74505  Biso   1.000  Cu
  O50      1.0000 0.72370  0.15690  0.66760  Biso   1.000  O
  O51      1.0000 0.75690  0.22040  0.65810  Biso   1.000  O
  O52      1.0000 0.70980  0.26690  0.60590  Biso   1.000  O
  C121     1.0000 0.73540  0.09480  0.77570  Biso   1.000  C
  O53      1.0000 0.68040  0.12680  0.79680  Biso   1.000  O
  O54      1.0000 0.62060  0.28620  0.68140  Biso   1.000  O
  O55      1.0000 0.63290  0.17910  0.73990  Biso   1.000  O
  O56      1.0000 0.66970  0.23400  0.73710  Biso   1.000  O
  C122     1.0000 0.67360  0.15760  0.70630  Biso   1.000  C
  C123     1.0000 0.71650  0.23720  0.69630  Biso   1.000  C
  C124     1.0000 0.65560  0.30100  0.62640  Biso   1.000  C
  C125     1.0000 0.75880  0.03340  0.81790  Biso   1.000  C
  C126     1.0000 0.66410  0.13190  0.70800  Biso   1.000  C
  C127     1.0000 0.72780  0.26630  0.68960  Biso   1.000  C
  C128     1.0000 0.63340  0.36140  0.58530  Biso   1.000  C
  H73      1.0000 0.73220  0.01970  0.85770  Biso   1.000  H
  C129     1.0000 0.81550  0.99750  0.80180  Biso   1.000  C
  C130     1.0000 0.70180  0.11220  0.67220  Biso   1.000  C
  H74      1.0000 0.62840  0.13000  0.73700  Biso   1.000  H
  H75      1.0000 0.76270  0.27000  0.65840  Biso   1.000  H
  C131     1.0000 0.69130  0.28570  0.72510  Biso   1.000  C
  C132     1.0000 0.57830  0.40210  0.60080  Biso   1.000  C
  H76      1.0000 0.65970  0.37250  0.54500  Biso   1.000  H
  H77      1.0000 0.84060  0.01380  0.76210  Biso   1.000  H
  C133     1.0000 0.84520  0.93390  0.83850  Biso   1.000  C
  H78      1.0000 0.73540  0.11790  0.64130  Biso   1.000  H
  C134     1.0000 0.69830  0.08140  0.67400  Biso   1.000  C
  H79      1.0000 0.65750  0.28010  0.75640  Biso   1.000  H
  C135     1.0000 0.69620  0.31580  0.72230  Biso   1.000  C
  H80      1.0000 0.55260  0.38950  0.64120  Biso   1.000  H
  C136     1.0000 0.55210  0.46640  0.56090  Biso   1.000  C
  C137     1.0000 0.90450  0.90110  0.81150  Biso   1.000  C
  C138     1.0000 0.65150  0.06930  0.71660  Biso   1.000  C
  C139     1.0000 0.74350  0.06400  0.63080  Biso   1.000  C
  C140     1.0000 0.74320  0.32890  0.67750  Biso   1.000  C
  C141     1.0000 0.65050  0.33460  0.76590  Biso   1.000  C
  C142     1.0000 0.58690  0.49230  0.50020  Biso   1.000  C
  H81      1.0000 0.92620  0.91960  0.77070  Biso   1.000  H
  H82      1.0000 0.62040  0.08130  0.74590  Biso   1.000  H
  C143     1.0000 0.64820  0.04090  0.71850  Biso   1.000  C
  C144     1.0000 0.74480  0.03300  0.63030  Biso   1.000  C
  H83      1.0000 0.77450  0.07340  0.60070  Biso   1.000  H
  C145     1.0000 0.74580  0.35750  0.67680  Biso   1.000  C
  H84      1.0000 0.77340  0.31830  0.64750  Biso   1.000  H
  C146     1.0000 0.65080  0.36420  0.76560  Biso   1.000  C
  H85      1.0000 0.61860  0.32640  0.79620  Biso   1.000  H
  H86      1.0000 0.62740  0.46910  0.48270  Biso   1.000  H
  C147     1.0000 0.59830  0.02750  0.76660  Biso   1.000  C
  C148     1.0000 0.69400  0.02230  0.67640  Biso   1.000  C
  C149     1.0000 0.79420  0.01070  0.58720  Biso   1.000  C
  C150     1.0000 0.79800  0.36940  0.62850  Biso   1.000  C
  C151     1.0000 0.69980  0.37580  0.72030  Biso   1.000  C
  C152     1.0000 0.60030  0.38550  0.81060  Biso   1.000  C
  C153     1.0000 0.55250  0.03880  0.81030  Biso   1.000  C
  H87      1.0000 0.60080  0.00690  0.76440  Biso   1.000  H
  H88      1.0000 0.69250  0.00250  0.67730  Biso   1.000  H
  C154     1.0000 0.84020  0.02010  0.54210  Biso   1.000  C
  H89      1.0000 0.79240  0.98740  0.59290  Biso   1.000  H
  C155     1.0000 0.81070  0.38810  0.62550  Biso   1.000  C
  H90      1.0000 0.82390  0.36220  0.59730  Biso   1.000  H
  H91      1.0000 0.70140  0.39540  0.71960  Biso   1.000  H
  H92      1.0000 0.57170  0.37280  0.84150  Biso   1.000  H
  C156     1.0000 0.59150  0.41850  0.81220  Biso   1.000  C
  H93      1.0000 0.54750  0.06160  0.81200  Biso   1.000  H
  C157     1.0000 0.50520  0.02010  0.85950  Biso   1.000  C
  H94      1.0000 0.84180  0.04450  0.53510  Biso   1.000  H
  C158     1.0000 0.89210  0.99400  0.49920  Biso   1.000  C
  H95      1.0000 0.78880  0.38960  0.65900  Biso   1.000  H
  C159     1.0000 0.85790  0.40810  0.57260  Biso   1.000  C
  C160     1.0000 0.53930  0.43860  0.85900  Biso   1.000  C
  H96      1.0000 0.61980  0.43150  0.78190  Biso   1.000  H
  O57      1.0000 0.50940  0.99220  0.85680  Biso   1.000  O
  O58      1.0000 0.46700  0.03130  0.90280  Biso   1.000  O
  O59      1.0000 0.88670  0.96490  0.50790  Biso   1.000  O
  O60      1.0000 0.93240  0.00840  0.46000  Biso   1.000  O
  O61      1.0000 0.85670  0.43520  0.57360  Biso   1.000  O
  O62      1.0000 0.89520  0.39430  0.53260  Biso   1.000  O
  O63      1.0000 0.49900  0.42420  0.89820  Biso   1.000  O
  O64      1.0000 0.53770  0.47260  0.85240  Biso   1.000  O
  Cu15     1.0000 0.45557  0.95590  0.92535  Biso   1.000  Cu
  Cu16     1.0000 0.40475  0.00695  0.97452  Biso   1.000  Cu
  Cu17     1.0000 0.18653  0.65644  0.74886  Biso   1.000  Cu
  O65      1.0000 0.10910  0.72130  0.77250  Biso   1.000  O
  Cu18     1.0000 0.20865  0.74505  0.64265  Biso   1.000  Cu
  O66      1.0000 0.15690  0.66760  0.72370  Biso   1.000  O
  O67      1.0000 0.22040  0.65810  0.75690  Biso   1.000  O
  O68      1.0000 0.26690  0.60590  0.70980  Biso   1.000  O
  C161     1.0000 0.09480  0.77570  0.73540  Biso   1.000  C
  O69      1.0000 0.12680  0.79680  0.68040  Biso   1.000  O
  O70      1.0000 0.28620  0.68140  0.62060  Biso   1.000  O
  O71      1.0000 0.17910  0.73990  0.63290  Biso   1.000  O
  O72      1.0000 0.23400  0.73710  0.66970  Biso   1.000  O
  C162     1.0000 0.15760  0.70630  0.67360  Biso   1.000  C
  C163     1.0000 0.23720  0.69630  0.71650  Biso   1.000  C
  C164     1.0000 0.30100  0.62640  0.65560  Biso   1.000  C
  C165     1.0000 0.03340  0.81790  0.75880  Biso   1.000  C
  C166     1.0000 0.13190  0.70800  0.66410  Biso   1.000  C
  C167     1.0000 0.26630  0.68960  0.72780  Biso   1.000  C
  C168     1.0000 0.36140  0.58530  0.63340  Biso   1.000  C
  H97      1.0000 0.01970  0.85770  0.73220  Biso   1.000  H
  C169     1.0000 0.99750  0.80180  0.81550  Biso   1.000  C
  C170     1.0000 0.11220  0.67220  0.70180  Biso   1.000  C
  H98      1.0000 0.13000  0.73700  0.62840  Biso   1.000  H
  H99      1.0000 0.27000  0.65840  0.76270  Biso   1.000  H
  C171     1.0000 0.28570  0.72510  0.69130  Biso   1.000  C
  C172     1.0000 0.40210  0.60080  0.57830  Biso   1.000  C
  H100     1.0000 0.37250  0.54500  0.65970  Biso   1.000  H
  H101     1.0000 0.01380  0.76210  0.84060  Biso   1.000  H
  C173     1.0000 0.93390  0.83850  0.84520  Biso   1.000  C
  H102     1.0000 0.11790  0.64130  0.73540  Biso   1.000  H
  C174     1.0000 0.08140  0.67400  0.69830  Biso   1.000  C
  H103     1.0000 0.28010  0.75640  0.65750  Biso   1.000  H
  C175     1.0000 0.31580  0.72230  0.69620  Biso   1.000  C
  H104     1.0000 0.38950  0.64120  0.55260  Biso   1.000  H
  C176     1.0000 0.46640  0.56090  0.55210  Biso   1.000  C
  C177     1.0000 0.90110  0.81150  0.90450  Biso   1.000  C
  C178     1.0000 0.06930  0.71660  0.65150  Biso   1.000  C
  C179     1.0000 0.06400  0.63080  0.74350  Biso   1.000  C
  C180     1.0000 0.32890  0.67750  0.74320  Biso   1.000  C
  C181     1.0000 0.33460  0.76590  0.65050  Biso   1.000  C
  C182     1.0000 0.49230  0.50020  0.58690  Biso   1.000  C
  H105     1.0000 0.91960  0.77070  0.92620  Biso   1.000  H
  H106     1.0000 0.08130  0.74590  0.62040  Biso   1.000  H
  C183     1.0000 0.04090  0.71850  0.64820  Biso   1.000  C
  C184     1.0000 0.03300  0.63030  0.74480  Biso   1.000  C
  H107     1.0000 0.07340  0.60070  0.77450  Biso   1.000  H
  C185     1.0000 0.35750  0.67680  0.74580  Biso   1.000  C
  H108     1.0000 0.31830  0.64750  0.77340  Biso   1.000  H
  C186     1.0000 0.36420  0.76560  0.65080  Biso   1.000  C
  H109     1.0000 0.32640  0.79620  0.61860  Biso   1.000  H
  H110     1.0000 0.46910  0.48270  0.62740  Biso   1.000  H
  C187     1.0000 0.02750  0.76660  0.59830  Biso   1.000  C
  C188     1.0000 0.02230  0.67640  0.69400  Biso   1.000  C
  C189     1.0000 0.01070  0.58720  0.79420  Biso   1.000  C
  C190     1.0000 0.36940  0.62850  0.79800  Biso   1.000  C
  C191     1.0000 0.37580  0.72030  0.69980  Biso   1.000  C
  C192     1.0000 0.38550  0.81060  0.60030  Biso   1.000  C
  C193     1.0000 0.03880  0.81030  0.55250  Biso   1.000  C
  H111     1.0000 0.00690  0.76440  0.60080  Biso   1.000  H
  H112     1.0000 0.00250  0.67730  0.69250  Biso   1.000  H
  C194     1.0000 0.02010  0.54210  0.84020  Biso   1.000  C
  H113     1.0000 0.98740  0.59290  0.79240  Biso   1.000  H
  C195     1.0000 0.38810  0.62550  0.81070  Biso   1.000  C
  H114     1.0000 0.36220  0.59730  0.82390  Biso   1.000  H
  H115     1.0000 0.39540  0.71960  0.70140  Biso   1.000  H
  H116     1.0000 0.37280  0.84150  0.57170  Biso   1.000  H
  C196     1.0000 0.41850  0.81220  0.59150  Biso   1.000  C
  H117     1.0000 0.06160  0.81200  0.54750  Biso   1.000  H
  C197     1.0000 0.02010  0.85950  0.50520  Biso   1.000  C
  H118     1.0000 0.04450  0.53510  0.84180  Biso   1.000  H
  C198     1.0000 0.99400  0.49920  0.89210  Biso   1.000  C
  H119     1.0000 0.38960  0.65900  0.78880  Biso   1.000  H
  C199     1.0000 0.40810  0.57260  0.85790  Biso   1.000  C
  C200     1.0000 0.43860  0.85900  0.53930  Biso   1.000  C
  H120     1.0000 0.43150  0.78190  0.61980  Biso   1.000  H
  O73      1.0000 0.99220  0.85680  0.50940  Biso   1.000  O
  O74      1.0000 0.03130  0.90280  0.46700  Biso   1.000  O
  O75      1.0000 0.96490  0.50790  0.88670  Biso   1.000  O
  O76      1.0000 0.00840  0.46000  0.93240  Biso   1.000  O
  O77      1.0000 0.43520  0.57360  0.85670  Biso   1.000  O
  O78      1.0000 0.39430  0.53260  0.89520  Biso   1.000  O
  O79      1.0000 0.42420  0.89820  0.49900  Biso   1.000  O
  O80      1.0000 0.47260  0.85240  0.53770  Biso   1.000  O
  Cu19     1.0000 0.95590  0.92535  0.45557  Biso   1.000  Cu
  Cu20     1.0000 0.00695  0.97452  0.40475  Biso   1.000  Cu
  Cu21     1.0000 0.65644  0.74886  0.18653  Biso   1.000  Cu
  O81      1.0000 0.72130  0.77250  0.10910  Biso   1.000  O
  Cu22     1.0000 0.74505  0.64265  0.20865  Biso   1.000  Cu
  O82      1.0000 0.66760  0.72370  0.15690  Biso   1.000  O
  O83      1.0000 0.65810  0.75690  0.22040  Biso   1.000  O
  O84      1.0000 0.60590  0.70980  0.26690  Biso   1.000  O
  C201     1.0000 0.77570  0.73540  0.09480  Biso   1.000  C
  O85      1.0000 0.79680  0.68040  0.12680  Biso   1.000  O
  O86      1.0000 0.68140  0.62060  0.28620  Biso   1.000  O
  O87      1.0000 0.73990  0.63290  0.17910  Biso   1.000  O
  O88      1.0000 0.73710  0.66970  0.23400  Biso   1.000  O
  C202     1.0000 0.70630  0.67360  0.15760  Biso   1.000  C
  C203     1.0000 0.69630  0.71650  0.23720  Biso   1.000  C
  C204     1.0000 0.62640  0.65560  0.30100  Biso   1.000  C
  C205     1.0000 0.81790  0.75880  0.03340  Biso   1.000  C
  C206     1.0000 0.70800  0.66410  0.13190  Biso   1.000  C
  C207     1.0000 0.68960  0.72780  0.26630  Biso   1.000  C
  C208     1.0000 0.58530  0.63340  0.36140  Biso   1.000  C
  H121     1.0000 0.85770  0.73220  0.01970  Biso   1.000  H
  C209     1.0000 0.80180  0.81550  0.99750  Biso   1.000  C
  C210     1.0000 0.67220  0.70180  0.11220  Biso   1.000  C
  H122     1.0000 0.73700  0.62840  0.13000  Biso   1.000  H
  H123     1.0000 0.65840  0.76270  0.27000  Biso   1.000  H
  C211     1.0000 0.72510  0.69130  0.28570  Biso   1.000  C
  C212     1.0000 0.60080  0.57830  0.40210  Biso   1.000  C
  H124     1.0000 0.54500  0.65970  0.37250  Biso   1.000  H
  H125     1.0000 0.76210  0.84060  0.01380  Biso   1.000  H
  C213     1.0000 0.83850  0.84520  0.93390  Biso   1.000  C
  H126     1.0000 0.64130  0.73540  0.11790  Biso   1.000  H
  C214     1.0000 0.67400  0.69830  0.08140  Biso   1.000  C
  H127     1.0000 0.75640  0.65750  0.28010  Biso   1.000  H
  C215     1.0000 0.72230  0.69620  0.31580  Biso   1.000  C
  H128     1.0000 0.64120  0.55260  0.38950  Biso   1.000  H
  C216     1.0000 0.56090  0.55210  0.46640  Biso   1.000  C
  C217     1.0000 0.81150  0.90450  0.90110  Biso   1.000  C
  C218     1.0000 0.71660  0.65150  0.06930  Biso   1.000  C
  C219     1.0000 0.63080  0.74350  0.06400  Biso   1.000  C
  C220     1.0000 0.67750  0.74320  0.32890  Biso   1.000  C
  C221     1.0000 0.76590  0.65050  0.33460  Biso   1.000  C
  C222     1.0000 0.50020  0.58690  0.49230  Biso   1.000  C
  H129     1.0000 0.77070  0.92620  0.91960  Biso   1.000  H
  H130     1.0000 0.74590  0.62040  0.08130  Biso   1.000  H
  C223     1.0000 0.71850  0.64820  0.04090  Biso   1.000  C
  C224     1.0000 0.63030  0.74480  0.03300  Biso   1.000  C
  H131     1.0000 0.60070  0.77450  0.07340  Biso   1.000  H
  C225     1.0000 0.67680  0.74580  0.35750  Biso   1.000  C
  H132     1.0000 0.64750  0.77340  0.31830  Biso   1.000  H
  C226     1.0000 0.76560  0.65080  0.36420  Biso   1.000  C
  H133     1.0000 0.79620  0.61860  0.32640  Biso   1.000  H
  H134     1.0000 0.48270  0.62740  0.46910  Biso   1.000  H
  C227     1.0000 0.76660  0.59830  0.02750  Biso   1.000  C
  C228     1.0000 0.67640  0.69400  0.02230  Biso   1.000  C
  C229     1.0000 0.58720  0.79420  0.01070  Biso   1.000  C
  C230     1.0000 0.62850  0.79800  0.36940  Biso   1.000  C
  C231     1.0000 0.72030  0.69980  0.37580  Biso   1.000  C
  C232     1.0000 0.81060  0.60030  0.38550  Biso   1.000  C
  C233     1.0000 0.81030  0.55250  0.03880  Biso   1.000  C
  H135     1.0000 0.76440  0.60080  0.00690  Biso   1.000  H
  H136     1.0000 0.67730  0.69250  0.00250  Biso   1.000  H
  C234     1.0000 0.54210  0.84020  0.02010  Biso   1.000  C
  H137     1.0000 0.59290  0.79240  0.98740  Biso   1.000  H
  C235     1.0000 0.62550  0.81070  0.38810  Biso   1.000  C
  H138     1.0000 0.59730  0.82390  0.36220  Biso   1.000  H
  H139     1.0000 0.71960  0.70140  0.39540  Biso   1.000  H
  H140     1.0000 0.84150  0.57170  0.37280  Biso   1.000  H
  C236     1.0000 0.81220  0.59150  0.41850  Biso   1.000  C
  H141     1.0000 0.81200  0.54750  0.06160  Biso   1.000  H
  C237     1.0000 0.85950  0.50520  0.02010  Biso   1.000  C
  H142     1.0000 0.53510  0.84180  0.04450  Biso   1.000  H
  C238     1.0000 0.49920  0.89210  0.99400  Biso   1.000  C
  H143     1.0000 0.65900  0.78880  0.38960  Biso   1.000  H
  C239     1.0000 0.57260  0.85790  0.40810  Biso   1.000  C
  C240     1.0000 0.85900  0.53930  0.43860  Biso   1.000  C
  H144     1.0000 0.78190  0.61980  0.43150  Biso   1.000  H
  O89      1.0000 0.85680  0.50940  0.99220  Biso   1.000  O
  O90      1.0000 0.90280  0.46700  0.03130  Biso   1.000  O
  O91      1.0000 0.50790  0.88670  0.96490  Biso   1.000  O
  O92      1.0000 0.46000  0.93240  0.00840  Biso   1.000  O
  O93      1.0000 0.57360  0.85670  0.43520  Biso   1.000  O
  O94      1.0000 0.53260  0.89520  0.39430  Biso   1.000  O
  O95      1.0000 0.89820  0.49900  0.42420  Biso   1.000  O
  O96      1.0000 0.85240  0.53770  0.47260  Biso   1.000  O
  Cu23     1.0000 0.92535  0.45557  0.95590  Biso   1.000  Cu
  Cu24     1.0000 0.97452  0.40475  0.00695  Biso   1.000  Cu
  Cu25     1.0000 0.25114  0.81347  0.34356  Biso   1.000  Cu
  O97      1.0000 0.22750  0.89090  0.27870  Biso   1.000  O
  Cu26     1.0000 0.35735  0.79135  0.25495  Biso   1.000  Cu
  O98      1.0000 0.27630  0.84310  0.33240  Biso   1.000  O
  O99      1.0000 0.24310  0.77960  0.34190  Biso   1.000  O
  O100     1.0000 0.29020  0.73310  0.39410  Biso   1.000  O
  C241     1.0000 0.26460  0.90520  0.22430  Biso   1.000  C
  O101     1.0000 0.31960  0.87320  0.20320  Biso   1.000  O
  O102     1.0000 0.37940  0.71380  0.31860  Biso   1.000  O
  O103     1.0000 0.36710  0.82090  0.26010  Biso   1.000  O
  O104     1.0000 0.33030  0.76600  0.26290  Biso   1.000  O
  C242     1.0000 0.32640  0.84240  0.29370  Biso   1.000  C
  C243     1.0000 0.28350  0.76280  0.30370  Biso   1.000  C
  C244     1.0000 0.34440  0.69900  0.37360  Biso   1.000  C
  C245     1.0000 0.24120  0.96660  0.18210  Biso   1.000  C
  C246     1.0000 0.33590  0.86810  0.29200  Biso   1.000  C
  C247     1.0000 0.27220  0.73370  0.31040  Biso   1.000  C
  C248     1.0000 0.36660  0.63860  0.41470  Biso   1.000  C
  H145     1.0000 0.26780  0.98030  0.14230  Biso   1.000  H
  C249     1.0000 0.18450  0.00250  0.19820  Biso   1.000  C
  C250     1.0000 0.29820  0.88780  0.32780  Biso   1.000  C
  H146     1.0000 0.37160  0.87000  0.26300  Biso   1.000  H
  H147     1.0000 0.23730  0.73000  0.34160  Biso   1.000  H
  C251     1.0000 0.30870  0.71430  0.27490  Biso   1.000  C
  C252     1.0000 0.42170  0.59790  0.39920  Biso   1.000  C
  H148     1.0000 0.34030  0.62750  0.45500  Biso   1.000  H
  H149     1.0000 0.15940  0.98620  0.23790  Biso   1.000  H
  C253     1.0000 0.15480  0.06610  0.16150  Biso   1.000  C
  H150     1.0000 0.26460  0.88210  0.35870  Biso   1.000  H
  C254     1.0000 0.30170  0.91860  0.32600  Biso   1.000  C
  H151     1.0000 0.34250  0.71990  0.24360  Biso   1.000  H
  C255     1.0000 0.30380  0.68420  0.27770  Biso   1.000  C
  H152     1.0000 0.44740  0.61050  0.35880  Biso   1.000  H
  C256     1.0000 0.44790  0.53360  0.43910  Biso   1.000  C
  C257     1.0000 0.09550  0.09890  0.18850  Biso   1.000  C
  C258     1.0000 0.34850  0.93070  0.28340  Biso   1.000  C
  C259     1.0000 0.25650  0.93600  0.36920  Biso   1.000  C
  C260     1.0000 0.25680  0.67110  0.32250  Biso   1.000  C
  C261     1.0000 0.34950  0.66540  0.23410  Biso   1.000  C
  C262     1.0000 0.41310  0.50770  0.49980  Biso   1.000  C
  H153     1.0000 0.07380  0.08040  0.22930  Biso   1.000  H
  H154     1.0000 0.37960  0.91870  0.25410  Biso   1.000  H
  C263     1.0000 0.35180  0.95910  0.28150  Biso   1.000  C
  C264     1.0000 0.25520  0.96700  0.36970  Biso   1.000  C
  H155     1.0000 0.22550  0.92660  0.39930  Biso   1.000  H
  C265     1.0000 0.25420  0.64250  0.32320  Biso   1.000  C
  H156     1.0000 0.22660  0.68170  0.35250  Biso   1.000  H
  C266     1.0000 0.34920  0.63580  0.23440  Biso   1.000  C
  H157     1.0000 0.38140  0.67360  0.20380  Biso   1.000  H
  H158     1.0000 0.37260  0.53090  0.51730  Biso   1.000  H
  C267     1.0000 0.40170  0.97250  0.23340  Biso   1.000  C
  C268     1.0000 0.30600  0.97770  0.32360  Biso   1.000  C
  C269     1.0000 0.20580  0.98930  0.41280  Biso   1.000  C
  C270     1.0000 0.20200  0.63060  0.37150  Biso   1.000  C
  C271     1.0000 0.30020  0.62420  0.27970  Biso   1.000  C
  C272     1.0000 0.39970  0.61450  0.18940  Biso   1.000  C
  C273     1.0000 0.44750  0.96120  0.18970  Biso   1.000  C
  H159     1.0000 0.39920  0.99310  0.23560  Biso   1.000  H
  H160     1.0000 0.30750  0.99750  0.32270  Biso   1.000  H
  C274     1.0000 0.15980  0.97990  0.45790  Biso   1.000  C
  H161     1.0000 0.20760  0.01260  0.40710  Biso   1.000  H
  C275     1.0000 0.18930  0.61190  0.37450  Biso   1.000  C
  H162     1.0000 0.17610  0.63780  0.40270  Biso   1.000  H
  H163     1.0000 0.29860  0.60460  0.28040  Biso   1.000  H
  H164     1.0000 0.42830  0.62720  0.15850  Biso   1.000  H
  C276     1.0000 0.40850  0.58150  0.18780  Biso   1.000  C
  H165     1.0000 0.45250  0.93840  0.18800  Biso   1.000  H
  C277     1.0000 0.49480  0.97990  0.14050  Biso   1.000  C
  H166     1.0000 0.15820  0.95550  0.46490  Biso   1.000  H
  C278     1.0000 0.10790  0.00600  0.50080  Biso   1.000  C
  H167     1.0000 0.21120  0.61040  0.34100  Biso   1.000  H
  C279     1.0000 0.14210  0.59190  0.42740  Biso   1.000  C
  C280     1.0000 0.46070  0.56140  0.14100  Biso   1.000  C
  H168     1.0000 0.38020  0.56850  0.21810  Biso   1.000  H
  O105     1.0000 0.49060  0.00780  0.14320  Biso   1.000  O
  O106     1.0000 0.53300  0.96870  0.09720  Biso   1.000  O
  O107     1.0000 0.11330  0.03510  0.49210  Biso   1.000  O
  O108     1.0000 0.06760  0.99160  0.54000  Biso   1.000  O
  O109     1.0000 0.14330  0.56480  0.42640  Biso   1.000  O
  O110     1.0000 0.10480  0.60570  0.46740  Biso   1.000  O
  O111     1.0000 0.50100  0.57580  0.10180  Biso   1.000  O
  O112     1.0000 0.46230  0.52740  0.14760  Biso   1.000  O
  Cu27     1.0000 0.54443  0.04410  0.07465  Biso   1.000  Cu
  Cu28     1.0000 0.59525  0.99305  0.02548  Biso   1.000  Cu
  Cu29     1.0000 0.81347  0.34356  0.25114  Biso   1.000  Cu
  O113     1.0000 0.89090  0.27870  0.22750  Biso   1.000  O
  Cu30     1.0000 0.79135  0.25495  0.35735  Biso   1.000  Cu
  O114     1.0000 0.84310  0.33240  0.27630  Biso   1.000  O
  O115     1.0000 0.77960  0.34190  0.24310  Biso   1.000  O
  O116     1.0000 0.73310  0.39410  0.29020  Biso   1.000  O
  C281     1.0000 0.90520  0.22430  0.26460  Biso   1.000  C
  O117     1.0000 0.87320  0.20320  0.31960  Biso   1.000  O
  O118     1.0000 0.71380  0.31860  0.37940  Biso   1.000  O
  O119     1.0000 0.82090  0.26010  0.36710  Biso   1.000  O
  O120     1.0000 0.76600  0.26290  0.33030  Biso   1.000  O
  C282     1.0000 0.84240  0.29370  0.32640  Biso   1.000  C
  C283     1.0000 0.76280  0.30370  0.28350  Biso   1.000  C
  C284     1.0000 0.69900  0.37360  0.34440  Biso   1.000  C
  C285     1.0000 0.96660  0.18210  0.24120  Biso   1.000  C
  C286     1.0000 0.86810  0.29200  0.33590  Biso   1.000  C
  C287     1.0000 0.73370  0.31040  0.27220  Biso   1.000  C
  C288     1.0000 0.63860  0.41470  0.36660  Biso   1.000  C
  H169     1.0000 0.98030  0.14230  0.26780  Biso   1.000  H
  C289     1.0000 0.00250  0.19820  0.18450  Biso   1.000  C
  C290     1.0000 0.88780  0.32780  0.29820  Biso   1.000  C
  H170     1.0000 0.87000  0.26300  0.37160  Biso   1.000  H
  H171     1.0000 0.73000  0.34160  0.23730  Biso   1.000  H
  C291     1.0000 0.71430  0.27490  0.30870  Biso   1.000  C
  C292     1.0000 0.59790  0.39920  0.42170  Biso   1.000  C
  H172     1.0000 0.62750  0.45500  0.34030  Biso   1.000  H
  H173     1.0000 0.98620  0.23790  0.15940  Biso   1.000  H
  C293     1.0000 0.06610  0.16150  0.15480  Biso   1.000  C
  H174     1.0000 0.88210  0.35870  0.26460  Biso   1.000  H
  C294     1.0000 0.91860  0.32600  0.30170  Biso   1.000  C
  H175     1.0000 0.71990  0.24360  0.34250  Biso   1.000  H
  C295     1.0000 0.68420  0.27770  0.30380  Biso   1.000  C
  H176     1.0000 0.61050  0.35880  0.44740  Biso   1.000  H
  C296     1.0000 0.53360  0.43910  0.44790  Biso   1.000  C
  C297     1.0000 0.09890  0.18850  0.09550  Biso   1.000  C
  C298     1.0000 0.93070  0.28340  0.34850  Biso   1.000  C
  C299     1.0000 0.93600  0.36920  0.25650  Biso   1.000  C
  C300     1.0000 0.67110  0.32250  0.25680  Biso   1.000  C
  C301     1.0000 0.66540  0.23410  0.34950  Biso   1.000  C
  C302     1.0000 0.50770  0.49980  0.41310  Biso   1.000  C
  H177     1.0000 0.08040  0.22930  0.07380  Biso   1.000  H
  H178     1.0000 0.91870  0.25410  0.37960  Biso   1.000  H
  C303     1.0000 0.95910  0.28150  0.35180  Biso   1.000  C
  C304     1.0000 0.96700  0.36970  0.25520  Biso   1.000  C
  H179     1.0000 0.92660  0.39930  0.22550  Biso   1.000  H
  C305     1.0000 0.64250  0.32320  0.25420  Biso   1.000  C
  H180     1.0000 0.68170  0.35250  0.22660  Biso   1.000  H
  C306     1.0000 0.63580  0.23440  0.34920  Biso   1.000  C
  H181     1.0000 0.67360  0.20380  0.38140  Biso   1.000  H
  H182     1.0000 0.53090  0.51730  0.37260  Biso   1.000  H
  C307     1.0000 0.97250  0.23340  0.40170  Biso   1.000  C
  C308     1.0000 0.97770  0.32360  0.30600  Biso   1.000  C
  C309     1.0000 0.98930  0.41280  0.20580  Biso   1.000  C
  C310     1.0000 0.63060  0.37150  0.20200  Biso   1.000  C
  C311     1.0000 0.62420  0.27970  0.30020  Biso   1.000  C
  C312     1.0000 0.61450  0.18940  0.39970  Biso   1.000  C
  C313     1.0000 0.96120  0.18970  0.44750  Biso   1.000  C
  H183     1.0000 0.99310  0.23560  0.39920  Biso   1.000  H
  H184     1.0000 0.99750  0.32270  0.30750  Biso   1.000  H
  C314     1.0000 0.97990  0.45790  0.15980  Biso   1.000  C
  H185     1.0000 0.01260  0.40710  0.20760  Biso   1.000  H
  C315     1.0000 0.61190  0.37450  0.18930  Biso   1.000  C
  H186     1.0000 0.63780  0.40270  0.17610  Biso   1.000  H
  H187     1.0000 0.60460  0.28040  0.29860  Biso   1.000  H
  H188     1.0000 0.62720  0.15850  0.42830  Biso   1.000  H
  C316     1.0000 0.58150  0.18780  0.40850  Biso   1.000  C
  H189     1.0000 0.93840  0.18800  0.45250  Biso   1.000  H
  C317     1.0000 0.97990  0.14050  0.49480  Biso   1.000  C
  H190     1.0000 0.95550  0.46490  0.15820  Biso   1.000  H
  C318     1.0000 0.00600  0.50080  0.10790  Biso   1.000  C
  H191     1.0000 0.61040  0.34100  0.21120  Biso   1.000  H
  C319     1.0000 0.59190  0.42740  0.14210  Biso   1.000  C
  C320     1.0000 0.56140  0.14100  0.46070  Biso   1.000  C
  H192     1.0000 0.56850  0.21810  0.38020  Biso   1.000  H
  O121     1.0000 0.00780  0.14320  0.49060  Biso   1.000  O
  O122     1.0000 0.96870  0.09720  0.53300  Biso   1.000  O
  O123     1.0000 0.03510  0.49210  0.11330  Biso   1.000  O
  O124     1.0000 0.99160  0.54000  0.06760  Biso   1.000  O
  O125     1.0000 0.56480  0.42640  0.14330  Biso   1.000  O
  O126     1.0000 0.60570  0.46740  0.10480  Biso   1.000  O
  O127     1.0000 0.57580  0.10180  0.50100  Biso   1.000  O
  O128     1.0000 0.52740  0.14760  0.46230  Biso   1.000  O
  Cu31     1.0000 0.04410  0.07465  0.54443  Biso   1.000  Cu
  Cu32     1.0000 0.99305  0.02548  0.59525  Biso   1.000  Cu
  Cu33     1.0000 0.34356  0.25114  0.81347  Biso   1.000  Cu
  O129     1.0000 0.27870  0.22750  0.89090  Biso   1.000  O
  Cu34     1.0000 0.25495  0.35735  0.79135  Biso   1.000  Cu
  O130     1.0000 0.33240  0.27630  0.84310  Biso   1.000  O
  O131     1.0000 0.34190  0.24310  0.77960  Biso   1.000  O
  O132     1.0000 0.39410  0.29020  0.73310  Biso   1.000  O
  C321     1.0000 0.22430  0.26460  0.90520  Biso   1.000  C
  O133     1.0000 0.20320  0.31960  0.87320  Biso   1.000  O
  O134     1.0000 0.31860  0.37940  0.71380  Biso   1.000  O
  O135     1.0000 0.26010  0.36710  0.82090  Biso   1.000  O
  O136     1.0000 0.26290  0.33030  0.76600  Biso   1.000  O
  C322     1.0000 0.29370  0.32640  0.84240  Biso   1.000  C
  C323     1.0000 0.30370  0.28350  0.76280  Biso   1.000  C
  C324     1.0000 0.37360  0.34440  0.69900  Biso   1.000  C
  C325     1.0000 0.18210  0.24120  0.96660  Biso   1.000  C
  C326     1.0000 0.29200  0.33590  0.86810  Biso   1.000  C
  C327     1.0000 0.31040  0.27220  0.73370  Biso   1.000  C
  C328     1.0000 0.41470  0.36660  0.63860  Biso   1.000  C
  H193     1.0000 0.14230  0.26780  0.98030  Biso   1.000  H
  C329     1.0000 0.19820  0.18450  0.00250  Biso   1.000  C
  C330     1.0000 0.32780  0.29820  0.88780  Biso   1.000  C
  H194     1.0000 0.26300  0.37160  0.87000  Biso   1.000  H
  H195     1.0000 0.34160  0.23730  0.73000  Biso   1.000  H
  C331     1.0000 0.27490  0.30870  0.71430  Biso   1.000  C
  C332     1.0000 0.39920  0.42170  0.59790  Biso   1.000  C
  H196     1.0000 0.45500  0.34030  0.62750  Biso   1.000  H
  H197     1.0000 0.23790  0.15940  0.98620  Biso   1.000  H
  C333     1.0000 0.16150  0.15480  0.06610  Biso   1.000  C
  H198     1.0000 0.35870  0.26460  0.88210  Biso   1.000  H
  C334     1.0000 0.32600  0.30170  0.91860  Biso   1.000  C
  H199     1.0000 0.24360  0.34250  0.71990  Biso   1.000  H
  C335     1.0000 0.27770  0.30380  0.68420  Biso   1.000  C
  H200     1.0000 0.35880  0.44740  0.61050  Biso   1.000  H
  C336     1.0000 0.43910  0.44790  0.53360  Biso   1.000  C
  C337     1.0000 0.18850  0.09550  0.09890  Biso   1.000  C
  C338     1.0000 0.28340  0.34850  0.93070  Biso   1.000  C
  C339     1.0000 0.36920  0.25650  0.93600  Biso   1.000  C
  C340     1.0000 0.32250  0.25680  0.67110  Biso   1.000  C
  C341     1.0000 0.23410  0.34950  0.66540  Biso   1.000  C
  C342     1.0000 0.49980  0.41310  0.50770  Biso   1.000  C
  H201     1.0000 0.22930  0.07380  0.08040  Biso   1.000  H
  H202     1.0000 0.25410  0.37960  0.91870  Biso   1.000  H
  C343     1.0000 0.28150  0.35180  0.95910  Biso   1.000  C
  C344     1.0000 0.36970  0.25520  0.96700  Biso   1.000  C
  H203     1.0000 0.39930  0.22550  0.92660  Biso   1.000  H
  C345     1.0000 0.32320  0.25420  0.64250  Biso   1.000  C
  H204     1.0000 0.35250  0.22660  0.68170  Biso   1.000  H
  C346     1.0000 0.23440  0.34920  0.63580  Biso   1.000  C
  H205     1.0000 0.20380  0.38140  0.67360  Biso   1.000  H
  H206     1.0000 0.51730  0.37260  0.53090  Biso   1.000  H
  C347     1.0000 0.23340  0.40170  0.97250  Biso   1.000  C
  C348     1.0000 0.32360  0.30600  0.97770  Biso   1.000  C
  C349     1.0000 0.41280  0.20580  0.98930  Biso   1.000  C
  C350     1.0000 0.37150  0.20200  0.63060  Biso   1.000  C
  C351     1.0000 0.27970  0.30020  0.62420  Biso   1.000  C
  C352     1.0000 0.18940  0.39970  0.61450  Biso   1.000  C
  C353     1.0000 0.18970  0.44750  0.96120  Biso   1.000  C
  H207     1.0000 0.23560  0.39920  0.99310  Biso   1.000  H
  H208     1.0000 0.32270  0.30750  0.99750  Biso   1.000  H
  C354     1.0000 0.45790  0.15980  0.97990  Biso   1.000  C
  H209     1.0000 0.40710  0.20760  0.01260  Biso   1.000  H
  C355     1.0000 0.37450  0.18930  0.61190  Biso   1.000  C
  H210     1.0000 0.40270  0.17610  0.63780  Biso   1.000  H
  H211     1.0000 0.28040  0.29860  0.60460  Biso   1.000  H
  H212     1.0000 0.15850  0.42830  0.62720  Biso   1.000  H
  C356     1.0000 0.18780  0.40850  0.58150  Biso   1.000  C
  H213     1.0000 0.18800  0.45250  0.93840  Biso   1.000  H
  C357     1.0000 0.14050  0.49480  0.97990  Biso   1.000  C
  H214     1.0000 0.46490  0.15820  0.95550  Biso   1.000  H
  C358     1.0000 0.50080  0.10790  0.00600  Biso   1.000  C
  H215     1.0000 0.34100  0.21120  0.61040  Biso   1.000  H
  C359     1.0000 0.42740  0.14210  0.59190  Biso   1.000  C
  C360     1.0000 0.14100  0.46070  0.56140  Biso   1.000  C
  H216     1.0000 0.21810  0.38020  0.56850  Biso   1.000  H
  O137     1.0000 0.14320  0.49060  0.00780  Biso   1.000  O
  O138     1.0000 0.09720  0.53300  0.96870  Biso   1.000  O
  O139     1.0000 0.49210  0.11330  0.03510  Biso   1.000  O
  O140     1.0000 0.54000  0.06760  0.99160  Biso   1.000  O
  O141     1.0000 0.42640  0.14330  0.56480  Biso   1.000  O
  O142     1.0000 0.46740  0.10480  0.60570  Biso   1.000  O
  O143     1.0000 0.10180  0.50100  0.57580  Biso   1.000  O
  O144     1.0000 0.14760  0.46230  0.52740  Biso   1.000  O
  Cu35     1.0000 0.07465  0.54443  0.04410  Biso   1.000  Cu
  Cu36     1.0000 0.02548  0.59525  0.99305  Biso   1.000  Cu
  Cu37     1.0000 0.31347  0.75114  0.84356  Biso   1.000  Cu
  O145     1.0000 0.39090  0.72750  0.77870  Biso   1.000  O
  Cu38     1.0000 0.29135  0.85735  0.75495  Biso   1.000  Cu
  O146     1.0000 0.34310  0.77630  0.83240  Biso   1.000  O
  O147     1.0000 0.27960  0.74310  0.84190  Biso   1.000  O
  O148     1.0000 0.23310  0.79020  0.89410  Biso   1.000  O
  C361     1.0000 0.40520  0.76460  0.72430  Biso   1.000  C
  O149     1.0000 0.37320  0.81960  0.70320  Biso   1.000  O
  O150     1.0000 0.21380  0.87940  0.81860  Biso   1.000  O
  O151     1.0000 0.32090  0.86710  0.76010  Biso   1.000  O
  O152     1.0000 0.26600  0.83030  0.76290  Biso   1.000  O
  C362     1.0000 0.34240  0.82640  0.79370  Biso   1.000  C
  C363     1.0000 0.26280  0.78350  0.80370  Biso   1.000  C
  C364     1.0000 0.19900  0.84440  0.87360  Biso   1.000  C
  C365     1.0000 0.46660  0.74120  0.68210  Biso   1.000  C
  C366     1.0000 0.36810  0.83590  0.79200  Biso   1.000  C
  C367     1.0000 0.23370  0.77220  0.81040  Biso   1.000  C
  C368     1.0000 0.13860  0.86660  0.91470  Biso   1.000  C
  H217     1.0000 0.48030  0.76780  0.64230  Biso   1.000  H
  C369     1.0000 0.50250  0.68450  0.69820  Biso   1.000  C
  C370     1.0000 0.38780  0.79820  0.82780  Biso   1.000  C
  H218     1.0000 0.37000  0.87160  0.76300  Biso   1.000  H
  H219     1.0000 0.23000  0.73730  0.84160  Biso   1.000  H
  C371     1.0000 0.21430  0.80870  0.77490  Biso   1.000  C
  C372     1.0000 0.09790  0.92170  0.89920  Biso   1.000  C
  H220     1.0000 0.12750  0.84030  0.95500  Biso   1.000  H
  H221     1.0000 0.48620  0.65940  0.73790  Biso   1.000  H
  C373     1.0000 0.56610  0.65480  0.66150  Biso   1.000  C
  H222     1.0000 0.38210  0.76460  0.85870  Biso   1.000  H
  C374     1.0000 0.41860  0.80170  0.82600  Biso   1.000  C
  H223     1.0000 0.21990  0.84250  0.74360  Biso   1.000  H
  C375     1.0000 0.18420  0.80380  0.77770  Biso   1.000  C
  H224     1.0000 0.11050  0.94740  0.85880  Biso   1.000  H
  C376     1.0000 0.03360  0.94790  0.93910  Biso   1.000  C
  C377     1.0000 0.59890  0.59550  0.68850  Biso   1.000  C
  C378     1.0000 0.43070  0.84850  0.78340  Biso   1.000  C
  C379     1.0000 0.43600  0.75650  0.86920  Biso   1.000  C
  C380     1.0000 0.17110  0.75680  0.82250  Biso   1.000  C
  C381     1.0000 0.16540  0.84950  0.73410  Biso   1.000  C
  C382     1.0000 0.00770  0.91310  0.99980  Biso   1.000  C
  H225     1.0000 0.58040  0.57380  0.72930  Biso   1.000  H
  H226     1.0000 0.41870  0.87960  0.75410  Biso   1.000  H
  C383     1.0000 0.45910  0.85180  0.78150  Biso   1.000  C
  C384     1.0000 0.46700  0.75520  0.86970  Biso   1.000  C
  H227     1.0000 0.42660  0.72550  0.89930  Biso   1.000  H
  C385     1.0000 0.14250  0.75420  0.82320  Biso   1.000  C
  H228     1.0000 0.18170  0.72660  0.85250  Biso   1.000  H
  C386     1.0000 0.13580  0.84920  0.73440  Biso   1.000  C
  H229     1.0000 0.17360  0.88140  0.70380  Biso   1.000  H
  H230     1.0000 0.03090  0.87260  0.01730  Biso   1.000  H
  C387     1.0000 0.47250  0.90170  0.73340  Biso   1.000  C
  C388     1.0000 0.47770  0.80600  0.82360  Biso   1.000  C
  C389     1.0000 0.48930  0.70580  0.91280  Biso   1.000  C
  C390     1.0000 0.13060  0.70200  0.87150  Biso   1.000  C
  C391     1.0000 0.12420  0.80020  0.77970  Biso   1.000  C
  C392     1.0000 0.11450  0.89970  0.68940  Biso   1.000  C
  C393     1.0000 0.46120  0.94750  0.68970  Biso   1.000  C
  H231     1.0000 0.49310  0.89920  0.73560  Biso   1.000  H
  H232     1.0000 0.49750  0.80750  0.82270  Biso   1.000  H
  C394     1.0000 0.47990  0.65980  0.95790  Biso   1.000  C
  H233     1.0000 0.51260  0.70760  0.90710  Biso   1.000  H
  C395     1.0000 0.11190  0.68930  0.87450  Biso   1.000  C
  H234     1.0000 0.13780  0.67610  0.90270  Biso   1.000  H
  H235     1.0000 0.10460  0.79860  0.78040  Biso   1.000  H
  H236     1.0000 0.12720  0.92830  0.65850  Biso   1.000  H
  C396     1.0000 0.08150  0.90850  0.68780  Biso   1.000  C
  H237     1.0000 0.43840  0.95250  0.68800  Biso   1.000  H
  C397     1.0000 0.47990  0.99480  0.64050  Biso   1.000  C
  H238     1.0000 0.45550  0.65820  0.96490  Biso   1.000  H
  C398     1.0000 0.50600  0.60790  0.00080  Biso   1.000  C
  H239     1.0000 0.11040  0.71120  0.84100  Biso   1.000  H
  C399     1.0000 0.09190  0.64210  0.92740  Biso   1.000  C
  C400     1.0000 0.06140  0.96070  0.64100  Biso   1.000  C
  H240     1.0000 0.06850  0.88020  0.71810  Biso   1.000  H
  O153     1.0000 0.50780  0.99060  0.64320  Biso   1.000  O
  O154     1.0000 0.46870  0.03300  0.59720  Biso   1.000  O
  O155     1.0000 0.53510  0.61330  0.99210  Biso   1.000  O
  O156     1.0000 0.49160  0.56760  0.04000  Biso   1.000  O
  O157     1.0000 0.06480  0.64330  0.92640  Biso   1.000  O
  O158     1.0000 0.10570  0.60480  0.96740  Biso   1.000  O
  O159     1.0000 0.07580  0.00100  0.60180  Biso   1.000  O
  O160     1.0000 0.02740  0.96230  0.64760  Biso   1.000  O
  Cu39     1.0000 0.54410  0.04443  0.57465  Biso   1.000  Cu
  Cu40     1.0000 0.49305  0.09525  0.52548  Biso   1.000  Cu
  Cu41     1.0000 0.84356  0.31347  0.75114  Biso   1.000  Cu
  O161     1.0000 0.77870  0.39090  0.72750  Biso   1.000  O
  Cu42     1.0000 0.75495  0.29135  0.85735  Biso   1.000  Cu
  O162     1.0000 0.83240  0.34310  0.77630  Biso   1.000  O
  O163     1.0000 0.84190  0.27960  0.74310  Biso   1.000  O
  O164     1.0000 0.89410  0.23310  0.79020  Biso   1.000  O
  C401     1.0000 0.72430  0.40520  0.76460  Biso   1.000  C
  O165     1.0000 0.70320  0.37320  0.81960  Biso   1.000  O
  O166     1.0000 0.81860  0.21380  0.87940  Biso   1.000  O
  O167     1.0000 0.76010  0.32090  0.86710  Biso   1.000  O
  O168     1.0000 0.76290  0.26600  0.83030  Biso   1.000  O
  C402     1.0000 0.79370  0.34240  0.82640  Biso   1.000  C
  C403     1.0000 0.80370  0.26280  0.78350  Biso   1.000  C
  C404     1.0000 0.87360  0.19900  0.84440  Biso   1.000  C
  C405     1.0000 0.68210  0.46660  0.74120  Biso   1.000  C
  C406     1.0000 0.79200  0.36810  0.83590  Biso   1.000  C
  C407     1.0000 0.81040  0.23370  0.77220  Biso   1.000  C
  C408     1.0000 0.91470  0.13860  0.86660  Biso   1.000  C
  H241     1.0000 0.64230  0.48030  0.76780  Biso   1.000  H
  C409     1.0000 0.69820  0.50250  0.68450  Biso   1.000  C
  C410     1.0000 0.82780  0.38780  0.79820  Biso   1.000  C
  H242     1.0000 0.76300  0.37000  0.87160  Biso   1.000  H
  H243     1.0000 0.84160  0.23000  0.73730  Biso   1.000  H
  C411     1.0000 0.77490  0.21430  0.80870  Biso   1.000  C
  C412     1.0000 0.89920  0.09790  0.92170  Biso   1.000  C
  H244     1.0000 0.95500  0.12750  0.84030  Biso   1.000  H
  H245     1.0000 0.73790  0.48620  0.65940  Biso   1.000  H
  C413     1.0000 0.66150  0.56610  0.65480  Biso   1.000  C
  H246     1.0000 0.85870  0.38210  0.76460  Biso   1.000  H
  C414     1.0000 0.82600  0.41860  0.80170  Biso   1.000  C
  H247     1.0000 0.74360  0.21990  0.84250  Biso   1.000  H
  C415     1.0000 0.77770  0.18420  0.80380  Biso   1.000  C
  H248     1.0000 0.85880  0.11050  0.94740  Biso   1.000  H
  C416     1.0000 0.93910  0.03360  0.94790  Biso   1.000  C
  C417     1.0000 0.68850  0.59890  0.59550  Biso   1.000  C
  C418     1.0000 0.78340  0.43070  0.84850  Biso   1.000  C
  C419     1.0000 0.86920  0.43600  0.75650  Biso   1.000  C
  C420     1.0000 0.82250  0.17110  0.75680  Biso   1.000  C
  C421     1.0000 0.73410  0.16540  0.84950  Biso   1.000  C
  C422     1.0000 0.99980  0.00770  0.91310  Biso   1.000  C
  H249     1.0000 0.72930  0.58040  0.57380  Biso   1.000  H
  H250     1.0000 0.75410  0.41870  0.87960  Biso   1.000  H
  C423     1.0000 0.78150  0.45910  0.85180  Biso   1.000  C
  C424     1.0000 0.86970  0.46700  0.75520  Biso   1.000  C
  H251     1.0000 0.89930  0.42660  0.72550  Biso   1.000  H
  C425     1.0000 0.82320  0.14250  0.75420  Biso   1.000  C
  H252     1.0000 0.85250  0.18170  0.72660  Biso   1.000  H
  C426     1.0000 0.73440  0.13580  0.84920  Biso   1.000  C
  H253     1.0000 0.70380  0.17360  0.88140  Biso   1.000  H
  H254     1.0000 0.01730  0.03090  0.87260  Biso   1.000  H
  C427     1.0000 0.73340  0.47250  0.90170  Biso   1.000  C
  C428     1.0000 0.82360  0.47770  0.80600  Biso   1.000  C
  C429     1.0000 0.91280  0.48930  0.70580  Biso   1.000  C
  C430     1.0000 0.87150  0.13060  0.70200  Biso   1.000  C
  C431     1.0000 0.77970  0.12420  0.80020  Biso   1.000  C
  C432     1.0000 0.68940  0.11450  0.89970  Biso   1.000  C
  C433     1.0000 0.68970  0.46120  0.94750  Biso   1.000  C
  H255     1.0000 0.73560  0.49310  0.89920  Biso   1.000  H
  H256     1.0000 0.82270  0.49750  0.80750  Biso   1.000  H
  C434     1.0000 0.95790  0.47990  0.65980  Biso   1.000  C
  H257     1.0000 0.90710  0.51260  0.70760  Biso   1.000  H
  C435     1.0000 0.87450  0.11190  0.68930  Biso   1.000  C
  H258     1.0000 0.90270  0.13780  0.67610  Biso   1.000  H
  H259     1.0000 0.78040  0.10460  0.79860  Biso   1.000  H
  H260     1.0000 0.65850  0.12720  0.92830  Biso   1.000  H
  C436     1.0000 0.68780  0.08150  0.90850  Biso   1.000  C
  H261     1.0000 0.68800  0.43840  0.95250  Biso   1.000  H
  C437     1.0000 0.64050  0.47990  0.99480  Biso   1.000  C
  H262     1.0000 0.96490  0.45550  0.65820  Biso   1.000  H
  C438     1.0000 0.00080  0.50600  0.60790  Biso   1.000  C
  H263     1.0000 0.84100  0.11040  0.71120  Biso   1.000  H
  C439     1.0000 0.92740  0.09190  0.64210  Biso   1.000  C
  C440     1.0000 0.64100  0.06140  0.96070  Biso   1.000  C
  H264     1.0000 0.71810  0.06850  0.88020  Biso   1.000  H
  O169     1.0000 0.64320  0.50780  0.99060  Biso   1.000  O
  O170     1.0000 0.59720  0.46870  0.03300  Biso   1.000  O
  O171     1.0000 0.99210  0.53510  0.61330  Biso   1.000  O
  O172     1.0000 0.04000  0.49160  0.56760  Biso   1.000  O
  O173     1.0000 0.92640  0.06480  0.64330  Biso   1.000  O
  O174     1.0000 0.96740  0.10570  0.60480  Biso   1.000  O
  O175     1.0000 0.60180  0.07580  0.00100  Biso   1.000  O
  O176     1.0000 0.64760  0.02740  0.96230  Biso   1.000  O
  Cu43     1.0000 0.57465  0.54410  0.04443  Biso   1.000  Cu
  Cu44     1.0000 0.52548  0.49305  0.09525  Biso   1.000  Cu
  Cu45     1.0000 0.75114  0.84356  0.31347  Biso   1.000  Cu
  O177     1.0000 0.72750  0.77870  0.39090  Biso   1.000  O
  Cu46     1.0000 0.85735  0.75495  0.29135  Biso   1.000  Cu
  O178     1.0000 0.77630  0.83240  0.34310  Biso   1.000  O
  O179     1.0000 0.74310  0.84190  0.27960  Biso   1.000  O
  O180     1.0000 0.79020  0.89410  0.23310  Biso   1.000  O
  C441     1.0000 0.76460  0.72430  0.40520  Biso   1.000  C
  O181     1.0000 0.81960  0.70320  0.37320  Biso   1.000  O
  O182     1.0000 0.87940  0.81860  0.21380  Biso   1.000  O
  O183     1.0000 0.86710  0.76010  0.32090  Biso   1.000  O
  O184     1.0000 0.83030  0.76290  0.26600  Biso   1.000  O
  C442     1.0000 0.82640  0.79370  0.34240  Biso   1.000  C
  C443     1.0000 0.78350  0.80370  0.26280  Biso   1.000  C
  C444     1.0000 0.84440  0.87360  0.19900  Biso   1.000  C
  C445     1.0000 0.74120  0.68210  0.46660  Biso   1.000  C
  C446     1.0000 0.83590  0.79200  0.36810  Biso   1.000  C
  C447     1.0000 0.77220  0.81040  0.23370  Biso   1.000  C
  C448     1.0000 0.86660  0.91470  0.13860  Biso   1.000  C
  H265     1.0000 0.76780  0.64230  0.48030  Biso   1.000  H
  C449     1.0000 0.68450  0.69820  0.50250  Biso   1.000  C
  C450     1.0000 0.79820  0.82780  0.38780  Biso   1.000  C
  H266     1.0000 0.87160  0.76300  0.37000  Biso   1.000  H
  H267     1.0000 0.73730  0.84160  0.23000  Biso   1.000  H
  C451     1.0000 0.80870  0.77490  0.21430  Biso   1.000  C
  C452     1.0000 0.92170  0.89920  0.09790  Biso   1.000  C
  H268     1.0000 0.84030  0.95500  0.12750  Biso   1.000  H
  H269     1.0000 0.65940  0.73790  0.48620  Biso   1.000  H
  C453     1.0000 0.65480  0.66150  0.56610  Biso   1.000  C
  H270     1.0000 0.76460  0.85870  0.38210  Biso   1.000  H
  C454     1.0000 0.80170  0.82600  0.41860  Biso   1.000  C
  H271     1.0000 0.84250  0.74360  0.21990  Biso   1.000  H
  C455     1.0000 0.80380  0.77770  0.18420  Biso   1.000  C
  H272     1.0000 0.94740  0.85880  0.11050  Biso   1.000  H
  C456     1.0000 0.94790  0.93910  0.03360  Biso   1.000  C
  C457     1.0000 0.59550  0.68850  0.59890  Biso   1.000  C
  C458     1.0000 0.84850  0.78340  0.43070  Biso   1.000  C
  C459     1.0000 0.75650  0.86920  0.43600  Biso   1.000  C
  C460     1.0000 0.75680  0.82250  0.17110  Biso   1.000  C
  C461     1.0000 0.84950  0.73410  0.16540  Biso   1.000  C
  C462     1.0000 0.91310  0.99980  0.00770  Biso   1.000  C
  H273     1.0000 0.57380  0.72930  0.58040  Biso   1.000  H
  H274     1.0000 0.87960  0.75410  0.41870  Biso   1.000  H
  C463     1.0000 0.85180  0.78150  0.45910  Biso   1.000  C
  C464     1.0000 0.75520  0.86970  0.46700  Biso   1.000  C
  H275     1.0000 0.72550  0.89930  0.42660  Biso   1.000  H
  C465     1.0000 0.75420  0.82320  0.14250  Biso   1.000  C
  H276     1.0000 0.72660  0.85250  0.18170  Biso   1.000  H
  C466     1.0000 0.84920  0.73440  0.13580  Biso   1.000  C
  H277     1.0000 0.88140  0.70380  0.17360  Biso   1.000  H
  H278     1.0000 0.87260  0.01730  0.03090  Biso   1.000  H
  C467     1.0000 0.90170  0.73340  0.47250  Biso   1.000  C
  C468     1.0000 0.80600  0.82360  0.47770  Biso   1.000  C
  C469     1.0000 0.70580  0.91280  0.48930  Biso   1.000  C
  C470     1.0000 0.70200  0.87150  0.13060  Biso   1.000  C
  C471     1.0000 0.80020  0.77970  0.12420  Biso   1.000  C
  C472     1.0000 0.89970  0.68940  0.11450  Biso   1.000  C
  C473     1.0000 0.94750  0.68970  0.46120  Biso   1.000  C
  H279     1.0000 0.89920  0.73560  0.49310  Biso   1.000  H
  H280     1.0000 0.80750  0.82270  0.49750  Biso   1.000  H
  C474     1.0000 0.65980  0.95790  0.47990  Biso   1.000  C
  H281     1.0000 0.70760  0.90710  0.51260  Biso   1.000  H
  C475     1.0000 0.68930  0.87450  0.11190  Biso   1.000  C
  H282     1.0000 0.67610  0.90270  0.13780  Biso   1.000  H
  H283     1.0000 0.79860  0.78040  0.10460  Biso   1.000  H
  H284     1.0000 0.92830  0.65850  0.12720  Biso   1.000  H
  C476     1.0000 0.90850  0.68780  0.08150  Biso   1.000  C
  H285     1.0000 0.95250  0.68800  0.43840  Biso   1.000  H
  C477     1.0000 0.99480  0.64050  0.47990  Biso   1.000  C
  H286     1.0000 0.65820  0.96490  0.45550  Biso   1.000  H
  C478     1.0000 0.60790  0.00080  0.50600  Biso   1.000  C
  H287     1.0000 0.71120  0.84100  0.11040  Biso   1.000  H
  C479     1.0000 0.64210  0.92740  0.09190  Biso   1.000  C
  C480     1.0000 0.96070  0.64100  0.06140  Biso   1.000  C
  H288     1.0000 0.88020  0.71810  0.06850  Biso   1.000  H
  O185     1.0000 0.99060  0.64320  0.50780  Biso   1.000  O
  O186     1.0000 0.03300  0.59720  0.46870  Biso   1.000  O
  O187     1.0000 0.61330  0.99210  0.53510  Biso   1.000  O
  O188     1.0000 0.56760  0.04000  0.49160  Biso   1.000  O
  O189     1.0000 0.64330  0.92640  0.06480  Biso   1.000  O
  O190     1.0000 0.60480  0.96740  0.10570  Biso   1.000  O
  O191     1.0000 0.00100  0.60180  0.07580  Biso   1.000  O
  O192     1.0000 0.96230  0.64760  0.02740  Biso   1.000  O
  Cu47     1.0000 0.04443  0.57465  0.54410  Biso   1.000  Cu
  Cu48     1.0000 0.09525  0.52548  0.49305  Biso   1.000  Cu
