data_image0
_cell_length_a       47.899
_cell_length_b       47.899
_cell_length_c       14.1778
_cell_angle_alpha    90
_cell_angle_beta     90
_cell_angle_gamma    120

_symmetry_space_group_name_H-M    "P 1"
_symmetry_int_tables_number       1

loop_
  _symmetry_equiv_pos_as_xyz
  'x, y, z'

loop_
  _atom_site_label
  _atom_site_occupancy
  _atom_site_fract_x
  _atom_site_fract_y
  _atom_site_fract_z
  _atom_site_thermal_displace_type
  _atom_site_B_iso_or_equiv
  _atom_site_type_symbol
  Mn1      1.0000 0.52945  0.02893  0.98488  Biso   1.000  Mn
  Mn2      1.0000 0.46609  0.02846  0.92329  Biso   1.000  Mn
  Mn3      1.0000 0.44864  0.02032  0.69743  Biso   1.000  Mn
  Mn4      1.0000 0.45245  0.96237  0.79972  Biso   1.000  Mn
  Mn5      1.0000 0.52102  0.03079  0.76197  Biso   1.000  Mn
  N1       1.0000 0.29227  0.91472  0.02250  Biso   1.000  N
  N2       1.0000 0.58420  0.20255  0.85950  Biso   1.000  N
  O1       1.0000 0.48830  0.05131  0.80990  Biso   1.000  O
  O2       1.0000 0.49233  0.99976  0.91120  Biso   1.000  O
  O3       1.0000 0.50090  0.05599  0.00570  Biso   1.000  O
  O4       1.0000 0.41050  0.97747  0.63390  Biso   1.000  O
  O5       1.0000 0.41126  0.93666  0.71190  Biso   1.000  O
  O6       1.0000 0.44671  0.00211  0.03430  Biso   1.000  O
  O7       1.0000 0.43364  0.99696  0.83890  Biso   1.000  O
  O8       1.0000 0.43522  0.94401  0.93350  Biso   1.000  O
  O9       1.0000 0.44143  0.05517  0.93700  Biso   1.000  O
  O10      1.0000 0.44502  0.06469  0.09300  Biso   1.000  O
  O11      1.0000 0.56238  0.97152  0.73180  Biso   1.000  O
  O12      1.0000 0.54824  0.05605  0.87660  Biso   1.000  O
  O13      1.0000 0.47802  0.99747  0.69690  Biso   1.000  O
  O14      1.0000 0.49819  0.90627  0.78400  Biso   1.000  O
  C1       1.0000 0.31370  0.91360  0.08020  Biso   1.000  C
  H1       1.0000 0.30610  0.90170  0.13810  Biso   1.000  H
  C2       1.0000 0.30310  0.93200  0.94460  Biso   1.000  C
  H2       1.0000 0.28820  0.93340  0.90240  Biso   1.000  H
  C3       1.0000 0.44960  0.89150  0.69750  Biso   1.000  C
  H3       1.0000 0.43580  0.90040  0.68670  Biso   1.000  H
  H4       1.0000 0.43750  0.87080  0.72710  Biso   1.000  H
  H5       1.0000 0.45800  0.88920  0.63840  Biso   1.000  H
  C4       1.0000 0.57130  0.18920  0.93820  Biso   1.000  C
  H6       1.0000 0.57250  0.20250  0.98780  Biso   1.000  H
  C5       1.0000 0.58020  0.18290  0.78220  Biso   1.000  C
  H7       1.0000 0.58860  0.19140  0.72310  Biso   1.000  H
  C6       1.0000 0.37690  0.92430  0.58320  Biso   1.000  C
  H8       1.0000 0.37080  0.93490  0.53710  Biso   1.000  H
  H9       1.0000 0.35830  0.90940  0.61880  Biso   1.000  H
  H10      1.0000 0.38590  0.91280  0.55190  Biso   1.000  H
  C7       1.0000 0.55590  0.15650  0.95410  Biso   1.000  C
  H11      1.0000 0.54840  0.14840  0.01420  Biso   1.000  H
  C8       1.0000 0.41790  0.08420  0.99680  Biso   1.000  C
  H12      1.0000 0.41510  0.09200  0.05640  Biso   1.000  H
  H13      1.0000 0.39720  0.06980  0.96990  Biso   1.000  H
  H14      1.0000 0.42980  0.10200  0.95500  Biso   1.000  H
  C9       1.0000 0.34580  0.92860  0.06170  Biso   1.000  C
  H15      1.0000 0.36000  0.92690  0.10610  Biso   1.000  H
  C10      1.0000 0.33730  0.94880  0.92060  Biso   1.000  C
  H16      1.0000 0.34540  0.96100  0.86360  Biso   1.000  H
  C11      1.0000 0.55150  0.13591  0.88060  Biso   1.000  C
  C12      1.0000 0.56350  0.15080  0.79820  Biso   1.000  C
  H17      1.0000 0.55980  0.13760  0.74620  Biso   1.000  H
  C13      1.0000 0.47650  0.91330  0.75950  Biso   1.000  C
  C14      1.0000 0.43610  0.06650  0.01150  Biso   1.000  C
  C15      1.0000 0.53332  0.09858  0.89000  Biso   1.000  C
  C16      1.0000 0.57529  0.01310  0.61970  Biso   1.000  C
  H18      1.0000 0.57100  0.03050  0.61230  Biso   1.000  H
  H19      1.0000 0.56670  0.99880  0.56680  Biso   1.000  H
  H20      1.0000 0.59810  0.02160  0.62320  Biso   1.000  H
  C17      1.0000 0.40121  0.94848  0.64720  Biso   1.000  C
  C18      1.0000 0.48229  0.98524  0.60680  Biso   1.000  C
  H21      1.0000 0.49560  0.97570  0.61580  Biso   1.000  H
  H22      1.0000 0.49240  0.00270  0.56250  Biso   1.000  H
  H23      1.0000 0.46160  0.96930  0.58290  Biso   1.000  H
  C19      1.0000 0.50690  0.08552  0.81580  Biso   1.000  C
  H24      1.0000 0.49250  0.09380  0.82890  Biso   1.000  H
  H25      1.0000 0.51670  0.09380  0.75470  Biso   1.000  H
  C20      1.0000 0.40048  0.98078  0.87120  Biso   1.000  C
  H26      1.0000 0.38690  0.96610  0.82220  Biso   1.000  H
  H27      1.0000 0.39390  0.99670  0.88070  Biso   1.000  H
  C21      1.0000 0.35837  0.94598  0.98450  Biso   1.000  C
  C22      1.0000 0.51832  0.08988  0.99430  Biso   1.000  C
  H28      1.0000 0.53550  0.09940  0.04060  Biso   1.000  H
  H29      1.0000 0.50410  0.09860  0.00400  Biso   1.000  H
  C23      1.0000 0.56022  0.99563  0.70580  Biso   1.000  C
  C24      1.0000 0.55920  0.08970  0.87890  Biso   1.000  C
  H30      1.0000 0.57090  0.09930  0.82100  Biso   1.000  H
  H31      1.0000 0.57430  0.09920  0.93070  Biso   1.000  H
  C25      1.0000 0.40256  0.93468  0.95560  Biso   1.000  C
  H32      1.0000 0.39710  0.92340  0.01550  Biso   1.000  H
  H33      1.0000 0.38870  0.91950  0.90800  Biso   1.000  H
  C26      1.0000 0.41236  0.98414  0.04670  Biso   1.000  C
  H34      1.0000 0.40440  0.99900  0.05520  Biso   1.000  H
  H35      1.0000 0.40730  0.97110  0.10330  Biso   1.000  H
  C27      1.0000 0.39493  0.96196  0.96170  Biso   1.000  C
  O15      1.0000 0.47956  0.93847  0.78770  Biso   1.000  O
  O16      1.0000 0.54216  0.00113  0.75600  Biso   1.000  O
  Mn6      1.0000 0.52854  0.95696  0.85577  Biso   1.000  Mn
  C28      1.0000 0.30290  0.89290  0.01620  Biso   1.000  C
  H36      1.0000 0.28810  0.87010  0.01890  Biso   1.000  H
  C29      1.0000 0.30790  0.94070  0.02250  Biso   1.000  C
  H37      1.0000 0.29840  0.95390  0.03540  Biso   1.000  H
  C30      1.0000 0.33950  0.90810  0.99360  Biso   1.000  C
  H38      1.0000 0.35000  0.89550  0.99160  Biso   1.000  H
  C31      1.0000 0.34240  0.95660  0.99890  Biso   1.000  C
  H39      1.0000 0.35320  0.97970  0.99480  Biso   1.000  H
  Mn7      1.0000 0.19612  0.36226  0.31821  Biso   1.000  Mn
  Mn8      1.0000 0.13276  0.36179  0.25662  Biso   1.000  Mn
  Mn9      1.0000 0.11531  0.35365  0.03076  Biso   1.000  Mn
  Mn10     1.0000 0.11912  0.29570  0.13305  Biso   1.000  Mn
  Mn11     1.0000 0.18769  0.36412  0.09530  Biso   1.000  Mn
  N3       1.0000 0.95894  0.24805  0.35583  Biso   1.000  N
  N4       1.0000 0.25087  0.53588  0.19283  Biso   1.000  N
  O17      1.0000 0.15497  0.38464  0.14323  Biso   1.000  O
  O18      1.0000 0.15900  0.33309  0.24453  Biso   1.000  O
  O19      1.0000 0.16757  0.38932  0.33903  Biso   1.000  O
  O20      1.0000 0.07717  0.31080  0.96723  Biso   1.000  O
  O21      1.0000 0.07793  0.26999  0.04523  Biso   1.000  O
  O22      1.0000 0.11338  0.33544  0.36763  Biso   1.000  O
  O23      1.0000 0.10031  0.33029  0.17223  Biso   1.000  O
  O24      1.0000 0.10189  0.27734  0.26683  Biso   1.000  O
  O25      1.0000 0.10810  0.38850  0.27033  Biso   1.000  O
  O26      1.0000 0.11169  0.39802  0.42633  Biso   1.000  O
  O27      1.0000 0.22905  0.30485  0.06513  Biso   1.000  O
  O28      1.0000 0.21491  0.38938  0.20993  Biso   1.000  O
  O29      1.0000 0.14469  0.33080  0.03023  Biso   1.000  O
  O30      1.0000 0.16486  0.23960  0.11733  Biso   1.000  O
  C32      1.0000 0.98037  0.24693  0.41353  Biso   1.000  C
  H40      1.0000 0.97277  0.23503  0.47143  Biso   1.000  H
  C33      1.0000 0.96977  0.26533  0.27793  Biso   1.000  C
  H41      1.0000 0.95487  0.26673  0.23573  Biso   1.000  H
  C34      1.0000 0.11627  0.22483  0.03083  Biso   1.000  C
  H42      1.0000 0.10247  0.23373  0.02003  Biso   1.000  H
  H43      1.0000 0.10417  0.20413  0.06043  Biso   1.000  H
  H44      1.0000 0.12467  0.22253  0.97173  Biso   1.000  H
  C35      1.0000 0.23797  0.52253  0.27153  Biso   1.000  C
  H45      1.0000 0.23917  0.53583  0.32113  Biso   1.000  H
  C36      1.0000 0.24687  0.51623  0.11553  Biso   1.000  C
  H46      1.0000 0.25527  0.52473  0.05643  Biso   1.000  H
  C37      1.0000 0.04357  0.25763  0.91653  Biso   1.000  C
  H47      1.0000 0.03747  0.26823  0.87043  Biso   1.000  H
  H48      1.0000 0.02497  0.24273  0.95213  Biso   1.000  H
  H49      1.0000 0.05257  0.24613  0.88523  Biso   1.000  H
  C38      1.0000 0.22257  0.48983  0.28743  Biso   1.000  C
  H50      1.0000 0.21507  0.48173  0.34753  Biso   1.000  H
  C39      1.0000 0.08457  0.41753  0.33013  Biso   1.000  C
  H51      1.0000 0.08177  0.42533  0.38973  Biso   1.000  H
  H52      1.0000 0.06387  0.40313  0.30323  Biso   1.000  H
  H53      1.0000 0.09647  0.43533  0.28833  Biso   1.000  H
  C40      1.0000 0.01247  0.26193  0.39503  Biso   1.000  C
  H54      1.0000 0.02667  0.26023  0.43943  Biso   1.000  H
  C41      1.0000 0.00397  0.28213  0.25393  Biso   1.000  C
  H55      1.0000 0.01207  0.29433  0.19693  Biso   1.000  H
  C42      1.0000 0.21817  0.46924  0.21393  Biso   1.000  C
  C43      1.0000 0.23017  0.48413  0.13153  Biso   1.000  C
  H56      1.0000 0.22647  0.47093  0.07953  Biso   1.000  H
  C44      1.0000 0.14317  0.24663  0.09283  Biso   1.000  C
  C45      1.0000 0.10277  0.39983  0.34483  Biso   1.000  C
  C46      1.0000 0.19999  0.43191  0.22333  Biso   1.000  C
  C47      1.0000 0.24196  0.34643  0.95303  Biso   1.000  C
  H57      1.0000 0.23767  0.36383  0.94563  Biso   1.000  H
  H58      1.0000 0.23337  0.33213  0.90013  Biso   1.000  H
  H59      1.0000 0.26477  0.35493  0.95653  Biso   1.000  H
  C48      1.0000 0.06788  0.28181  0.98053  Biso   1.000  C
  C49      1.0000 0.14896  0.31857  0.94013  Biso   1.000  C
  H60      1.0000 0.16227  0.30903  0.94913  Biso   1.000  H
  H61      1.0000 0.15907  0.33603  0.89583  Biso   1.000  H
  H62      1.0000 0.12827  0.30263  0.91623  Biso   1.000  H
  C50      1.0000 0.17357  0.41885  0.14913  Biso   1.000  C
  H63      1.0000 0.15917  0.42713  0.16223  Biso   1.000  H
  H64      1.0000 0.18337  0.42713  0.08803  Biso   1.000  H
  C51      1.0000 0.06715  0.31411  0.20453  Biso   1.000  C
  H65      1.0000 0.05357  0.29943  0.15553  Biso   1.000  H
  H66      1.0000 0.06057  0.33003  0.21403  Biso   1.000  H
  C52      1.0000 0.02504  0.27931  0.31783  Biso   1.000  C
  C53      1.0000 0.18499  0.42321  0.32763  Biso   1.000  C
  H67      1.0000 0.20217  0.43273  0.37393  Biso   1.000  H
  H68      1.0000 0.17077  0.43193  0.33733  Biso   1.000  H
  C54      1.0000 0.22689  0.32896  0.03913  Biso   1.000  C
  C55      1.0000 0.22587  0.42303  0.21223  Biso   1.000  C
  H69      1.0000 0.23757  0.43263  0.15433  Biso   1.000  H
  H70      1.0000 0.24097  0.43253  0.26403  Biso   1.000  H
  C56      1.0000 0.06923  0.26801  0.28893  Biso   1.000  C
  H71      1.0000 0.06377  0.25673  0.34883  Biso   1.000  H
  H72      1.0000 0.05537  0.25283  0.24133  Biso   1.000  H
  C57      1.0000 0.07903  0.31747  0.38003  Biso   1.000  C
  H73      1.0000 0.07107  0.33233  0.38853  Biso   1.000  H
  H74      1.0000 0.07397  0.30443  0.43663  Biso   1.000  H
  C58      1.0000 0.06160  0.29529  0.29503  Biso   1.000  C
  O31      1.0000 0.14623  0.27180  0.12103  Biso   1.000  O
  O32      1.0000 0.20883  0.33446  0.08933  Biso   1.000  O
  Mn12     1.0000 0.19521  0.29029  0.18910  Biso   1.000  Mn
  C59      1.0000 0.96957  0.22623  0.34953  Biso   1.000  C
  H75      1.0000 0.95477  0.20343  0.35223  Biso   1.000  H
  C60      1.0000 0.97457  0.27403  0.35583  Biso   1.000  C
  H76      1.0000 0.96507  0.28723  0.36873  Biso   1.000  H
  C61      1.0000 0.00617  0.24143  0.32693  Biso   1.000  C
  H77      1.0000 0.01667  0.22883  0.32493  Biso   1.000  H
  C62      1.0000 0.00907  0.28993  0.33223  Biso   1.000  C
  H78      1.0000 0.01987  0.31303  0.32813  Biso   1.000  H
  Mn13     1.0000 0.86278  0.69560  0.65155  Biso   1.000  Mn
  Mn14     1.0000 0.79942  0.69513  0.58996  Biso   1.000  Mn
  Mn15     1.0000 0.78197  0.68699  0.36410  Biso   1.000  Mn
  Mn16     1.0000 0.78578  0.62904  0.46639  Biso   1.000  Mn
  Mn17     1.0000 0.85435  0.69746  0.42864  Biso   1.000  Mn
  N5       1.0000 0.62560  0.58139  0.68917  Biso   1.000  N
  N6       1.0000 0.91753  0.86922  0.52617  Biso   1.000  N
  O33      1.0000 0.82163  0.71798  0.47657  Biso   1.000  O
  O34      1.0000 0.82566  0.66643  0.57787  Biso   1.000  O
  O35      1.0000 0.83423  0.72266  0.67237  Biso   1.000  O
  O36      1.0000 0.74383  0.64414  0.30057  Biso   1.000  O
  O37      1.0000 0.74459  0.60333  0.37857  Biso   1.000  O
  O38      1.0000 0.78004  0.66878  0.70097  Biso   1.000  O
  O39      1.0000 0.76697  0.66363  0.50557  Biso   1.000  O
  O40      1.0000 0.76855  0.61068  0.60017  Biso   1.000  O
  O41      1.0000 0.77476  0.72184  0.60367  Biso   1.000  O
  O42      1.0000 0.77835  0.73136  0.75967  Biso   1.000  O
  O43      1.0000 0.89571  0.63819  0.39847  Biso   1.000  O
  O44      1.0000 0.88157  0.72272  0.54327  Biso   1.000  O
  O45      1.0000 0.81135  0.66414  0.36357  Biso   1.000  O
  O46      1.0000 0.83152  0.57294  0.45067  Biso   1.000  O
  C63      1.0000 0.64703  0.58027  0.74687  Biso   1.000  C
  H79      1.0000 0.63943  0.56837  0.80477  Biso   1.000  H
  C64      1.0000 0.63643  0.59867  0.61127  Biso   1.000  C
  H80      1.0000 0.62153  0.60007  0.56907  Biso   1.000  H
  C65      1.0000 0.78293  0.55817  0.36417  Biso   1.000  C
  H81      1.0000 0.76913  0.56707  0.35337  Biso   1.000  H
  H82      1.0000 0.77083  0.53747  0.39377  Biso   1.000  H
  H83      1.0000 0.79133  0.55587  0.30507  Biso   1.000  H
  C66      1.0000 0.90463  0.85587  0.60487  Biso   1.000  C
  H84      1.0000 0.90583  0.86917  0.65447  Biso   1.000  H
  C67      1.0000 0.91353  0.84957  0.44887  Biso   1.000  C
  H85      1.0000 0.92193  0.85807  0.38977  Biso   1.000  H
  C68      1.0000 0.71023  0.59097  0.24987  Biso   1.000  C
  H86      1.0000 0.70413  0.60157  0.20377  Biso   1.000  H
  H87      1.0000 0.69163  0.57607  0.28547  Biso   1.000  H
  H88      1.0000 0.71923  0.57947  0.21857  Biso   1.000  H
  C69      1.0000 0.88923  0.82317  0.62077  Biso   1.000  C
  H89      1.0000 0.88173  0.81507  0.68087  Biso   1.000  H
  C70      1.0000 0.75123  0.75087  0.66347  Biso   1.000  C
  H90      1.0000 0.74843  0.75867  0.72307  Biso   1.000  H
  H91      1.0000 0.73053  0.73647  0.63657  Biso   1.000  H
  H92      1.0000 0.76313  0.76867  0.62167  Biso   1.000  H
  C71      1.0000 0.67913  0.59527  0.72837  Biso   1.000  C
  H93      1.0000 0.69333  0.59357  0.77277  Biso   1.000  H
  C72      1.0000 0.67063  0.61547  0.58727  Biso   1.000  C
  H94      1.0000 0.67873  0.62767  0.53027  Biso   1.000  H
  C73      1.0000 0.88483  0.80258  0.54727  Biso   1.000  C
  C74      1.0000 0.89683  0.81747  0.46487  Biso   1.000  C
  H95      1.0000 0.89313  0.80427  0.41287  Biso   1.000  H
  C75      1.0000 0.80983  0.57997  0.42617  Biso   1.000  C
  C76      1.0000 0.76943  0.73317  0.67817  Biso   1.000  C
  C77      1.0000 0.86665  0.76525  0.55667  Biso   1.000  C
  C78      1.0000 0.90862  0.67977  0.28637  Biso   1.000  C
  H96      1.0000 0.90433  0.69717  0.27897  Biso   1.000  H
  H97      1.0000 0.90003  0.66547  0.23347  Biso   1.000  H
  H98      1.0000 0.93143  0.68827  0.28987  Biso   1.000  H
  C79      1.0000 0.73454  0.61515  0.31387  Biso   1.000  C
  C80      1.0000 0.81562  0.65191  0.27347  Biso   1.000  C
  H99      1.0000 0.82893  0.64237  0.28247  Biso   1.000  H
  H100     1.0000 0.82573  0.66937  0.22917  Biso   1.000  H
  H101     1.0000 0.79493  0.63597  0.24957  Biso   1.000  H
  C81      1.0000 0.84023  0.75219  0.48247  Biso   1.000  C
  H102     1.0000 0.82583  0.76047  0.49557  Biso   1.000  H
  H103     1.0000 0.85003  0.76047  0.42137  Biso   1.000  H
  C82      1.0000 0.73381  0.64745  0.53787  Biso   1.000  C
  H104     1.0000 0.72023  0.63277  0.48887  Biso   1.000  H
  H105     1.0000 0.72723  0.66337  0.54737  Biso   1.000  H
  C83      1.0000 0.69170  0.61265  0.65117  Biso   1.000  C
  C84      1.0000 0.85165  0.75655  0.66097  Biso   1.000  C
  H106     1.0000 0.86883  0.76607  0.70727  Biso   1.000  H
  H107     1.0000 0.83743  0.76527  0.67067  Biso   1.000  H
  C85      1.0000 0.89355  0.66230  0.37247  Biso   1.000  C
  C86      1.0000 0.89253  0.75637  0.54557  Biso   1.000  C
  H108     1.0000 0.90423  0.76597  0.48767  Biso   1.000  H
  H109     1.0000 0.90763  0.76587  0.59737  Biso   1.000  H
  C87      1.0000 0.73589  0.60135  0.62227  Biso   1.000  C
  H110     1.0000 0.73043  0.59007  0.68217  Biso   1.000  H
  H111     1.0000 0.72203  0.58617  0.57467  Biso   1.000  H
  C88      1.0000 0.74569  0.65081  0.71337  Biso   1.000  C
  H112     1.0000 0.73773  0.66567  0.72187  Biso   1.000  H
  H113     1.0000 0.74063  0.63777  0.76997  Biso   1.000  H
  C89      1.0000 0.72826  0.62863  0.62837  Biso   1.000  C
  O47      1.0000 0.81289  0.60514  0.45437  Biso   1.000  O
  O48      1.0000 0.87549  0.66780  0.42267  Biso   1.000  O
  Mn18     1.0000 0.86187  0.62363  0.52244  Biso   1.000  Mn
  C90      1.0000 0.63623  0.55957  0.68287  Biso   1.000  C
  H114     1.0000 0.62143  0.53677  0.68557  Biso   1.000  H
  C91      1.0000 0.64123  0.60737  0.68917  Biso   1.000  C
  H115     1.0000 0.63173  0.62057  0.70207  Biso   1.000  H
  C92      1.0000 0.67283  0.57477  0.66027  Biso   1.000  C
  H116     1.0000 0.68333  0.56217  0.65827  Biso   1.000  H
  C93      1.0000 0.67573  0.62327  0.66557  Biso   1.000  C
  H117     1.0000 0.68653  0.64637  0.66147  Biso   1.000  H
  Mn19     1.0000 0.97107  0.50052  0.98488  Biso   1.000  Mn
  Mn20     1.0000 0.97154  0.43763  0.92329  Biso   1.000  Mn
  Mn21     1.0000 0.97968  0.42832  0.69743  Biso   1.000  Mn
  Mn22     1.0000 0.03763  0.49008  0.79972  Biso   1.000  Mn
  Mn23     1.0000 0.96921  0.49023  0.76197  Biso   1.000  Mn
  N7       1.0000 0.08528  0.37755  0.02250  Biso   1.000  N
  N8       1.0000 0.79745  0.38165  0.85950  Biso   1.000  N
  O49      1.0000 0.94869  0.43699  0.80990  Biso   1.000  O
  O50      1.0000 0.00024  0.49257  0.91120  Biso   1.000  O
  O51      1.0000 0.94401  0.44491  0.00570  Biso   1.000  O
  O52      1.0000 0.02253  0.43303  0.63390  Biso   1.000  O
  O53      1.0000 0.06334  0.47460  0.71190  Biso   1.000  O
  O54      1.0000 0.99789  0.44460  0.03430  Biso   1.000  O
  O55      1.0000 0.00304  0.43668  0.83890  Biso   1.000  O
  O56      1.0000 0.05599  0.49121  0.93350  Biso   1.000  O
  O57      1.0000 0.94483  0.38626  0.93700  Biso   1.000  O
  O58      1.0000 0.93531  0.38033  0.09300  Biso   1.000  O
  O59      1.0000 0.02848  0.59086  0.73180  Biso   1.000  O
  O60      1.0000 0.94395  0.49219  0.87660  Biso   1.000  O
  O61      1.0000 0.00253  0.48055  0.69690  Biso   1.000  O
  O62      1.0000 0.09373  0.59192  0.78400  Biso   1.000  O
  C94      1.0000 0.08640  0.40010  0.08020  Biso   1.000  C
  H118     1.0000 0.09830  0.40440  0.13810  Biso   1.000  H
  C95      1.0000 0.06800  0.37110  0.94460  Biso   1.000  C
  H119     1.0000 0.06660  0.35480  0.90240  Biso   1.000  H
  C96      1.0000 0.10850  0.55810  0.69750  Biso   1.000  C
  H120     1.0000 0.09960  0.53540  0.68670  Biso   1.000  H
  H121     1.0000 0.12920  0.56670  0.72710  Biso   1.000  H
  H122     1.0000 0.11080  0.56880  0.63840  Biso   1.000  H
  C97      1.0000 0.81080  0.38210  0.93820  Biso   1.000  C
  H123     1.0000 0.79750  0.37000  0.98780  Biso   1.000  H
  C98      1.0000 0.81710  0.39730  0.78220  Biso   1.000  C
  H124     1.0000 0.80860  0.39720  0.72310  Biso   1.000  H
  C99      1.0000 0.07570  0.45260  0.58320  Biso   1.000  C
  H125     1.0000 0.06510  0.43590  0.53710  Biso   1.000  H
  H126     1.0000 0.09060  0.44890  0.61880  Biso   1.000  H
  H127     1.0000 0.08720  0.47310  0.55190  Biso   1.000  H
  C100     1.0000 0.84350  0.39940  0.95410  Biso   1.000  C
  H128     1.0000 0.85160  0.40000  0.01420  Biso   1.000  H
  C101     1.0000 0.91580  0.33370  0.99680  Biso   1.000  C
  H129     1.0000 0.90800  0.32310  0.05640  Biso   1.000  H
  H130     1.0000 0.93020  0.32740  0.96990  Biso   1.000  H
  H131     1.0000 0.89800  0.32780  0.95500  Biso   1.000  H
  C102     1.0000 0.07140  0.41720  0.06170  Biso   1.000  C
  H132     1.0000 0.07310  0.43310  0.10610  Biso   1.000  H
  C103     1.0000 0.05120  0.38850  0.92060  Biso   1.000  C
  H133     1.0000 0.03900  0.38440  0.86360  Biso   1.000  H
  C104     1.0000 0.86409  0.41559  0.88060  Biso   1.000  C
  C105     1.0000 0.84920  0.41270  0.79820  Biso   1.000  C
  H134     1.0000 0.86240  0.42220  0.74620  Biso   1.000  H
  C106     1.0000 0.08670  0.56320  0.75950  Biso   1.000  C
  C107     1.0000 0.93350  0.36960  0.01150  Biso   1.000  C
  C108     1.0000 0.90142  0.43474  0.89000  Biso   1.000  C
  C109     1.0000 0.98690  0.56219  0.61970  Biso   1.000  C
  H135     1.0000 0.96950  0.54050  0.61230  Biso   1.000  H
  H136     1.0000 0.00120  0.56790  0.56680  Biso   1.000  H
  H137     1.0000 0.97840  0.57650  0.62320  Biso   1.000  H
  C110     1.0000 0.05152  0.45273  0.64720  Biso   1.000  C
  C111     1.0000 0.01476  0.49705  0.60680  Biso   1.000  C
  H138     1.0000 0.02430  0.51990  0.61580  Biso   1.000  H
  H139     1.0000 0.99730  0.48970  0.56250  Biso   1.000  H
  H140     1.0000 0.03070  0.49230  0.58290  Biso   1.000  H
  C112     1.0000 0.91448  0.42138  0.81580  Biso   1.000  C
  H141     1.0000 0.90620  0.39870  0.82890  Biso   1.000  H
  H142     1.0000 0.90620  0.42290  0.75470  Biso   1.000  H
  C113     1.0000 0.01922  0.41970  0.87120  Biso   1.000  C
  H143     1.0000 0.03390  0.42080  0.82220  Biso   1.000  H
  H144     1.0000 0.00330  0.39720  0.88070  Biso   1.000  H
  C114     1.0000 0.05402  0.41239  0.98450  Biso   1.000  C
  C115     1.0000 0.91012  0.42844  0.99430  Biso   1.000  C
  H145     1.0000 0.90060  0.43610  0.04060  Biso   1.000  H
  H146     1.0000 0.90140  0.40550  0.00400  Biso   1.000  H
  C116     1.0000 0.00437  0.56459  0.70580  Biso   1.000  C
  C117     1.0000 0.91030  0.46950  0.87890  Biso   1.000  C
  H147     1.0000 0.90070  0.47160  0.82100  Biso   1.000  H
  H148     1.0000 0.90080  0.47510  0.93070  Biso   1.000  H
  C118     1.0000 0.06532  0.46788  0.95560  Biso   1.000  C
  H149     1.0000 0.07660  0.47370  0.01550  Biso   1.000  H
  H150     1.0000 0.08050  0.46920  0.90800  Biso   1.000  H
  C119     1.0000 0.01586  0.42822  0.04670  Biso   1.000  C
  H151     1.0000 0.00100  0.40540  0.05520  Biso   1.000  H
  H152     1.0000 0.02890  0.43620  0.10330  Biso   1.000  H
  C120     1.0000 0.03804  0.43297  0.96170  Biso   1.000  C
  O63      1.0000 0.06153  0.54109  0.78770  Biso   1.000  O
  O64      1.0000 0.99887  0.54103  0.75600  Biso   1.000  O
  Mn24     1.0000 0.04304  0.57158  0.85577  Biso   1.000  Mn
  C121     1.0000 0.10710  0.41000  0.01620  Biso   1.000  C
  H153     1.0000 0.12990  0.41800  0.01890  Biso   1.000  H
  C122     1.0000 0.05930  0.36720  0.02250  Biso   1.000  C
  H154     1.0000 0.04610  0.34450  0.03540  Biso   1.000  H
  C123     1.0000 0.09190  0.43140  0.99360  Biso   1.000  C
  H155     1.0000 0.10450  0.45450  0.99160  Biso   1.000  H
  C124     1.0000 0.04340  0.38580  0.99890  Biso   1.000  C
  H156     1.0000 0.02030  0.37350  0.99480  Biso   1.000  H
  Mn25     1.0000 0.63774  0.83385  0.31821  Biso   1.000  Mn
  Mn26     1.0000 0.63821  0.77096  0.25662  Biso   1.000  Mn
  Mn27     1.0000 0.64635  0.76165  0.03076  Biso   1.000  Mn
  Mn28     1.0000 0.70430  0.82341  0.13305  Biso   1.000  Mn
  Mn29     1.0000 0.63588  0.82356  0.09530  Biso   1.000  Mn
  N9       1.0000 0.75195  0.71088  0.35583  Biso   1.000  N
  N10      1.0000 0.46412  0.71498  0.19283  Biso   1.000  N
  O65      1.0000 0.61536  0.77032  0.14323  Biso   1.000  O
  O66      1.0000 0.66691  0.82590  0.24453  Biso   1.000  O
  O67      1.0000 0.61068  0.77824  0.33903  Biso   1.000  O
  O68      1.0000 0.68920  0.76636  0.96723  Biso   1.000  O
  O69      1.0000 0.73001  0.80793  0.04523  Biso   1.000  O
  O70      1.0000 0.66456  0.77793  0.36763  Biso   1.000  O
  O71      1.0000 0.66971  0.77001  0.17223  Biso   1.000  O
  O72      1.0000 0.72266  0.82454  0.26683  Biso   1.000  O
  O73      1.0000 0.61150  0.71959  0.27033  Biso   1.000  O
  O74      1.0000 0.60198  0.71366  0.42633  Biso   1.000  O
  O75      1.0000 0.69515  0.92419  0.06513  Biso   1.000  O
  O76      1.0000 0.61062  0.82552  0.20993  Biso   1.000  O
  O77      1.0000 0.66920  0.81388  0.03023  Biso   1.000  O
  O78      1.0000 0.76040  0.92525  0.11733  Biso   1.000  O
  C125     1.0000 0.75307  0.73343  0.41353  Biso   1.000  C
  H157     1.0000 0.76497  0.73773  0.47143  Biso   1.000  H
  C126     1.0000 0.73467  0.70443  0.27793  Biso   1.000  C
  H158     1.0000 0.73327  0.68813  0.23573  Biso   1.000  H
  C127     1.0000 0.77517  0.89143  0.03083  Biso   1.000  C
  H159     1.0000 0.76627  0.86873  0.02003  Biso   1.000  H
  H160     1.0000 0.79587  0.90003  0.06043  Biso   1.000  H
  H161     1.0000 0.77747  0.90213  0.97173  Biso   1.000  H
  C128     1.0000 0.47747  0.71543  0.27153  Biso   1.000  C
  H162     1.0000 0.46417  0.70333  0.32113  Biso   1.000  H
  C129     1.0000 0.48377  0.73063  0.11553  Biso   1.000  C
  H163     1.0000 0.47527  0.73053  0.05643  Biso   1.000  H
  C130     1.0000 0.74237  0.78593  0.91653  Biso   1.000  C
  H164     1.0000 0.73177  0.76923  0.87043  Biso   1.000  H
  H165     1.0000 0.75727  0.78223  0.95213  Biso   1.000  H
  H166     1.0000 0.75387  0.80643  0.88523  Biso   1.000  H
  C131     1.0000 0.51017  0.73273  0.28743  Biso   1.000  C
  H167     1.0000 0.51827  0.73333  0.34753  Biso   1.000  H
  C132     1.0000 0.58247  0.66703  0.33013  Biso   1.000  C
  H168     1.0000 0.57467  0.65643  0.38973  Biso   1.000  H
  H169     1.0000 0.59687  0.66073  0.30323  Biso   1.000  H
  H170     1.0000 0.56467  0.66113  0.28833  Biso   1.000  H
  C133     1.0000 0.73807  0.75053  0.39503  Biso   1.000  C
  H171     1.0000 0.73977  0.76643  0.43943  Biso   1.000  H
  C134     1.0000 0.71787  0.72183  0.25393  Biso   1.000  C
  H172     1.0000 0.70567  0.71773  0.19693  Biso   1.000  H
  C135     1.0000 0.53076  0.74892  0.21393  Biso   1.000  C
  C136     1.0000 0.51587  0.74603  0.13153  Biso   1.000  C
  H173     1.0000 0.52907  0.75553  0.07953  Biso   1.000  H
  C137     1.0000 0.75337  0.89653  0.09283  Biso   1.000  C
  C138     1.0000 0.60017  0.70293  0.34483  Biso   1.000  C
  C139     1.0000 0.56809  0.76807  0.22333  Biso   1.000  C
  C140     1.0000 0.65357  0.89552  0.95303  Biso   1.000  C
  H174     1.0000 0.63617  0.87383  0.94563  Biso   1.000  H
  H175     1.0000 0.66787  0.90123  0.90013  Biso   1.000  H
  H176     1.0000 0.64507  0.90983  0.95653  Biso   1.000  H
  C141     1.0000 0.71819  0.78606  0.98053  Biso   1.000  C
  C142     1.0000 0.68143  0.83038  0.94013  Biso   1.000  C
  H177     1.0000 0.69097  0.85323  0.94913  Biso   1.000  H
  H178     1.0000 0.66397  0.82303  0.89583  Biso   1.000  H
  H179     1.0000 0.69737  0.82563  0.91623  Biso   1.000  H
  C143     1.0000 0.58115  0.75471  0.14913  Biso   1.000  C
  H180     1.0000 0.57287  0.73203  0.16223  Biso   1.000  H
  H181     1.0000 0.57287  0.75623  0.08803  Biso   1.000  H
  C144     1.0000 0.68589  0.75303  0.20453  Biso   1.000  C
  H182     1.0000 0.70057  0.75413  0.15553  Biso   1.000  H
  H183     1.0000 0.66997  0.73053  0.21403  Biso   1.000  H
  C145     1.0000 0.72069  0.74572  0.31783  Biso   1.000  C
  C146     1.0000 0.57679  0.76177  0.32763  Biso   1.000  C
  H184     1.0000 0.56727  0.76943  0.37393  Biso   1.000  H
  H185     1.0000 0.56807  0.73883  0.33733  Biso   1.000  H
  C147     1.0000 0.67104  0.89792  0.03913  Biso   1.000  C
  C148     1.0000 0.57697  0.80283  0.21223  Biso   1.000  C
  H186     1.0000 0.56737  0.80493  0.15433  Biso   1.000  H
  H187     1.0000 0.56747  0.80843  0.26403  Biso   1.000  H
  C149     1.0000 0.73199  0.80121  0.28893  Biso   1.000  C
  H188     1.0000 0.74327  0.80703  0.34883  Biso   1.000  H
  H189     1.0000 0.74717  0.80253  0.24133  Biso   1.000  H
  C150     1.0000 0.68253  0.76155  0.38003  Biso   1.000  C
  H190     1.0000 0.66767  0.73873  0.38853  Biso   1.000  H
  H191     1.0000 0.69557  0.76953  0.43663  Biso   1.000  H
  C151     1.0000 0.70471  0.76630  0.29503  Biso   1.000  C
  O79      1.0000 0.72820  0.87442  0.12103  Biso   1.000  O
  O80      1.0000 0.66554  0.87436  0.08933  Biso   1.000  O
  Mn30     1.0000 0.70971  0.90491  0.18910  Biso   1.000  Mn
  C152     1.0000 0.77377  0.74333  0.34953  Biso   1.000  C
  H192     1.0000 0.79657  0.75133  0.35223  Biso   1.000  H
  C153     1.0000 0.72597  0.70053  0.35583  Biso   1.000  C
  H193     1.0000 0.71277  0.67783  0.36873  Biso   1.000  H
  C154     1.0000 0.75857  0.76473  0.32693  Biso   1.000  C
  H194     1.0000 0.77117  0.78783  0.32493  Biso   1.000  H
  C155     1.0000 0.71007  0.71913  0.33223  Biso   1.000  C
  H195     1.0000 0.68697  0.70683  0.32813  Biso   1.000  H
  Mn31     1.0000 0.30440  0.16719  0.65155  Biso   1.000  Mn
  Mn32     1.0000 0.30487  0.10430  0.58996  Biso   1.000  Mn
  Mn33     1.0000 0.31301  0.09499  0.36410  Biso   1.000  Mn
  Mn34     1.0000 0.37096  0.15675  0.46639  Biso   1.000  Mn
  Mn35     1.0000 0.30254  0.15690  0.42864  Biso   1.000  Mn
  N11      1.0000 0.41861  0.04422  0.68917  Biso   1.000  N
  N12      1.0000 0.13078  0.04832  0.52617  Biso   1.000  N
  O81      1.0000 0.28202  0.10366  0.47657  Biso   1.000  O
  O82      1.0000 0.33357  0.15924  0.57787  Biso   1.000  O
  O83      1.0000 0.27734  0.11158  0.67237  Biso   1.000  O
  O84      1.0000 0.35586  0.09970  0.30057  Biso   1.000  O
  O85      1.0000 0.39667  0.14127  0.37857  Biso   1.000  O
  O86      1.0000 0.33122  0.11127  0.70097  Biso   1.000  O
  O87      1.0000 0.33637  0.10335  0.50557  Biso   1.000  O
  O88      1.0000 0.38932  0.15788  0.60017  Biso   1.000  O
  O89      1.0000 0.27816  0.05293  0.60367  Biso   1.000  O
  O90      1.0000 0.26864  0.04700  0.75967  Biso   1.000  O
  O91      1.0000 0.36181  0.25753  0.39847  Biso   1.000  O
  O92      1.0000 0.27728  0.15886  0.54327  Biso   1.000  O
  O93      1.0000 0.33586  0.14722  0.36357  Biso   1.000  O
  O94      1.0000 0.42706  0.25859  0.45067  Biso   1.000  O
  C156     1.0000 0.41973  0.06677  0.74687  Biso   1.000  C
  H196     1.0000 0.43163  0.07107  0.80477  Biso   1.000  H
  C157     1.0000 0.40133  0.03777  0.61127  Biso   1.000  C
  H197     1.0000 0.39993  0.02147  0.56907  Biso   1.000  H
  C158     1.0000 0.44183  0.22477  0.36417  Biso   1.000  C
  H198     1.0000 0.43293  0.20207  0.35337  Biso   1.000  H
  H199     1.0000 0.46253  0.23337  0.39377  Biso   1.000  H
  H200     1.0000 0.44413  0.23547  0.30507  Biso   1.000  H
  C159     1.0000 0.14413  0.04877  0.60487  Biso   1.000  C
  H201     1.0000 0.13083  0.03667  0.65447  Biso   1.000  H
  C160     1.0000 0.15043  0.06397  0.44887  Biso   1.000  C
  H202     1.0000 0.14193  0.06387  0.38977  Biso   1.000  H
  C161     1.0000 0.40903  0.11927  0.24987  Biso   1.000  C
  H203     1.0000 0.39843  0.10257  0.20377  Biso   1.000  H
  H204     1.0000 0.42393  0.11557  0.28547  Biso   1.000  H
  H205     1.0000 0.42053  0.13977  0.21857  Biso   1.000  H
  C162     1.0000 0.17683  0.06607  0.62077  Biso   1.000  C
  H206     1.0000 0.18493  0.06667  0.68087  Biso   1.000  H
  C163     1.0000 0.24913  0.00037  0.66347  Biso   1.000  C
  H207     1.0000 0.24133  0.98977  0.72307  Biso   1.000  H
  H208     1.0000 0.26353  0.99407  0.63657  Biso   1.000  H
  H209     1.0000 0.23133  0.99447  0.62167  Biso   1.000  H
  C164     1.0000 0.40473  0.08387  0.72837  Biso   1.000  C
  H210     1.0000 0.40643  0.09977  0.77277  Biso   1.000  H
  C165     1.0000 0.38453  0.05517  0.58727  Biso   1.000  C
  H211     1.0000 0.37233  0.05107  0.53027  Biso   1.000  H
  C166     1.0000 0.19742  0.08226  0.54727  Biso   1.000  C
  C167     1.0000 0.18253  0.07937  0.46487  Biso   1.000  C
  H212     1.0000 0.19573  0.08887  0.41287  Biso   1.000  H
  C168     1.0000 0.42003  0.22987  0.42617  Biso   1.000  C
  C169     1.0000 0.26683  0.03627  0.67817  Biso   1.000  C
  C170     1.0000 0.23475  0.10141  0.55667  Biso   1.000  C
  C171     1.0000 0.32023  0.22886  0.28637  Biso   1.000  C
  H213     1.0000 0.30283  0.20717  0.27897  Biso   1.000  H
  H214     1.0000 0.33453  0.23457  0.23347  Biso   1.000  H
  H215     1.0000 0.31173  0.24317  0.28987  Biso   1.000  H
  C172     1.0000 0.38485  0.11940  0.31387  Biso   1.000  C
  C173     1.0000 0.34809  0.16372  0.27347  Biso   1.000  C
  H216     1.0000 0.35763  0.18657  0.28247  Biso   1.000  H
  H217     1.0000 0.33063  0.15637  0.22917  Biso   1.000  H
  H218     1.0000 0.36403  0.15897  0.24957  Biso   1.000  H
  C174     1.0000 0.24781  0.08805  0.48247  Biso   1.000  C
  H219     1.0000 0.23953  0.06537  0.49557  Biso   1.000  H
  H220     1.0000 0.23953  0.08957  0.42137  Biso   1.000  H
  C175     1.0000 0.35255  0.08637  0.53787  Biso   1.000  C
  H221     1.0000 0.36723  0.08747  0.48887  Biso   1.000  H
  H222     1.0000 0.33663  0.06387  0.54737  Biso   1.000  H
  C176     1.0000 0.38735  0.07906  0.65117  Biso   1.000  C
  C177     1.0000 0.24345  0.09511  0.66097  Biso   1.000  C
  H223     1.0000 0.23393  0.10277  0.70727  Biso   1.000  H
  H224     1.0000 0.23473  0.07217  0.67067  Biso   1.000  H
  C178     1.0000 0.33770  0.23126  0.37247  Biso   1.000  C
  C179     1.0000 0.24363  0.13617  0.54557  Biso   1.000  C
  H225     1.0000 0.23403  0.13827  0.48767  Biso   1.000  H
  H226     1.0000 0.23413  0.14177  0.59737  Biso   1.000  H
  C180     1.0000 0.39865  0.13455  0.62227  Biso   1.000  C
  H227     1.0000 0.40993  0.14037  0.68217  Biso   1.000  H
  H228     1.0000 0.41383  0.13587  0.57467  Biso   1.000  H
  C181     1.0000 0.34919  0.09489  0.71337  Biso   1.000  C
  H229     1.0000 0.33433  0.07207  0.72187  Biso   1.000  H
  H230     1.0000 0.36223  0.10287  0.76997  Biso   1.000  H
  C182     1.0000 0.37137  0.09964  0.62837  Biso   1.000  C
  O95      1.0000 0.39486  0.20776  0.45437  Biso   1.000  O
  O96      1.0000 0.33220  0.20770  0.42267  Biso   1.000  O
  Mn36     1.0000 0.37637  0.23825  0.52244  Biso   1.000  Mn
  C183     1.0000 0.44043  0.07667  0.68287  Biso   1.000  C
  H231     1.0000 0.46323  0.08467  0.68557  Biso   1.000  H
  C184     1.0000 0.39263  0.03387  0.68917  Biso   1.000  C
  H232     1.0000 0.37943  0.01117  0.70207  Biso   1.000  H
  C185     1.0000 0.42523  0.09807  0.66027  Biso   1.000  C
  H233     1.0000 0.43783  0.12117  0.65827  Biso   1.000  H
  C186     1.0000 0.37673  0.05247  0.66557  Biso   1.000  C
  H234     1.0000 0.35363  0.04017  0.66147  Biso   1.000  H
  Mn37     1.0000 0.49948  0.47055  0.98488  Biso   1.000  Mn
  Mn38     1.0000 0.56237  0.53391  0.92329  Biso   1.000  Mn
  Mn39     1.0000 0.57168  0.55136  0.69743  Biso   1.000  Mn
  Mn40     1.0000 0.50992  0.54755  0.79972  Biso   1.000  Mn
  Mn41     1.0000 0.50977  0.47898  0.76197  Biso   1.000  Mn
  N13      1.0000 0.62245  0.70773  0.02250  Biso   1.000  N
  N14      1.0000 0.61835  0.41580  0.85950  Biso   1.000  N
  O97      1.0000 0.56301  0.51170  0.80990  Biso   1.000  O
  O98      1.0000 0.50743  0.50767  0.91120  Biso   1.000  O
  O99      1.0000 0.55509  0.49910  0.00570  Biso   1.000  O
  O100     1.0000 0.56697  0.58950  0.63390  Biso   1.000  O
  O101     1.0000 0.52540  0.58874  0.71190  Biso   1.000  O
  O102     1.0000 0.55540  0.55329  0.03430  Biso   1.000  O
  O103     1.0000 0.56332  0.56636  0.83890  Biso   1.000  O
  O104     1.0000 0.50879  0.56478  0.93350  Biso   1.000  O
  O105     1.0000 0.61374  0.55857  0.93700  Biso   1.000  O
  O106     1.0000 0.61967  0.55498  0.09300  Biso   1.000  O
  O107     1.0000 0.40914  0.43762  0.73180  Biso   1.000  O
  O108     1.0000 0.50781  0.45176  0.87660  Biso   1.000  O
  O109     1.0000 0.51945  0.52198  0.69690  Biso   1.000  O
  O110     1.0000 0.40808  0.50181  0.78400  Biso   1.000  O
  C187     1.0000 0.59990  0.68630  0.08020  Biso   1.000  C
  H235     1.0000 0.59560  0.69390  0.13810  Biso   1.000  H
  C188     1.0000 0.62890  0.69690  0.94460  Biso   1.000  C
  H236     1.0000 0.64520  0.71180  0.90240  Biso   1.000  H
  C189     1.0000 0.44190  0.55040  0.69750  Biso   1.000  C
  H237     1.0000 0.46460  0.56420  0.68670  Biso   1.000  H
  H238     1.0000 0.43330  0.56250  0.72710  Biso   1.000  H
  H239     1.0000 0.43120  0.54200  0.63840  Biso   1.000  H
  C190     1.0000 0.61790  0.42870  0.93820  Biso   1.000  C
  H240     1.0000 0.63000  0.42750  0.98780  Biso   1.000  H
  C191     1.0000 0.60270  0.41980  0.78220  Biso   1.000  C
  H241     1.0000 0.60280  0.41140  0.72310  Biso   1.000  H
  C192     1.0000 0.54740  0.62310  0.58320  Biso   1.000  C
  H242     1.0000 0.56410  0.62920  0.53710  Biso   1.000  H
  H243     1.0000 0.55110  0.64170  0.61880  Biso   1.000  H
  H244     1.0000 0.52690  0.61410  0.55190  Biso   1.000  H
  C193     1.0000 0.60060  0.44410  0.95410  Biso   1.000  C
  H245     1.0000 0.60000  0.45160  0.01420  Biso   1.000  H
  C194     1.0000 0.66630  0.58210  0.99680  Biso   1.000  C
  H246     1.0000 0.67690  0.58490  0.05640  Biso   1.000  H
  H247     1.0000 0.67260  0.60280  0.96990  Biso   1.000  H
  H248     1.0000 0.67220  0.57020  0.95500  Biso   1.000  H
  C195     1.0000 0.58280  0.65420  0.06170  Biso   1.000  C
  H249     1.0000 0.56690  0.64000  0.10610  Biso   1.000  H
  C196     1.0000 0.61150  0.66270  0.92060  Biso   1.000  C
  H250     1.0000 0.61560  0.65460  0.86360  Biso   1.000  H
  C197     1.0000 0.58441  0.44850  0.88060  Biso   1.000  C
  C198     1.0000 0.58730  0.43650  0.79820  Biso   1.000  C
  H251     1.0000 0.57780  0.44020  0.74620  Biso   1.000  H
  C199     1.0000 0.43680  0.52350  0.75950  Biso   1.000  C
  C200     1.0000 0.63040  0.56390  0.01150  Biso   1.000  C
  C201     1.0000 0.56526  0.46668  0.89000  Biso   1.000  C
  C202     1.0000 0.43781  0.42471  0.61970  Biso   1.000  C
  H252     1.0000 0.45950  0.42900  0.61230  Biso   1.000  H
  H253     1.0000 0.43210  0.43330  0.56680  Biso   1.000  H
  H254     1.0000 0.42350  0.40190  0.62320  Biso   1.000  H
  C203     1.0000 0.54727  0.59879  0.64720  Biso   1.000  C
  C204     1.0000 0.50295  0.51771  0.60680  Biso   1.000  C
  H255     1.0000 0.48010  0.50440  0.61580  Biso   1.000  H
  H256     1.0000 0.51030  0.50760  0.56250  Biso   1.000  H
  H257     1.0000 0.50770  0.53840  0.58290  Biso   1.000  H
  C205     1.0000 0.57862  0.49310  0.81580  Biso   1.000  C
  H258     1.0000 0.60130  0.50750  0.82890  Biso   1.000  H
  H259     1.0000 0.57710  0.48330  0.75470  Biso   1.000  H
  C206     1.0000 0.58030  0.59952  0.87120  Biso   1.000  C
  H260     1.0000 0.57920  0.61310  0.82220  Biso   1.000  H
  H261     1.0000 0.60280  0.60610  0.88070  Biso   1.000  H
  C207     1.0000 0.58761  0.64163  0.98450  Biso   1.000  C
  C208     1.0000 0.57156  0.48168  0.99430  Biso   1.000  C
  H262     1.0000 0.56390  0.46450  0.04060  Biso   1.000  H
  H263     1.0000 0.59450  0.49590  0.00400  Biso   1.000  H
  C209     1.0000 0.43541  0.43978  0.70580  Biso   1.000  C
  C210     1.0000 0.53050  0.44080  0.87890  Biso   1.000  C
  H264     1.0000 0.52840  0.42910  0.82100  Biso   1.000  H
  H265     1.0000 0.52490  0.42570  0.93070  Biso   1.000  H
  C211     1.0000 0.53212  0.59744  0.95560  Biso   1.000  C
  H266     1.0000 0.52630  0.60290  0.01550  Biso   1.000  H
  H267     1.0000 0.53080  0.61130  0.90800  Biso   1.000  H
  C212     1.0000 0.57178  0.58764  0.04670  Biso   1.000  C
  H268     1.0000 0.59460  0.59560  0.05520  Biso   1.000  H
  H269     1.0000 0.56380  0.59270  0.10330  Biso   1.000  H
  C213     1.0000 0.56703  0.60507  0.96170  Biso   1.000  C
  O111     1.0000 0.45891  0.52044  0.78770  Biso   1.000  O
  O112     1.0000 0.45897  0.45784  0.75600  Biso   1.000  O
  Mn42     1.0000 0.42842  0.47146  0.85577  Biso   1.000  Mn
  C214     1.0000 0.59000  0.69710  0.01620  Biso   1.000  C
  H270     1.0000 0.58200  0.71190  0.01890  Biso   1.000  H
  C215     1.0000 0.63280  0.69210  0.02250  Biso   1.000  C
  H271     1.0000 0.65550  0.70160  0.03540  Biso   1.000  H
  C216     1.0000 0.56860  0.66050  0.99360  Biso   1.000  C
  H272     1.0000 0.54550  0.65000  0.99160  Biso   1.000  H
  C217     1.0000 0.61420  0.65760  0.99890  Biso   1.000  C
  H273     1.0000 0.62650  0.64680  0.99480  Biso   1.000  H
  Mn43     1.0000 0.16615  0.80388  0.31821  Biso   1.000  Mn
  Mn44     1.0000 0.22904  0.86724  0.25662  Biso   1.000  Mn
  Mn45     1.0000 0.23835  0.88469  0.03076  Biso   1.000  Mn
  Mn46     1.0000 0.17659  0.88088  0.13305  Biso   1.000  Mn
  Mn47     1.0000 0.17644  0.81231  0.09530  Biso   1.000  Mn
  N15      1.0000 0.28912  0.04106  0.35583  Biso   1.000  N
  N16      1.0000 0.28502  0.74913  0.19283  Biso   1.000  N
  O113     1.0000 0.22968  0.84503  0.14323  Biso   1.000  O
  O114     1.0000 0.17410  0.84100  0.24453  Biso   1.000  O
  O115     1.0000 0.22176  0.83243  0.33903  Biso   1.000  O
  O116     1.0000 0.23364  0.92283  0.96723  Biso   1.000  O
  O117     1.0000 0.19207  0.92207  0.04523  Biso   1.000  O
  O118     1.0000 0.22207  0.88662  0.36763  Biso   1.000  O
  O119     1.0000 0.22999  0.89969  0.17223  Biso   1.000  O
  O120     1.0000 0.17546  0.89811  0.26683  Biso   1.000  O
  O121     1.0000 0.28041  0.89190  0.27033  Biso   1.000  O
  O122     1.0000 0.28634  0.88831  0.42633  Biso   1.000  O
  O123     1.0000 0.07581  0.77095  0.06513  Biso   1.000  O
  O124     1.0000 0.17448  0.78509  0.20993  Biso   1.000  O
  O125     1.0000 0.18612  0.85531  0.03023  Biso   1.000  O
  O126     1.0000 0.07475  0.83514  0.11733  Biso   1.000  O
  C218     1.0000 0.26657  0.01963  0.41353  Biso   1.000  C
  H274     1.0000 0.26227  0.02723  0.47143  Biso   1.000  H
  C219     1.0000 0.29557  0.03023  0.27793  Biso   1.000  C
  H275     1.0000 0.31187  0.04513  0.23573  Biso   1.000  H
  C220     1.0000 0.10857  0.88373  0.03083  Biso   1.000  C
  H276     1.0000 0.13127  0.89753  0.02003  Biso   1.000  H
  H277     1.0000 0.09997  0.89583  0.06043  Biso   1.000  H
  H278     1.0000 0.09787  0.87533  0.97173  Biso   1.000  H
  C221     1.0000 0.28457  0.76203  0.27153  Biso   1.000  C
  H279     1.0000 0.29667  0.76083  0.32113  Biso   1.000  H
  C222     1.0000 0.26937  0.75313  0.11553  Biso   1.000  C
  H280     1.0000 0.26947  0.74473  0.05643  Biso   1.000  H
  C223     1.0000 0.21407  0.95643  0.91653  Biso   1.000  C
  H281     1.0000 0.23077  0.96253  0.87043  Biso   1.000  H
  H282     1.0000 0.21777  0.97503  0.95213  Biso   1.000  H
  H283     1.0000 0.19357  0.94743  0.88523  Biso   1.000  H
  C224     1.0000 0.26727  0.77743  0.28743  Biso   1.000  C
  H284     1.0000 0.26667  0.78493  0.34753  Biso   1.000  H
  C225     1.0000 0.33297  0.91543  0.33013  Biso   1.000  C
  H285     1.0000 0.34357  0.91823  0.38973  Biso   1.000  H
  H286     1.0000 0.33927  0.93613  0.30323  Biso   1.000  H
  H287     1.0000 0.33887  0.90353  0.28833  Biso   1.000  H
  C226     1.0000 0.24947  0.98753  0.39503  Biso   1.000  C
  H288     1.0000 0.23357  0.97333  0.43943  Biso   1.000  H
  C227     1.0000 0.27817  0.99603  0.25393  Biso   1.000  C
  H289     1.0000 0.28227  0.98793  0.19693  Biso   1.000  H
  C228     1.0000 0.25108  0.78183  0.21393  Biso   1.000  C
  C229     1.0000 0.25397  0.76983  0.13153  Biso   1.000  C
  H290     1.0000 0.24447  0.77353  0.07953  Biso   1.000  H
  C230     1.0000 0.10347  0.85683  0.09283  Biso   1.000  C
  C231     1.0000 0.29707  0.89723  0.34483  Biso   1.000  C
  C232     1.0000 0.23193  0.80001  0.22333  Biso   1.000  C
  C233     1.0000 0.10448  0.75804  0.95303  Biso   1.000  C
  H291     1.0000 0.12617  0.76233  0.94563  Biso   1.000  H
  H292     1.0000 0.09877  0.76663  0.90013  Biso   1.000  H
  H293     1.0000 0.09017  0.73523  0.95653  Biso   1.000  H
  C234     1.0000 0.21394  0.93212  0.98053  Biso   1.000  C
  C235     1.0000 0.16962  0.85104  0.94013  Biso   1.000  C
  H294     1.0000 0.14677  0.83773  0.94913  Biso   1.000  H
  H295     1.0000 0.17697  0.84093  0.89583  Biso   1.000  H
  H296     1.0000 0.17437  0.87173  0.91623  Biso   1.000  H
  C236     1.0000 0.24529  0.82643  0.14913  Biso   1.000  C
  H297     1.0000 0.26797  0.84083  0.16223  Biso   1.000  H
  H298     1.0000 0.24377  0.81663  0.08803  Biso   1.000  H
  C237     1.0000 0.24697  0.93285  0.20453  Biso   1.000  C
  H299     1.0000 0.24587  0.94643  0.15553  Biso   1.000  H
  H300     1.0000 0.26947  0.93943  0.21403  Biso   1.000  H
  C238     1.0000 0.25428  0.97496  0.31783  Biso   1.000  C
  C239     1.0000 0.23823  0.81501  0.32763  Biso   1.000  C
  H301     1.0000 0.23057  0.79783  0.37393  Biso   1.000  H
  H302     1.0000 0.26117  0.82923  0.33733  Biso   1.000  H
  C240     1.0000 0.10208  0.77311  0.03913  Biso   1.000  C
  C241     1.0000 0.19717  0.77413  0.21223  Biso   1.000  C
  H303     1.0000 0.19507  0.76243  0.15433  Biso   1.000  H
  H304     1.0000 0.19157  0.75903  0.26403  Biso   1.000  H
  C242     1.0000 0.19879  0.93077  0.28893  Biso   1.000  C
  H305     1.0000 0.19297  0.93623  0.34883  Biso   1.000  H
  H306     1.0000 0.19747  0.94463  0.24133  Biso   1.000  H
  C243     1.0000 0.23845  0.92097  0.38003  Biso   1.000  C
  H307     1.0000 0.26127  0.92893  0.38853  Biso   1.000  H
  H308     1.0000 0.23047  0.92603  0.43663  Biso   1.000  H
  C244     1.0000 0.23370  0.93840  0.29503  Biso   1.000  C
  O127     1.0000 0.12558  0.85377  0.12103  Biso   1.000  O
  O128     1.0000 0.12564  0.79117  0.08933  Biso   1.000  O
  Mn48     1.0000 0.09509  0.80479  0.18910  Biso   1.000  Mn
  C245     1.0000 0.25667  0.03043  0.34953  Biso   1.000  C
  H309     1.0000 0.24867  0.04523  0.35223  Biso   1.000  H
  C246     1.0000 0.29947  0.02543  0.35583  Biso   1.000  C
  H310     1.0000 0.32217  0.03493  0.36873  Biso   1.000  H
  C247     1.0000 0.23527  0.99383  0.32693  Biso   1.000  C
  H311     1.0000 0.21217  0.98333  0.32493  Biso   1.000  H
  C248     1.0000 0.28087  0.99093  0.33223  Biso   1.000  C
  H312     1.0000 0.29317  0.98013  0.32813  Biso   1.000  H
  Mn49     1.0000 0.83281  0.13722  0.65155  Biso   1.000  Mn
  Mn50     1.0000 0.89570  0.20058  0.58996  Biso   1.000  Mn
  Mn51     1.0000 0.90501  0.21803  0.36410  Biso   1.000  Mn
  Mn52     1.0000 0.84325  0.21422  0.46639  Biso   1.000  Mn
  Mn53     1.0000 0.84310  0.14565  0.42864  Biso   1.000  Mn
  N17      1.0000 0.95578  0.37440  0.68917  Biso   1.000  N
  N18      1.0000 0.95168  0.08247  0.52617  Biso   1.000  N
  O129     1.0000 0.89634  0.17837  0.47657  Biso   1.000  O
  O130     1.0000 0.84076  0.17434  0.57787  Biso   1.000  O
  O131     1.0000 0.88842  0.16577  0.67237  Biso   1.000  O
  O132     1.0000 0.90030  0.25617  0.30057  Biso   1.000  O
  O133     1.0000 0.85873  0.25541  0.37857  Biso   1.000  O
  O134     1.0000 0.88873  0.21996  0.70097  Biso   1.000  O
  O135     1.0000 0.89665  0.23303  0.50557  Biso   1.000  O
  O136     1.0000 0.84212  0.23145  0.60017  Biso   1.000  O
  O137     1.0000 0.94707  0.22524  0.60367  Biso   1.000  O
  O138     1.0000 0.95300  0.22165  0.75967  Biso   1.000  O
  O139     1.0000 0.74247  0.10429  0.39847  Biso   1.000  O
  O140     1.0000 0.84114  0.11843  0.54327  Biso   1.000  O
  O141     1.0000 0.85278  0.18865  0.36357  Biso   1.000  O
  O142     1.0000 0.74141  0.16848  0.45067  Biso   1.000  O
  C249     1.0000 0.93323  0.35297  0.74687  Biso   1.000  C
  H313     1.0000 0.92893  0.36057  0.80477  Biso   1.000  H
  C250     1.0000 0.96223  0.36357  0.61127  Biso   1.000  C
  H314     1.0000 0.97853  0.37847  0.56907  Biso   1.000  H
  C251     1.0000 0.77523  0.21707  0.36417  Biso   1.000  C
  H315     1.0000 0.79793  0.23087  0.35337  Biso   1.000  H
  H316     1.0000 0.76663  0.22917  0.39377  Biso   1.000  H
  H317     1.0000 0.76453  0.20867  0.30507  Biso   1.000  H
  C252     1.0000 0.95123  0.09537  0.60487  Biso   1.000  C
  H318     1.0000 0.96333  0.09417  0.65447  Biso   1.000  H
  C253     1.0000 0.93603  0.08647  0.44887  Biso   1.000  C
  H319     1.0000 0.93613  0.07807  0.38977  Biso   1.000  H
  C254     1.0000 0.88073  0.28977  0.24987  Biso   1.000  C
  H320     1.0000 0.89743  0.29587  0.20377  Biso   1.000  H
  H321     1.0000 0.88443  0.30837  0.28547  Biso   1.000  H
  H322     1.0000 0.86023  0.28077  0.21857  Biso   1.000  H
  C255     1.0000 0.93393  0.11077  0.62077  Biso   1.000  C
  H323     1.0000 0.93333  0.11827  0.68087  Biso   1.000  H
  C256     1.0000 0.99963  0.24877  0.66347  Biso   1.000  C
  H324     1.0000 0.01023  0.25157  0.72307  Biso   1.000  H
  H325     1.0000 0.00593  0.26947  0.63657  Biso   1.000  H
  H326     1.0000 0.00553  0.23687  0.62167  Biso   1.000  H
  C257     1.0000 0.91613  0.32087  0.72837  Biso   1.000  C
  H327     1.0000 0.90023  0.30667  0.77277  Biso   1.000  H
  C258     1.0000 0.94483  0.32937  0.58727  Biso   1.000  C
  H328     1.0000 0.94893  0.32127  0.53027  Biso   1.000  H
  C259     1.0000 0.91774  0.11517  0.54727  Biso   1.000  C
  C260     1.0000 0.92063  0.10317  0.46487  Biso   1.000  C
  H329     1.0000 0.91113  0.10687  0.41287  Biso   1.000  H
  C261     1.0000 0.77013  0.19017  0.42617  Biso   1.000  C
  C262     1.0000 0.96373  0.23057  0.67817  Biso   1.000  C
  C263     1.0000 0.89859  0.13335  0.55667  Biso   1.000  C
  C264     1.0000 0.77114  0.09138  0.28637  Biso   1.000  C
  H330     1.0000 0.79283  0.09567  0.27897  Biso   1.000  H
  H331     1.0000 0.76543  0.09997  0.23347  Biso   1.000  H
  H332     1.0000 0.75683  0.06857  0.28987  Biso   1.000  H
  C265     1.0000 0.88060  0.26546  0.31387  Biso   1.000  C
  C266     1.0000 0.83628  0.18438  0.27347  Biso   1.000  C
  H333     1.0000 0.81343  0.17107  0.28247  Biso   1.000  H
  H334     1.0000 0.84363  0.17427  0.22917  Biso   1.000  H
  H335     1.0000 0.84103  0.20507  0.24957  Biso   1.000  H
  C267     1.0000 0.91195  0.15977  0.48247  Biso   1.000  C
  H336     1.0000 0.93463  0.17417  0.49557  Biso   1.000  H
  H337     1.0000 0.91043  0.14997  0.42137  Biso   1.000  H
  C268     1.0000 0.91363  0.26619  0.53787  Biso   1.000  C
  H338     1.0000 0.91253  0.27977  0.48887  Biso   1.000  H
  H339     1.0000 0.93613  0.27277  0.54737  Biso   1.000  H
  C269     1.0000 0.92094  0.30830  0.65117  Biso   1.000  C
  C270     1.0000 0.90489  0.14835  0.66097  Biso   1.000  C
  H340     1.0000 0.89723  0.13117  0.70727  Biso   1.000  H
  H341     1.0000 0.92783  0.16257  0.67067  Biso   1.000  H
  C271     1.0000 0.76874  0.10645  0.37247  Biso   1.000  C
  C272     1.0000 0.86383  0.10747  0.54557  Biso   1.000  C
  H342     1.0000 0.86173  0.09577  0.48767  Biso   1.000  H
  H343     1.0000 0.85823  0.09237  0.59737  Biso   1.000  H
  C273     1.0000 0.86545  0.26411  0.62227  Biso   1.000  C
  H344     1.0000 0.85963  0.26957  0.68217  Biso   1.000  H
  H345     1.0000 0.86413  0.27797  0.57467  Biso   1.000  H
  C274     1.0000 0.90511  0.25431  0.71337  Biso   1.000  C
  H346     1.0000 0.92793  0.26227  0.72187  Biso   1.000  H
  H347     1.0000 0.89713  0.25937  0.76997  Biso   1.000  H
  C275     1.0000 0.90036  0.27174  0.62837  Biso   1.000  C
  O143     1.0000 0.79224  0.18711  0.45437  Biso   1.000  O
  O144     1.0000 0.79230  0.12451  0.42267  Biso   1.000  O
  Mn54     1.0000 0.76175  0.13813  0.52244  Biso   1.000  Mn
  C276     1.0000 0.92333  0.36377  0.68287  Biso   1.000  C
  H348     1.0000 0.91533  0.37857  0.68557  Biso   1.000  H
  C277     1.0000 0.96613  0.35877  0.68917  Biso   1.000  C
  H349     1.0000 0.98883  0.36827  0.70207  Biso   1.000  H
  C278     1.0000 0.90193  0.32717  0.66027  Biso   1.000  C
  H350     1.0000 0.87883  0.31667  0.65827  Biso   1.000  H
  C279     1.0000 0.94753  0.32427  0.66557  Biso   1.000  C
  H351     1.0000 0.95983  0.31347  0.66147  Biso   1.000  H
  Mn55     1.0000 0.47055  0.97107  0.01512  Biso   1.000  Mn
  Mn56     1.0000 0.53391  0.97154  0.07671  Biso   1.000  Mn
  Mn57     1.0000 0.55136  0.97968  0.30257  Biso   1.000  Mn
  Mn58     1.0000 0.54755  0.03763  0.20028  Biso   1.000  Mn
  Mn59     1.0000 0.47898  0.96921  0.23803  Biso   1.000  Mn
  N19      1.0000 0.70773  0.08528  0.97750  Biso   1.000  N
  N20      1.0000 0.41580  0.79745  0.14050  Biso   1.000  N
  O145     1.0000 0.51170  0.94869  0.19010  Biso   1.000  O
  O146     1.0000 0.50767  0.00024  0.08880  Biso   1.000  O
  O147     1.0000 0.49910  0.94401  0.99430  Biso   1.000  O
  O148     1.0000 0.58950  0.02253  0.36610  Biso   1.000  O
  O149     1.0000 0.58874  0.06334  0.28810  Biso   1.000  O
  O150     1.0000 0.55329  0.99789  0.96570  Biso   1.000  O
  O151     1.0000 0.56636  0.00304  0.16110  Biso   1.000  O
  O152     1.0000 0.56478  0.05599  0.06650  Biso   1.000  O
  O153     1.0000 0.55857  0.94483  0.06300  Biso   1.000  O
  O154     1.0000 0.55498  0.93531  0.90700  Biso   1.000  O
  O155     1.0000 0.43762  0.02848  0.26820  Biso   1.000  O
  O156     1.0000 0.45176  0.94395  0.12340  Biso   1.000  O
  O157     1.0000 0.52198  0.00253  0.30310  Biso   1.000  O
  O158     1.0000 0.50181  0.09373  0.21600  Biso   1.000  O
  C280     1.0000 0.68630  0.08640  0.91980  Biso   1.000  C
  H352     1.0000 0.69390  0.09830  0.86190  Biso   1.000  H
  C281     1.0000 0.69690  0.06800  0.05540  Biso   1.000  C
  H353     1.0000 0.71180  0.06660  0.09760  Biso   1.000  H
  C282     1.0000 0.55040  0.10850  0.30250  Biso   1.000  C
  H354     1.0000 0.56420  0.09960  0.31330  Biso   1.000  H
  H355     1.0000 0.56250  0.12920  0.27290  Biso   1.000  H
  H356     1.0000 0.54200  0.11080  0.36160  Biso   1.000  H
  C283     1.0000 0.42870  0.81080  0.06180  Biso   1.000  C
  H357     1.0000 0.42750  0.79750  0.01220  Biso   1.000  H
  C284     1.0000 0.41980  0.81710  0.21780  Biso   1.000  C
  H358     1.0000 0.41140  0.80860  0.27690  Biso   1.000  H
  C285     1.0000 0.62310  0.07570  0.41680  Biso   1.000  C
  H359     1.0000 0.62920  0.06510  0.46290  Biso   1.000  H
  H360     1.0000 0.64170  0.09060  0.38120  Biso   1.000  H
  H361     1.0000 0.61410  0.08720  0.44810  Biso   1.000  H
  C286     1.0000 0.44410  0.84350  0.04590  Biso   1.000  C
  H362     1.0000 0.45160  0.85160  0.98580  Biso   1.000  H
  C287     1.0000 0.58210  0.91580  0.00320  Biso   1.000  C
  H363     1.0000 0.58490  0.90800  0.94360  Biso   1.000  H
  H364     1.0000 0.60280  0.93020  0.03010  Biso   1.000  H
  H365     1.0000 0.57020  0.89800  0.04500  Biso   1.000  H
  C288     1.0000 0.65420  0.07140  0.93830  Biso   1.000  C
  H366     1.0000 0.64000  0.07310  0.89390  Biso   1.000  H
  C289     1.0000 0.66270  0.05120  0.07940  Biso   1.000  C
  H367     1.0000 0.65460  0.03900  0.13640  Biso   1.000  H
  C290     1.0000 0.44850  0.86409  0.11940  Biso   1.000  C
  C291     1.0000 0.43650  0.84920  0.20180  Biso   1.000  C
  H368     1.0000 0.44020  0.86240  0.25380  Biso   1.000  H
  C292     1.0000 0.52350  0.08670  0.24050  Biso   1.000  C
  C293     1.0000 0.56390  0.93350  0.98850  Biso   1.000  C
  C294     1.0000 0.46668  0.90142  0.11000  Biso   1.000  C
  C295     1.0000 0.42471  0.98690  0.38030  Biso   1.000  C
  H369     1.0000 0.42900  0.96950  0.38770  Biso   1.000  H
  H370     1.0000 0.43330  0.00120  0.43320  Biso   1.000  H
  H371     1.0000 0.40190  0.97840  0.37680  Biso   1.000  H
  C296     1.0000 0.59879  0.05152  0.35280  Biso   1.000  C
  C297     1.0000 0.51771  0.01476  0.39320  Biso   1.000  C
  H372     1.0000 0.50440  0.02430  0.38420  Biso   1.000  H
  H373     1.0000 0.50760  0.99730  0.43750  Biso   1.000  H
  H374     1.0000 0.53840  0.03070  0.41710  Biso   1.000  H
  C298     1.0000 0.49310  0.91448  0.18420  Biso   1.000  C
  H375     1.0000 0.50750  0.90620  0.17110  Biso   1.000  H
  H376     1.0000 0.48330  0.90620  0.24530  Biso   1.000  H
  C299     1.0000 0.59952  0.01922  0.12880  Biso   1.000  C
  H377     1.0000 0.61310  0.03390  0.17780  Biso   1.000  H
  H378     1.0000 0.60610  0.00330  0.11930  Biso   1.000  H
  C300     1.0000 0.64163  0.05402  0.01550  Biso   1.000  C
  C301     1.0000 0.48168  0.91012  0.00570  Biso   1.000  C
  H379     1.0000 0.46450  0.90060  0.95940  Biso   1.000  H
  H380     1.0000 0.49590  0.90140  0.99600  Biso   1.000  H
  C302     1.0000 0.43978  0.00437  0.29420  Biso   1.000  C
  C303     1.0000 0.44080  0.91030  0.12110  Biso   1.000  C
  H381     1.0000 0.42910  0.90070  0.17900  Biso   1.000  H
  H382     1.0000 0.42570  0.90080  0.06930  Biso   1.000  H
  C304     1.0000 0.59744  0.06532  0.04440  Biso   1.000  C
  H383     1.0000 0.60290  0.07660  0.98450  Biso   1.000  H
  H384     1.0000 0.61130  0.08050  0.09200  Biso   1.000  H
  C305     1.0000 0.58764  0.01586  0.95330  Biso   1.000  C
  H385     1.0000 0.59560  0.00100  0.94480  Biso   1.000  H
  H386     1.0000 0.59270  0.02890  0.89670  Biso   1.000  H
  C306     1.0000 0.60507  0.03804  0.03830  Biso   1.000  C
  O159     1.0000 0.52044  0.06153  0.21230  Biso   1.000  O
  O160     1.0000 0.45784  0.99887  0.24400  Biso   1.000  O
  Mn60     1.0000 0.47146  0.04304  0.14423  Biso   1.000  Mn
  C307     1.0000 0.69710  0.10710  0.98380  Biso   1.000  C
  H387     1.0000 0.71190  0.12990  0.98110  Biso   1.000  H
  C308     1.0000 0.69210  0.05930  0.97750  Biso   1.000  C
  H388     1.0000 0.70160  0.04610  0.96460  Biso   1.000  H
  C309     1.0000 0.66050  0.09190  0.00640  Biso   1.000  C
  H389     1.0000 0.65000  0.10450  0.00840  Biso   1.000  H
  C310     1.0000 0.65760  0.04340  0.00110  Biso   1.000  C
  H390     1.0000 0.64680  0.02030  0.00520  Biso   1.000  H
  Mn61     1.0000 0.13722  0.30440  0.34845  Biso   1.000  Mn
  Mn62     1.0000 0.20058  0.30487  0.41004  Biso   1.000  Mn
  Mn63     1.0000 0.21803  0.31301  0.63590  Biso   1.000  Mn
  Mn64     1.0000 0.21422  0.37096  0.53361  Biso   1.000  Mn
  Mn65     1.0000 0.14565  0.30254  0.57136  Biso   1.000  Mn
  N21      1.0000 0.37440  0.41861  0.31083  Biso   1.000  N
  N22      1.0000 0.08247  0.13078  0.47383  Biso   1.000  N
  O161     1.0000 0.17837  0.28202  0.52343  Biso   1.000  O
  O162     1.0000 0.17434  0.33357  0.42213  Biso   1.000  O
  O163     1.0000 0.16577  0.27734  0.32763  Biso   1.000  O
  O164     1.0000 0.25617  0.35586  0.69943  Biso   1.000  O
  O165     1.0000 0.25541  0.39667  0.62143  Biso   1.000  O
  O166     1.0000 0.21996  0.33122  0.29903  Biso   1.000  O
  O167     1.0000 0.23303  0.33637  0.49443  Biso   1.000  O
  O168     1.0000 0.23145  0.38932  0.39983  Biso   1.000  O
  O169     1.0000 0.22524  0.27816  0.39633  Biso   1.000  O
  O170     1.0000 0.22165  0.26864  0.24033  Biso   1.000  O
  O171     1.0000 0.10429  0.36181  0.60153  Biso   1.000  O
  O172     1.0000 0.11843  0.27728  0.45673  Biso   1.000  O
  O173     1.0000 0.18865  0.33586  0.63643  Biso   1.000  O
  O174     1.0000 0.16848  0.42706  0.54933  Biso   1.000  O
  C311     1.0000 0.35297  0.41973  0.25313  Biso   1.000  C
  H391     1.0000 0.36057  0.43163  0.19523  Biso   1.000  H
  C312     1.0000 0.36357  0.40133  0.38873  Biso   1.000  C
  H392     1.0000 0.37847  0.39993  0.43093  Biso   1.000  H
  C313     1.0000 0.21707  0.44183  0.63583  Biso   1.000  C
  H393     1.0000 0.23087  0.43293  0.64663  Biso   1.000  H
  H394     1.0000 0.22917  0.46253  0.60623  Biso   1.000  H
  H395     1.0000 0.20867  0.44413  0.69493  Biso   1.000  H
  C314     1.0000 0.09537  0.14413  0.39513  Biso   1.000  C
  H396     1.0000 0.09417  0.13083  0.34553  Biso   1.000  H
  C315     1.0000 0.08647  0.15043  0.55113  Biso   1.000  C
  H397     1.0000 0.07807  0.14193  0.61023  Biso   1.000  H
  C316     1.0000 0.28977  0.40903  0.75013  Biso   1.000  C
  H398     1.0000 0.29587  0.39843  0.79623  Biso   1.000  H
  H399     1.0000 0.30837  0.42393  0.71453  Biso   1.000  H
  H400     1.0000 0.28077  0.42053  0.78143  Biso   1.000  H
  C317     1.0000 0.11077  0.17683  0.37923  Biso   1.000  C
  H401     1.0000 0.11827  0.18493  0.31913  Biso   1.000  H
  C318     1.0000 0.24877  0.24913  0.33653  Biso   1.000  C
  H402     1.0000 0.25157  0.24133  0.27693  Biso   1.000  H
  H403     1.0000 0.26947  0.26353  0.36343  Biso   1.000  H
  H404     1.0000 0.23687  0.23133  0.37833  Biso   1.000  H
  C319     1.0000 0.32087  0.40473  0.27163  Biso   1.000  C
  H405     1.0000 0.30667  0.40643  0.22723  Biso   1.000  H
  C320     1.0000 0.32937  0.38453  0.41273  Biso   1.000  C
  H406     1.0000 0.32127  0.37233  0.46973  Biso   1.000  H
  C321     1.0000 0.11517  0.19742  0.45273  Biso   1.000  C
  C322     1.0000 0.10317  0.18253  0.53513  Biso   1.000  C
  H407     1.0000 0.10687  0.19573  0.58713  Biso   1.000  H
  C323     1.0000 0.19017  0.42003  0.57383  Biso   1.000  C
  C324     1.0000 0.23057  0.26683  0.32183  Biso   1.000  C
  C325     1.0000 0.13335  0.23475  0.44333  Biso   1.000  C
  C326     1.0000 0.09138  0.32023  0.71363  Biso   1.000  C
  H408     1.0000 0.09567  0.30283  0.72103  Biso   1.000  H
  H409     1.0000 0.09997  0.33453  0.76653  Biso   1.000  H
  H410     1.0000 0.06857  0.31173  0.71013  Biso   1.000  H
  C327     1.0000 0.26546  0.38485  0.68613  Biso   1.000  C
  C328     1.0000 0.18438  0.34809  0.72653  Biso   1.000  C
  H411     1.0000 0.17107  0.35763  0.71753  Biso   1.000  H
  H412     1.0000 0.17427  0.33063  0.77083  Biso   1.000  H
  H413     1.0000 0.20507  0.36403  0.75043  Biso   1.000  H
  C329     1.0000 0.15977  0.24781  0.51753  Biso   1.000  C
  H414     1.0000 0.17417  0.23953  0.50443  Biso   1.000  H
  H415     1.0000 0.14997  0.23953  0.57863  Biso   1.000  H
  C330     1.0000 0.26619  0.35255  0.46213  Biso   1.000  C
  H416     1.0000 0.27977  0.36723  0.51113  Biso   1.000  H
  H417     1.0000 0.27277  0.33663  0.45263  Biso   1.000  H
  C331     1.0000 0.30830  0.38735  0.34883  Biso   1.000  C
  C332     1.0000 0.14835  0.24345  0.33903  Biso   1.000  C
  H418     1.0000 0.13117  0.23393  0.29273  Biso   1.000  H
  H419     1.0000 0.16257  0.23473  0.32933  Biso   1.000  H
  C333     1.0000 0.10645  0.33770  0.62753  Biso   1.000  C
  C334     1.0000 0.10747  0.24363  0.45443  Biso   1.000  C
  H420     1.0000 0.09577  0.23403  0.51233  Biso   1.000  H
  H421     1.0000 0.09237  0.23413  0.40263  Biso   1.000  H
  C335     1.0000 0.26411  0.39865  0.37773  Biso   1.000  C
  H422     1.0000 0.26957  0.40993  0.31783  Biso   1.000  H
  H423     1.0000 0.27797  0.41383  0.42533  Biso   1.000  H
  C336     1.0000 0.25431  0.34919  0.28663  Biso   1.000  C
  H424     1.0000 0.26227  0.33433  0.27813  Biso   1.000  H
  H425     1.0000 0.25937  0.36223  0.23003  Biso   1.000  H
  C337     1.0000 0.27174  0.37137  0.37163  Biso   1.000  C
  O175     1.0000 0.18711  0.39486  0.54563  Biso   1.000  O
  O176     1.0000 0.12451  0.33220  0.57733  Biso   1.000  O
  Mn66     1.0000 0.13813  0.37637  0.47756  Biso   1.000  Mn
  C338     1.0000 0.36377  0.44043  0.31713  Biso   1.000  C
  H426     1.0000 0.37857  0.46323  0.31443  Biso   1.000  H
  C339     1.0000 0.35877  0.39263  0.31083  Biso   1.000  C
  H427     1.0000 0.36827  0.37943  0.29793  Biso   1.000  H
  C340     1.0000 0.32717  0.42523  0.33973  Biso   1.000  C
  H428     1.0000 0.31667  0.43783  0.34173  Biso   1.000  H
  C341     1.0000 0.32427  0.37673  0.33443  Biso   1.000  C
  H429     1.0000 0.31347  0.35363  0.33853  Biso   1.000  H
  Mn67     1.0000 0.80388  0.63774  0.68179  Biso   1.000  Mn
  Mn68     1.0000 0.86724  0.63821  0.74338  Biso   1.000  Mn
  Mn69     1.0000 0.88469  0.64635  0.96924  Biso   1.000  Mn
  Mn70     1.0000 0.88088  0.70430  0.86695  Biso   1.000  Mn
  Mn71     1.0000 0.81231  0.63588  0.90470  Biso   1.000  Mn
  N23      1.0000 0.04106  0.75195  0.64417  Biso   1.000  N
  N24      1.0000 0.74913  0.46412  0.80717  Biso   1.000  N
  O177     1.0000 0.84503  0.61536  0.85677  Biso   1.000  O
  O178     1.0000 0.84100  0.66691  0.75547  Biso   1.000  O
  O179     1.0000 0.83243  0.61068  0.66097  Biso   1.000  O
  O180     1.0000 0.92283  0.68920  0.03277  Biso   1.000  O
  O181     1.0000 0.92207  0.73001  0.95477  Biso   1.000  O
  O182     1.0000 0.88662  0.66456  0.63237  Biso   1.000  O
  O183     1.0000 0.89969  0.66971  0.82777  Biso   1.000  O
  O184     1.0000 0.89811  0.72266  0.73317  Biso   1.000  O
  O185     1.0000 0.89190  0.61150  0.72967  Biso   1.000  O
  O186     1.0000 0.88831  0.60198  0.57367  Biso   1.000  O
  O187     1.0000 0.77095  0.69515  0.93487  Biso   1.000  O
  O188     1.0000 0.78509  0.61062  0.79007  Biso   1.000  O
  O189     1.0000 0.85531  0.66920  0.96977  Biso   1.000  O
  O190     1.0000 0.83514  0.76040  0.88267  Biso   1.000  O
  C342     1.0000 0.01963  0.75307  0.58647  Biso   1.000  C
  H430     1.0000 0.02723  0.76497  0.52857  Biso   1.000  H
  C343     1.0000 0.03023  0.73467  0.72207  Biso   1.000  C
  H431     1.0000 0.04513  0.73327  0.76427  Biso   1.000  H
  C344     1.0000 0.88373  0.77517  0.96917  Biso   1.000  C
  H432     1.0000 0.89753  0.76627  0.97997  Biso   1.000  H
  H433     1.0000 0.89583  0.79587  0.93957  Biso   1.000  H
  H434     1.0000 0.87533  0.77747  0.02827  Biso   1.000  H
  C345     1.0000 0.76203  0.47747  0.72847  Biso   1.000  C
  H435     1.0000 0.76083  0.46417  0.67887  Biso   1.000  H
  C346     1.0000 0.75313  0.48377  0.88447  Biso   1.000  C
  H436     1.0000 0.74473  0.47527  0.94357  Biso   1.000  H
  C347     1.0000 0.95643  0.74237  0.08347  Biso   1.000  C
  H437     1.0000 0.96253  0.73177  0.12957  Biso   1.000  H
  H438     1.0000 0.97503  0.75727  0.04787  Biso   1.000  H
  H439     1.0000 0.94743  0.75387  0.11477  Biso   1.000  H
  C348     1.0000 0.77743  0.51017  0.71257  Biso   1.000  C
  H440     1.0000 0.78493  0.51827  0.65247  Biso   1.000  H
  C349     1.0000 0.91543  0.58247  0.66987  Biso   1.000  C
  H441     1.0000 0.91823  0.57467  0.61027  Biso   1.000  H
  H442     1.0000 0.93613  0.59687  0.69677  Biso   1.000  H
  H443     1.0000 0.90353  0.56467  0.71167  Biso   1.000  H
  C350     1.0000 0.98753  0.73807  0.60497  Biso   1.000  C
  H444     1.0000 0.97333  0.73977  0.56057  Biso   1.000  H
  C351     1.0000 0.99603  0.71787  0.74607  Biso   1.000  C
  H445     1.0000 0.98793  0.70567  0.80307  Biso   1.000  H
  C352     1.0000 0.78183  0.53076  0.78607  Biso   1.000  C
  C353     1.0000 0.76983  0.51587  0.86847  Biso   1.000  C
  H446     1.0000 0.77353  0.52907  0.92047  Biso   1.000  H
  C354     1.0000 0.85683  0.75337  0.90717  Biso   1.000  C
  C355     1.0000 0.89723  0.60017  0.65517  Biso   1.000  C
  C356     1.0000 0.80001  0.56809  0.77667  Biso   1.000  C
  C357     1.0000 0.75804  0.65357  0.04697  Biso   1.000  C
  H447     1.0000 0.76233  0.63617  0.05437  Biso   1.000  H
  H448     1.0000 0.76663  0.66787  0.09987  Biso   1.000  H
  H449     1.0000 0.73523  0.64507  0.04347  Biso   1.000  H
  C358     1.0000 0.93212  0.71819  0.01947  Biso   1.000  C
  C359     1.0000 0.85104  0.68143  0.05987  Biso   1.000  C
  H450     1.0000 0.83773  0.69097  0.05087  Biso   1.000  H
  H451     1.0000 0.84093  0.66397  0.10417  Biso   1.000  H
  H452     1.0000 0.87173  0.69737  0.08377  Biso   1.000  H
  C360     1.0000 0.82643  0.58115  0.85087  Biso   1.000  C
  H453     1.0000 0.84083  0.57287  0.83777  Biso   1.000  H
  H454     1.0000 0.81663  0.57287  0.91197  Biso   1.000  H
  C361     1.0000 0.93285  0.68589  0.79547  Biso   1.000  C
  H455     1.0000 0.94643  0.70057  0.84447  Biso   1.000  H
  H456     1.0000 0.93943  0.66997  0.78597  Biso   1.000  H
  C362     1.0000 0.97496  0.72069  0.68217  Biso   1.000  C
  C363     1.0000 0.81501  0.57679  0.67237  Biso   1.000  C
  H457     1.0000 0.79783  0.56727  0.62607  Biso   1.000  H
  H458     1.0000 0.82923  0.56807  0.66267  Biso   1.000  H
  C364     1.0000 0.77311  0.67104  0.96087  Biso   1.000  C
  C365     1.0000 0.77413  0.57697  0.78777  Biso   1.000  C
  H459     1.0000 0.76243  0.56737  0.84567  Biso   1.000  H
  H460     1.0000 0.75903  0.56747  0.73597  Biso   1.000  H
  C366     1.0000 0.93077  0.73199  0.71107  Biso   1.000  C
  H461     1.0000 0.93623  0.74327  0.65117  Biso   1.000  H
  H462     1.0000 0.94463  0.74717  0.75867  Biso   1.000  H
  C367     1.0000 0.92097  0.68253  0.61997  Biso   1.000  C
  H463     1.0000 0.92893  0.66767  0.61147  Biso   1.000  H
  H464     1.0000 0.92603  0.69557  0.56337  Biso   1.000  H
  C368     1.0000 0.93840  0.70471  0.70497  Biso   1.000  C
  O191     1.0000 0.85377  0.72820  0.87897  Biso   1.000  O
  O192     1.0000 0.79117  0.66554  0.91067  Biso   1.000  O
  Mn72     1.0000 0.80479  0.70971  0.81090  Biso   1.000  Mn
  C369     1.0000 0.03043  0.77377  0.65047  Biso   1.000  C
  H465     1.0000 0.04523  0.79657  0.64777  Biso   1.000  H
  C370     1.0000 0.02543  0.72597  0.64417  Biso   1.000  C
  H466     1.0000 0.03493  0.71277  0.63127  Biso   1.000  H
  C371     1.0000 0.99383  0.75857  0.67307  Biso   1.000  C
  H467     1.0000 0.98333  0.77117  0.67507  Biso   1.000  H
  C372     1.0000 0.99093  0.71007  0.66777  Biso   1.000  C
  H468     1.0000 0.98013  0.68697  0.67187  Biso   1.000  H
  Mn73     1.0000 0.02893  0.49948  0.01512  Biso   1.000  Mn
  Mn74     1.0000 0.02846  0.56237  0.07671  Biso   1.000  Mn
  Mn75     1.0000 0.02032  0.57168  0.30257  Biso   1.000  Mn
  Mn76     1.0000 0.96237  0.50992  0.20028  Biso   1.000  Mn
  Mn77     1.0000 0.03079  0.50977  0.23803  Biso   1.000  Mn
  N25      1.0000 0.91472  0.62245  0.97750  Biso   1.000  N
  N26      1.0000 0.20255  0.61835  0.14050  Biso   1.000  N
  O193     1.0000 0.05131  0.56301  0.19010  Biso   1.000  O
  O194     1.0000 0.99976  0.50743  0.08880  Biso   1.000  O
  O195     1.0000 0.05599  0.55509  0.99430  Biso   1.000  O
  O196     1.0000 0.97747  0.56697  0.36610  Biso   1.000  O
  O197     1.0000 0.93666  0.52540  0.28810  Biso   1.000  O
  O198     1.0000 0.00211  0.55540  0.96570  Biso   1.000  O
  O199     1.0000 0.99696  0.56332  0.16110  Biso   1.000  O
  O200     1.0000 0.94401  0.50879  0.06650  Biso   1.000  O
  O201     1.0000 0.05517  0.61374  0.06300  Biso   1.000  O
  O202     1.0000 0.06469  0.61967  0.90700  Biso   1.000  O
  O203     1.0000 0.97152  0.40914  0.26820  Biso   1.000  O
  O204     1.0000 0.05605  0.50781  0.12340  Biso   1.000  O
  O205     1.0000 0.99747  0.51945  0.30310  Biso   1.000  O
  O206     1.0000 0.90627  0.40808  0.21600  Biso   1.000  O
  C373     1.0000 0.91360  0.59990  0.91980  Biso   1.000  C
  H469     1.0000 0.90170  0.59560  0.86190  Biso   1.000  H
  C374     1.0000 0.93200  0.62890  0.05540  Biso   1.000  C
  H470     1.0000 0.93340  0.64520  0.09760  Biso   1.000  H
  C375     1.0000 0.89150  0.44190  0.30250  Biso   1.000  C
  H471     1.0000 0.90040  0.46460  0.31330  Biso   1.000  H
  H472     1.0000 0.87080  0.43330  0.27290  Biso   1.000  H
  H473     1.0000 0.88920  0.43120  0.36160  Biso   1.000  H
  C376     1.0000 0.18920  0.61790  0.06180  Biso   1.000  C
  H474     1.0000 0.20250  0.63000  0.01220  Biso   1.000  H
  C377     1.0000 0.18290  0.60270  0.21780  Biso   1.000  C
  H475     1.0000 0.19140  0.60280  0.27690  Biso   1.000  H
  C378     1.0000 0.92430  0.54740  0.41680  Biso   1.000  C
  H476     1.0000 0.93490  0.56410  0.46290  Biso   1.000  H
  H477     1.0000 0.90940  0.55110  0.38120  Biso   1.000  H
  H478     1.0000 0.91280  0.52690  0.44810  Biso   1.000  H
  C379     1.0000 0.15650  0.60060  0.04590  Biso   1.000  C
  H479     1.0000 0.14840  0.60000  0.98580  Biso   1.000  H
  C380     1.0000 0.08420  0.66630  0.00320  Biso   1.000  C
  H480     1.0000 0.09200  0.67690  0.94360  Biso   1.000  H
  H481     1.0000 0.06980  0.67260  0.03010  Biso   1.000  H
  H482     1.0000 0.10200  0.67220  0.04500  Biso   1.000  H
  C381     1.0000 0.92860  0.58280  0.93830  Biso   1.000  C
  H483     1.0000 0.92690  0.56690  0.89390  Biso   1.000  H
  C382     1.0000 0.94880  0.61150  0.07940  Biso   1.000  C
  H484     1.0000 0.96100  0.61560  0.13640  Biso   1.000  H
  C383     1.0000 0.13591  0.58441  0.11940  Biso   1.000  C
  C384     1.0000 0.15080  0.58730  0.20180  Biso   1.000  C
  H485     1.0000 0.13760  0.57780  0.25380  Biso   1.000  H
  C385     1.0000 0.91330  0.43680  0.24050  Biso   1.000  C
  C386     1.0000 0.06650  0.63040  0.98850  Biso   1.000  C
  C387     1.0000 0.09858  0.56526  0.11000  Biso   1.000  C
  C388     1.0000 0.01310  0.43781  0.38030  Biso   1.000  C
  H486     1.0000 0.03050  0.45950  0.38770  Biso   1.000  H
  H487     1.0000 0.99880  0.43210  0.43320  Biso   1.000  H
  H488     1.0000 0.02160  0.42350  0.37680  Biso   1.000  H
  C389     1.0000 0.94848  0.54727  0.35280  Biso   1.000  C
  C390     1.0000 0.98524  0.50295  0.39320  Biso   1.000  C
  H489     1.0000 0.97570  0.48010  0.38420  Biso   1.000  H
  H490     1.0000 0.00270  0.51030  0.43750  Biso   1.000  H
  H491     1.0000 0.96930  0.50770  0.41710  Biso   1.000  H
  C391     1.0000 0.08552  0.57862  0.18420  Biso   1.000  C
  H492     1.0000 0.09380  0.60130  0.17110  Biso   1.000  H
  H493     1.0000 0.09380  0.57710  0.24530  Biso   1.000  H
  C392     1.0000 0.98078  0.58030  0.12880  Biso   1.000  C
  H494     1.0000 0.96610  0.57920  0.17780  Biso   1.000  H
  H495     1.0000 0.99670  0.60280  0.11930  Biso   1.000  H
  C393     1.0000 0.94598  0.58761  0.01550  Biso   1.000  C
  C394     1.0000 0.08988  0.57156  0.00570  Biso   1.000  C
  H496     1.0000 0.09940  0.56390  0.95940  Biso   1.000  H
  H497     1.0000 0.09860  0.59450  0.99600  Biso   1.000  H
  C395     1.0000 0.99563  0.43541  0.29420  Biso   1.000  C
  C396     1.0000 0.08970  0.53050  0.12110  Biso   1.000  C
  H498     1.0000 0.09930  0.52840  0.17900  Biso   1.000  H
  H499     1.0000 0.09920  0.52490  0.06930  Biso   1.000  H
  C397     1.0000 0.93468  0.53212  0.04440  Biso   1.000  C
  H500     1.0000 0.92340  0.52630  0.98450  Biso   1.000  H
  H501     1.0000 0.91950  0.53080  0.09200  Biso   1.000  H
  C398     1.0000 0.98414  0.57178  0.95330  Biso   1.000  C
  H502     1.0000 0.99900  0.59460  0.94480  Biso   1.000  H
  H503     1.0000 0.97110  0.56380  0.89670  Biso   1.000  H
  C399     1.0000 0.96196  0.56703  0.03830  Biso   1.000  C
  O207     1.0000 0.93847  0.45891  0.21230  Biso   1.000  O
  O208     1.0000 0.00113  0.45897  0.24400  Biso   1.000  O
  Mn78     1.0000 0.95696  0.42842  0.14423  Biso   1.000  Mn
  C400     1.0000 0.89290  0.59000  0.98380  Biso   1.000  C
  H504     1.0000 0.87010  0.58200  0.98110  Biso   1.000  H
  C401     1.0000 0.94070  0.63280  0.97750  Biso   1.000  C
  H505     1.0000 0.95390  0.65550  0.96460  Biso   1.000  H
  C402     1.0000 0.90810  0.56860  0.00640  Biso   1.000  C
  H506     1.0000 0.89550  0.54550  0.00840  Biso   1.000  H
  C403     1.0000 0.95660  0.61420  0.00110  Biso   1.000  C
  H507     1.0000 0.97970  0.62650  0.00520  Biso   1.000  H
  Mn79     1.0000 0.69560  0.83281  0.34845  Biso   1.000  Mn
  Mn80     1.0000 0.69513  0.89570  0.41004  Biso   1.000  Mn
  Mn81     1.0000 0.68699  0.90501  0.63590  Biso   1.000  Mn
  Mn82     1.0000 0.62904  0.84325  0.53361  Biso   1.000  Mn
  Mn83     1.0000 0.69746  0.84310  0.57136  Biso   1.000  Mn
  N27      1.0000 0.58139  0.95578  0.31083  Biso   1.000  N
  N28      1.0000 0.86922  0.95168  0.47383  Biso   1.000  N
  O209     1.0000 0.71798  0.89634  0.52343  Biso   1.000  O
  O210     1.0000 0.66643  0.84076  0.42213  Biso   1.000  O
  O211     1.0000 0.72266  0.88842  0.32763  Biso   1.000  O
  O212     1.0000 0.64414  0.90030  0.69943  Biso   1.000  O
  O213     1.0000 0.60333  0.85873  0.62143  Biso   1.000  O
  O214     1.0000 0.66878  0.88873  0.29903  Biso   1.000  O
  O215     1.0000 0.66363  0.89665  0.49443  Biso   1.000  O
  O216     1.0000 0.61068  0.84212  0.39983  Biso   1.000  O
  O217     1.0000 0.72184  0.94707  0.39633  Biso   1.000  O
  O218     1.0000 0.73136  0.95300  0.24033  Biso   1.000  O
  O219     1.0000 0.63819  0.74247  0.60153  Biso   1.000  O
  O220     1.0000 0.72272  0.84114  0.45673  Biso   1.000  O
  O221     1.0000 0.66414  0.85278  0.63643  Biso   1.000  O
  O222     1.0000 0.57294  0.74141  0.54933  Biso   1.000  O
  C404     1.0000 0.58027  0.93323  0.25313  Biso   1.000  C
  H508     1.0000 0.56837  0.92893  0.19523  Biso   1.000  H
  C405     1.0000 0.59867  0.96223  0.38873  Biso   1.000  C
  H509     1.0000 0.60007  0.97853  0.43093  Biso   1.000  H
  C406     1.0000 0.55817  0.77523  0.63583  Biso   1.000  C
  H510     1.0000 0.56707  0.79793  0.64663  Biso   1.000  H
  H511     1.0000 0.53747  0.76663  0.60623  Biso   1.000  H
  H512     1.0000 0.55587  0.76453  0.69493  Biso   1.000  H
  C407     1.0000 0.85587  0.95123  0.39513  Biso   1.000  C
  H513     1.0000 0.86917  0.96333  0.34553  Biso   1.000  H
  C408     1.0000 0.84957  0.93603  0.55113  Biso   1.000  C
  H514     1.0000 0.85807  0.93613  0.61023  Biso   1.000  H
  C409     1.0000 0.59097  0.88073  0.75013  Biso   1.000  C
  H515     1.0000 0.60157  0.89743  0.79623  Biso   1.000  H
  H516     1.0000 0.57607  0.88443  0.71453  Biso   1.000  H
  H517     1.0000 0.57947  0.86023  0.78143  Biso   1.000  H
  C410     1.0000 0.82317  0.93393  0.37923  Biso   1.000  C
  H518     1.0000 0.81507  0.93333  0.31913  Biso   1.000  H
  C411     1.0000 0.75087  0.99963  0.33653  Biso   1.000  C
  H519     1.0000 0.75867  0.01023  0.27693  Biso   1.000  H
  H520     1.0000 0.73647  0.00593  0.36343  Biso   1.000  H
  H521     1.0000 0.76867  0.00553  0.37833  Biso   1.000  H
  C412     1.0000 0.59527  0.91613  0.27163  Biso   1.000  C
  H522     1.0000 0.59357  0.90023  0.22723  Biso   1.000  H
  C413     1.0000 0.61547  0.94483  0.41273  Biso   1.000  C
  H523     1.0000 0.62767  0.94893  0.46973  Biso   1.000  H
  C414     1.0000 0.80258  0.91774  0.45273  Biso   1.000  C
  C415     1.0000 0.81747  0.92063  0.53513  Biso   1.000  C
  H524     1.0000 0.80427  0.91113  0.58713  Biso   1.000  H
  C416     1.0000 0.57997  0.77013  0.57383  Biso   1.000  C
  C417     1.0000 0.73317  0.96373  0.32183  Biso   1.000  C
  C418     1.0000 0.76525  0.89859  0.44333  Biso   1.000  C
  C419     1.0000 0.67977  0.77114  0.71363  Biso   1.000  C
  H525     1.0000 0.69717  0.79283  0.72103  Biso   1.000  H
  H526     1.0000 0.66547  0.76543  0.76653  Biso   1.000  H
  H527     1.0000 0.68827  0.75683  0.71013  Biso   1.000  H
  C420     1.0000 0.61515  0.88060  0.68613  Biso   1.000  C
  C421     1.0000 0.65191  0.83628  0.72653  Biso   1.000  C
  H528     1.0000 0.64237  0.81343  0.71753  Biso   1.000  H
  H529     1.0000 0.66937  0.84363  0.77083  Biso   1.000  H
  H530     1.0000 0.63597  0.84103  0.75043  Biso   1.000  H
  C422     1.0000 0.75219  0.91195  0.51753  Biso   1.000  C
  H531     1.0000 0.76047  0.93463  0.50443  Biso   1.000  H
  H532     1.0000 0.76047  0.91043  0.57863  Biso   1.000  H
  C423     1.0000 0.64745  0.91363  0.46213  Biso   1.000  C
  H533     1.0000 0.63277  0.91253  0.51113  Biso   1.000  H
  H534     1.0000 0.66337  0.93613  0.45263  Biso   1.000  H
  C424     1.0000 0.61265  0.92094  0.34883  Biso   1.000  C
  C425     1.0000 0.75655  0.90489  0.33903  Biso   1.000  C
  H535     1.0000 0.76607  0.89723  0.29273  Biso   1.000  H
  H536     1.0000 0.76527  0.92783  0.32933  Biso   1.000  H
  C426     1.0000 0.66230  0.76874  0.62753  Biso   1.000  C
  C427     1.0000 0.75637  0.86383  0.45443  Biso   1.000  C
  H537     1.0000 0.76597  0.86173  0.51233  Biso   1.000  H
  H538     1.0000 0.76587  0.85823  0.40263  Biso   1.000  H
  C428     1.0000 0.60135  0.86545  0.37773  Biso   1.000  C
  H539     1.0000 0.59007  0.85963  0.31783  Biso   1.000  H
  H540     1.0000 0.58617  0.86413  0.42533  Biso   1.000  H
  C429     1.0000 0.65081  0.90511  0.28663  Biso   1.000  C
  H541     1.0000 0.66567  0.92793  0.27813  Biso   1.000  H
  H542     1.0000 0.63777  0.89713  0.23003  Biso   1.000  H
  C430     1.0000 0.62863  0.90036  0.37163  Biso   1.000  C
  O223     1.0000 0.60514  0.79224  0.54563  Biso   1.000  O
  O224     1.0000 0.66780  0.79230  0.57733  Biso   1.000  O
  Mn84     1.0000 0.62363  0.76175  0.47756  Biso   1.000  Mn
  C431     1.0000 0.55957  0.92333  0.31713  Biso   1.000  C
  H543     1.0000 0.53677  0.91533  0.31443  Biso   1.000  H
  C432     1.0000 0.60737  0.96613  0.31083  Biso   1.000  C
  H544     1.0000 0.62057  0.98883  0.29793  Biso   1.000  H
  C433     1.0000 0.57477  0.90193  0.33973  Biso   1.000  C
  H545     1.0000 0.56217  0.87883  0.34173  Biso   1.000  H
  C434     1.0000 0.62327  0.94753  0.33443  Biso   1.000  C
  H546     1.0000 0.64637  0.95983  0.33853  Biso   1.000  H
  Mn85     1.0000 0.36226  0.16615  0.68179  Biso   1.000  Mn
  Mn86     1.0000 0.36179  0.22904  0.74338  Biso   1.000  Mn
  Mn87     1.0000 0.35365  0.23835  0.96924  Biso   1.000  Mn
  Mn88     1.0000 0.29570  0.17659  0.86695  Biso   1.000  Mn
  Mn89     1.0000 0.36412  0.17644  0.90470  Biso   1.000  Mn
  N29      1.0000 0.24805  0.28912  0.64417  Biso   1.000  N
  N30      1.0000 0.53588  0.28502  0.80717  Biso   1.000  N
  O225     1.0000 0.38464  0.22968  0.85677  Biso   1.000  O
  O226     1.0000 0.33309  0.17410  0.75547  Biso   1.000  O
  O227     1.0000 0.38932  0.22176  0.66097  Biso   1.000  O
  O228     1.0000 0.31080  0.23364  0.03277  Biso   1.000  O
  O229     1.0000 0.26999  0.19207  0.95477  Biso   1.000  O
  O230     1.0000 0.33544  0.22207  0.63237  Biso   1.000  O
  O231     1.0000 0.33029  0.22999  0.82777  Biso   1.000  O
  O232     1.0000 0.27734  0.17546  0.73317  Biso   1.000  O
  O233     1.0000 0.38850  0.28041  0.72967  Biso   1.000  O
  O234     1.0000 0.39802  0.28634  0.57367  Biso   1.000  O
  O235     1.0000 0.30485  0.07581  0.93487  Biso   1.000  O
  O236     1.0000 0.38938  0.17448  0.79007  Biso   1.000  O
  O237     1.0000 0.33080  0.18612  0.96977  Biso   1.000  O
  O238     1.0000 0.23960  0.07475  0.88267  Biso   1.000  O
  C435     1.0000 0.24693  0.26657  0.58647  Biso   1.000  C
  H547     1.0000 0.23503  0.26227  0.52857  Biso   1.000  H
  C436     1.0000 0.26533  0.29557  0.72207  Biso   1.000  C
  H548     1.0000 0.26673  0.31187  0.76427  Biso   1.000  H
  C437     1.0000 0.22483  0.10857  0.96917  Biso   1.000  C
  H549     1.0000 0.23373  0.13127  0.97997  Biso   1.000  H
  H550     1.0000 0.20413  0.09997  0.93957  Biso   1.000  H
  H551     1.0000 0.22253  0.09787  0.02827  Biso   1.000  H
  C438     1.0000 0.52253  0.28457  0.72847  Biso   1.000  C
  H552     1.0000 0.53583  0.29667  0.67887  Biso   1.000  H
  C439     1.0000 0.51623  0.26937  0.88447  Biso   1.000  C
  H553     1.0000 0.52473  0.26947  0.94357  Biso   1.000  H
  C440     1.0000 0.25763  0.21407  0.08347  Biso   1.000  C
  H554     1.0000 0.26823  0.23077  0.12957  Biso   1.000  H
  H555     1.0000 0.24273  0.21777  0.04787  Biso   1.000  H
  H556     1.0000 0.24613  0.19357  0.11477  Biso   1.000  H
  C441     1.0000 0.48983  0.26727  0.71257  Biso   1.000  C
  H557     1.0000 0.48173  0.26667  0.65247  Biso   1.000  H
  C442     1.0000 0.41753  0.33297  0.66987  Biso   1.000  C
  H558     1.0000 0.42533  0.34357  0.61027  Biso   1.000  H
  H559     1.0000 0.40313  0.33927  0.69677  Biso   1.000  H
  H560     1.0000 0.43533  0.33887  0.71167  Biso   1.000  H
  C443     1.0000 0.26193  0.24947  0.60497  Biso   1.000  C
  H561     1.0000 0.26023  0.23357  0.56057  Biso   1.000  H
  C444     1.0000 0.28213  0.27817  0.74607  Biso   1.000  C
  H562     1.0000 0.29433  0.28227  0.80307  Biso   1.000  H
  C445     1.0000 0.46924  0.25108  0.78607  Biso   1.000  C
  C446     1.0000 0.48413  0.25397  0.86847  Biso   1.000  C
  H563     1.0000 0.47093  0.24447  0.92047  Biso   1.000  H
  C447     1.0000 0.24663  0.10347  0.90717  Biso   1.000  C
  C448     1.0000 0.39983  0.29707  0.65517  Biso   1.000  C
  C449     1.0000 0.43191  0.23193  0.77667  Biso   1.000  C
  C450     1.0000 0.34643  0.10448  0.04697  Biso   1.000  C
  H564     1.0000 0.36383  0.12617  0.05437  Biso   1.000  H
  H565     1.0000 0.33213  0.09877  0.09987  Biso   1.000  H
  H566     1.0000 0.35493  0.09017  0.04347  Biso   1.000  H
  C451     1.0000 0.28181  0.21394  0.01947  Biso   1.000  C
  C452     1.0000 0.31857  0.16962  0.05987  Biso   1.000  C
  H567     1.0000 0.30903  0.14677  0.05087  Biso   1.000  H
  H568     1.0000 0.33603  0.17697  0.10417  Biso   1.000  H
  H569     1.0000 0.30263  0.17437  0.08377  Biso   1.000  H
  C453     1.0000 0.41885  0.24529  0.85087  Biso   1.000  C
  H570     1.0000 0.42713  0.26797  0.83777  Biso   1.000  H
  H571     1.0000 0.42713  0.24377  0.91197  Biso   1.000  H
  C454     1.0000 0.31411  0.24697  0.79547  Biso   1.000  C
  H572     1.0000 0.29943  0.24587  0.84447  Biso   1.000  H
  H573     1.0000 0.33003  0.26947  0.78597  Biso   1.000  H
  C455     1.0000 0.27931  0.25428  0.68217  Biso   1.000  C
  C456     1.0000 0.42321  0.23823  0.67237  Biso   1.000  C
  H574     1.0000 0.43273  0.23057  0.62607  Biso   1.000  H
  H575     1.0000 0.43193  0.26117  0.66267  Biso   1.000  H
  C457     1.0000 0.32896  0.10208  0.96087  Biso   1.000  C
  C458     1.0000 0.42303  0.19717  0.78777  Biso   1.000  C
  H576     1.0000 0.43263  0.19507  0.84567  Biso   1.000  H
  H577     1.0000 0.43253  0.19157  0.73597  Biso   1.000  H
  C459     1.0000 0.26801  0.19879  0.71107  Biso   1.000  C
  H578     1.0000 0.25673  0.19297  0.65117  Biso   1.000  H
  H579     1.0000 0.25283  0.19747  0.75867  Biso   1.000  H
  C460     1.0000 0.31747  0.23845  0.61997  Biso   1.000  C
  H580     1.0000 0.33233  0.26127  0.61147  Biso   1.000  H
  H581     1.0000 0.30443  0.23047  0.56337  Biso   1.000  H
  C461     1.0000 0.29529  0.23370  0.70497  Biso   1.000  C
  O239     1.0000 0.27180  0.12558  0.87897  Biso   1.000  O
  O240     1.0000 0.33446  0.12564  0.91067  Biso   1.000  O
  Mn90     1.0000 0.29029  0.09509  0.81090  Biso   1.000  Mn
  C462     1.0000 0.22623  0.25667  0.65047  Biso   1.000  C
  H582     1.0000 0.20343  0.24867  0.64777  Biso   1.000  H
  C463     1.0000 0.27403  0.29947  0.64417  Biso   1.000  C
  H583     1.0000 0.28723  0.32217  0.63127  Biso   1.000  H
  C464     1.0000 0.24143  0.23527  0.67307  Biso   1.000  C
  H584     1.0000 0.22883  0.21217  0.67507  Biso   1.000  H
  C465     1.0000 0.28993  0.28087  0.66777  Biso   1.000  C
  H585     1.0000 0.31303  0.29317  0.67187  Biso   1.000  H
  Mn91     1.0000 0.50052  0.52945  0.01512  Biso   1.000  Mn
  Mn92     1.0000 0.43763  0.46609  0.07671  Biso   1.000  Mn
  Mn93     1.0000 0.42832  0.44864  0.30257  Biso   1.000  Mn
  Mn94     1.0000 0.49008  0.45245  0.20028  Biso   1.000  Mn
  Mn95     1.0000 0.49023  0.52102  0.23803  Biso   1.000  Mn
  N31      1.0000 0.37755  0.29227  0.97750  Biso   1.000  N
  N32      1.0000 0.38165  0.58420  0.14050  Biso   1.000  N
  O241     1.0000 0.43699  0.48830  0.19010  Biso   1.000  O
  O242     1.0000 0.49257  0.49233  0.08880  Biso   1.000  O
  O243     1.0000 0.44491  0.50090  0.99430  Biso   1.000  O
  O244     1.0000 0.43303  0.41050  0.36610  Biso   1.000  O
  O245     1.0000 0.47460  0.41126  0.28810  Biso   1.000  O
  O246     1.0000 0.44460  0.44671  0.96570  Biso   1.000  O
  O247     1.0000 0.43668  0.43364  0.16110  Biso   1.000  O
  O248     1.0000 0.49121  0.43522  0.06650  Biso   1.000  O
  O249     1.0000 0.38626  0.44143  0.06300  Biso   1.000  O
  O250     1.0000 0.38033  0.44502  0.90700  Biso   1.000  O
  O251     1.0000 0.59086  0.56238  0.26820  Biso   1.000  O
  O252     1.0000 0.49219  0.54824  0.12340  Biso   1.000  O
  O253     1.0000 0.48055  0.47802  0.30310  Biso   1.000  O
  O254     1.0000 0.59192  0.49819  0.21600  Biso   1.000  O
  C466     1.0000 0.40010  0.31370  0.91980  Biso   1.000  C
  H586     1.0000 0.40440  0.30610  0.86190  Biso   1.000  H
  C467     1.0000 0.37110  0.30310  0.05540  Biso   1.000  C
  H587     1.0000 0.35480  0.28820  0.09760  Biso   1.000  H
  C468     1.0000 0.55810  0.44960  0.30250  Biso   1.000  C
  H588     1.0000 0.53540  0.43580  0.31330  Biso   1.000  H
  H589     1.0000 0.56670  0.43750  0.27290  Biso   1.000  H
  H590     1.0000 0.56880  0.45800  0.36160  Biso   1.000  H
  C469     1.0000 0.38210  0.57130  0.06180  Biso   1.000  C
  H591     1.0000 0.37000  0.57250  0.01220  Biso   1.000  H
  C470     1.0000 0.39730  0.58020  0.21780  Biso   1.000  C
  H592     1.0000 0.39720  0.58860  0.27690  Biso   1.000  H
  C471     1.0000 0.45260  0.37690  0.41680  Biso   1.000  C
  H593     1.0000 0.43590  0.37080  0.46290  Biso   1.000  H
  H594     1.0000 0.44890  0.35830  0.38120  Biso   1.000  H
  H595     1.0000 0.47310  0.38590  0.44810  Biso   1.000  H
  C472     1.0000 0.39940  0.55590  0.04590  Biso   1.000  C
  H596     1.0000 0.40000  0.54840  0.98580  Biso   1.000  H
  C473     1.0000 0.33370  0.41790  0.00320  Biso   1.000  C
  H597     1.0000 0.32310  0.41510  0.94360  Biso   1.000  H
  H598     1.0000 0.32740  0.39720  0.03010  Biso   1.000  H
  H599     1.0000 0.32780  0.42980  0.04500  Biso   1.000  H
  C474     1.0000 0.41720  0.34580  0.93830  Biso   1.000  C
  H600     1.0000 0.43310  0.36000  0.89390  Biso   1.000  H
  C475     1.0000 0.38850  0.33730  0.07940  Biso   1.000  C
  H601     1.0000 0.38440  0.34540  0.13640  Biso   1.000  H
  C476     1.0000 0.41559  0.55150  0.11940  Biso   1.000  C
  C477     1.0000 0.41270  0.56350  0.20180  Biso   1.000  C
  H602     1.0000 0.42220  0.55980  0.25380  Biso   1.000  H
  C478     1.0000 0.56320  0.47650  0.24050  Biso   1.000  C
  C479     1.0000 0.36960  0.43610  0.98850  Biso   1.000  C
  C480     1.0000 0.43474  0.53332  0.11000  Biso   1.000  C
  C481     1.0000 0.56219  0.57529  0.38030  Biso   1.000  C
  H603     1.0000 0.54050  0.57100  0.38770  Biso   1.000  H
  H604     1.0000 0.56790  0.56670  0.43320  Biso   1.000  H
  H605     1.0000 0.57650  0.59810  0.37680  Biso   1.000  H
  C482     1.0000 0.45273  0.40121  0.35280  Biso   1.000  C
  C483     1.0000 0.49705  0.48229  0.39320  Biso   1.000  C
  H606     1.0000 0.51990  0.49560  0.38420  Biso   1.000  H
  H607     1.0000 0.48970  0.49240  0.43750  Biso   1.000  H
  H608     1.0000 0.49230  0.46160  0.41710  Biso   1.000  H
  C484     1.0000 0.42138  0.50690  0.18420  Biso   1.000  C
  H609     1.0000 0.39870  0.49250  0.17110  Biso   1.000  H
  H610     1.0000 0.42290  0.51670  0.24530  Biso   1.000  H
  C485     1.0000 0.41970  0.40048  0.12880  Biso   1.000  C
  H611     1.0000 0.42080  0.38690  0.17780  Biso   1.000  H
  H612     1.0000 0.39720  0.39390  0.11930  Biso   1.000  H
  C486     1.0000 0.41239  0.35837  0.01550  Biso   1.000  C
  C487     1.0000 0.42844  0.51832  0.00570  Biso   1.000  C
  H613     1.0000 0.43610  0.53550  0.95940  Biso   1.000  H
  H614     1.0000 0.40550  0.50410  0.99600  Biso   1.000  H
  C488     1.0000 0.56459  0.56022  0.29420  Biso   1.000  C
  C489     1.0000 0.46950  0.55920  0.12110  Biso   1.000  C
  H615     1.0000 0.47160  0.57090  0.17900  Biso   1.000  H
  H616     1.0000 0.47510  0.57430  0.06930  Biso   1.000  H
  C490     1.0000 0.46788  0.40256  0.04440  Biso   1.000  C
  H617     1.0000 0.47370  0.39710  0.98450  Biso   1.000  H
  H618     1.0000 0.46920  0.38870  0.09200  Biso   1.000  H
  C491     1.0000 0.42822  0.41236  0.95330  Biso   1.000  C
  H619     1.0000 0.40540  0.40440  0.94480  Biso   1.000  H
  H620     1.0000 0.43620  0.40730  0.89670  Biso   1.000  H
  C492     1.0000 0.43297  0.39493  0.03830  Biso   1.000  C
  O255     1.0000 0.54109  0.47956  0.21230  Biso   1.000  O
  O256     1.0000 0.54103  0.54216  0.24400  Biso   1.000  O
  Mn96     1.0000 0.57158  0.52854  0.14423  Biso   1.000  Mn
  C493     1.0000 0.41000  0.30290  0.98380  Biso   1.000  C
  H621     1.0000 0.41800  0.28810  0.98110  Biso   1.000  H
  C494     1.0000 0.36720  0.30790  0.97750  Biso   1.000  C
  H622     1.0000 0.34450  0.29840  0.96460  Biso   1.000  H
  C495     1.0000 0.43140  0.33950  0.00640  Biso   1.000  C
  H623     1.0000 0.45450  0.35000  0.00840  Biso   1.000  H
  C496     1.0000 0.38580  0.34240  0.00110  Biso   1.000  C
  H624     1.0000 0.37350  0.35320  0.00520  Biso   1.000  H
  Mn97     1.0000 0.16719  0.86278  0.34845  Biso   1.000  Mn
  Mn98     1.0000 0.10430  0.79942  0.41004  Biso   1.000  Mn
  Mn99     1.0000 0.09499  0.78197  0.63590  Biso   1.000  Mn
  Mn100    1.0000 0.15675  0.78578  0.53361  Biso   1.000  Mn
  Mn101    1.0000 0.15690  0.85435  0.57136  Biso   1.000  Mn
  N33      1.0000 0.04422  0.62560  0.31083  Biso   1.000  N
  N34      1.0000 0.04832  0.91753  0.47383  Biso   1.000  N
  O257     1.0000 0.10366  0.82163  0.52343  Biso   1.000  O
  O258     1.0000 0.15924  0.82566  0.42213  Biso   1.000  O
  O259     1.0000 0.11158  0.83423  0.32763  Biso   1.000  O
  O260     1.0000 0.09970  0.74383  0.69943  Biso   1.000  O
  O261     1.0000 0.14127  0.74459  0.62143  Biso   1.000  O
  O262     1.0000 0.11127  0.78004  0.29903  Biso   1.000  O
  O263     1.0000 0.10335  0.76697  0.49443  Biso   1.000  O
  O264     1.0000 0.15788  0.76855  0.39983  Biso   1.000  O
  O265     1.0000 0.05293  0.77476  0.39633  Biso   1.000  O
  O266     1.0000 0.04700  0.77835  0.24033  Biso   1.000  O
  O267     1.0000 0.25753  0.89571  0.60153  Biso   1.000  O
  O268     1.0000 0.15886  0.88157  0.45673  Biso   1.000  O
  O269     1.0000 0.14722  0.81135  0.63643  Biso   1.000  O
  O270     1.0000 0.25859  0.83152  0.54933  Biso   1.000  O
  C497     1.0000 0.06677  0.64703  0.25313  Biso   1.000  C
  H625     1.0000 0.07107  0.63943  0.19523  Biso   1.000  H
  C498     1.0000 0.03777  0.63643  0.38873  Biso   1.000  C
  H626     1.0000 0.02147  0.62153  0.43093  Biso   1.000  H
  C499     1.0000 0.22477  0.78293  0.63583  Biso   1.000  C
  H627     1.0000 0.20207  0.76913  0.64663  Biso   1.000  H
  H628     1.0000 0.23337  0.77083  0.60623  Biso   1.000  H
  H629     1.0000 0.23547  0.79133  0.69493  Biso   1.000  H
  C500     1.0000 0.04877  0.90463  0.39513  Biso   1.000  C
  H630     1.0000 0.03667  0.90583  0.34553  Biso   1.000  H
  C501     1.0000 0.06397  0.91353  0.55113  Biso   1.000  C
  H631     1.0000 0.06387  0.92193  0.61023  Biso   1.000  H
  C502     1.0000 0.11927  0.71023  0.75013  Biso   1.000  C
  H632     1.0000 0.10257  0.70413  0.79623  Biso   1.000  H
  H633     1.0000 0.11557  0.69163  0.71453  Biso   1.000  H
  H634     1.0000 0.13977  0.71923  0.78143  Biso   1.000  H
  C503     1.0000 0.06607  0.88923  0.37923  Biso   1.000  C
  H635     1.0000 0.06667  0.88173  0.31913  Biso   1.000  H
  C504     1.0000 0.00037  0.75123  0.33653  Biso   1.000  C
  H636     1.0000 0.98977  0.74843  0.27693  Biso   1.000  H
  H637     1.0000 0.99407  0.73053  0.36343  Biso   1.000  H
  H638     1.0000 0.99447  0.76313  0.37833  Biso   1.000  H
  C505     1.0000 0.08387  0.67913  0.27163  Biso   1.000  C
  H639     1.0000 0.09977  0.69333  0.22723  Biso   1.000  H
  C506     1.0000 0.05517  0.67063  0.41273  Biso   1.000  C
  H640     1.0000 0.05107  0.67873  0.46973  Biso   1.000  H
  C507     1.0000 0.08226  0.88483  0.45273  Biso   1.000  C
  C508     1.0000 0.07937  0.89683  0.53513  Biso   1.000  C
  H641     1.0000 0.08887  0.89313  0.58713  Biso   1.000  H
  C509     1.0000 0.22987  0.80983  0.57383  Biso   1.000  C
  C510     1.0000 0.03627  0.76943  0.32183  Biso   1.000  C
  C511     1.0000 0.10141  0.86665  0.44333  Biso   1.000  C
  C512     1.0000 0.22886  0.90862  0.71363  Biso   1.000  C
  H642     1.0000 0.20717  0.90433  0.72103  Biso   1.000  H
  H643     1.0000 0.23457  0.90003  0.76653  Biso   1.000  H
  H644     1.0000 0.24317  0.93143  0.71013  Biso   1.000  H
  C513     1.0000 0.11940  0.73454  0.68613  Biso   1.000  C
  C514     1.0000 0.16372  0.81562  0.72653  Biso   1.000  C
  H645     1.0000 0.18657  0.82893  0.71753  Biso   1.000  H
  H646     1.0000 0.15637  0.82573  0.77083  Biso   1.000  H
  H647     1.0000 0.15897  0.79493  0.75043  Biso   1.000  H
  C515     1.0000 0.08805  0.84023  0.51753  Biso   1.000  C
  H648     1.0000 0.06537  0.82583  0.50443  Biso   1.000  H
  H649     1.0000 0.08957  0.85003  0.57863  Biso   1.000  H
  C516     1.0000 0.08637  0.73381  0.46213  Biso   1.000  C
  H650     1.0000 0.08747  0.72023  0.51113  Biso   1.000  H
  H651     1.0000 0.06387  0.72723  0.45263  Biso   1.000  H
  C517     1.0000 0.07906  0.69170  0.34883  Biso   1.000  C
  C518     1.0000 0.09511  0.85165  0.33903  Biso   1.000  C
  H652     1.0000 0.10277  0.86883  0.29273  Biso   1.000  H
  H653     1.0000 0.07217  0.83743  0.32933  Biso   1.000  H
  C519     1.0000 0.23126  0.89355  0.62753  Biso   1.000  C
  C520     1.0000 0.13617  0.89253  0.45443  Biso   1.000  C
  H654     1.0000 0.13827  0.90423  0.51233  Biso   1.000  H
  H655     1.0000 0.14177  0.90763  0.40263  Biso   1.000  H
  C521     1.0000 0.13455  0.73589  0.37773  Biso   1.000  C
  H656     1.0000 0.14037  0.73043  0.31783  Biso   1.000  H
  H657     1.0000 0.13587  0.72203  0.42533  Biso   1.000  H
  C522     1.0000 0.09489  0.74569  0.28663  Biso   1.000  C
  H658     1.0000 0.07207  0.73773  0.27813  Biso   1.000  H
  H659     1.0000 0.10287  0.74063  0.23003  Biso   1.000  H
  C523     1.0000 0.09964  0.72826  0.37163  Biso   1.000  C
  O271     1.0000 0.20776  0.81289  0.54563  Biso   1.000  O
  O272     1.0000 0.20770  0.87549  0.57733  Biso   1.000  O
  Mn102    1.0000 0.23825  0.86187  0.47756  Biso   1.000  Mn
  C524     1.0000 0.07667  0.63623  0.31713  Biso   1.000  C
  H660     1.0000 0.08467  0.62143  0.31443  Biso   1.000  H
  C525     1.0000 0.03387  0.64123  0.31083  Biso   1.000  C
  H661     1.0000 0.01117  0.63173  0.29793  Biso   1.000  H
  C526     1.0000 0.09807  0.67283  0.33973  Biso   1.000  C
  H662     1.0000 0.12117  0.68333  0.34173  Biso   1.000  H
  C527     1.0000 0.05247  0.67573  0.33443  Biso   1.000  C
  H663     1.0000 0.04017  0.68653  0.33853  Biso   1.000  H
  Mn103    1.0000 0.83385  0.19612  0.68179  Biso   1.000  Mn
  Mn104    1.0000 0.77096  0.13276  0.74338  Biso   1.000  Mn
  Mn105    1.0000 0.76165  0.11531  0.96924  Biso   1.000  Mn
  Mn106    1.0000 0.82341  0.11912  0.86695  Biso   1.000  Mn
  Mn107    1.0000 0.82356  0.18769  0.90470  Biso   1.000  Mn
  N35      1.0000 0.71088  0.95894  0.64417  Biso   1.000  N
  N36      1.0000 0.71498  0.25087  0.80717  Biso   1.000  N
  O273     1.0000 0.77032  0.15497  0.85677  Biso   1.000  O
  O274     1.0000 0.82590  0.15900  0.75547  Biso   1.000  O
  O275     1.0000 0.77824  0.16757  0.66097  Biso   1.000  O
  O276     1.0000 0.76636  0.07717  0.03277  Biso   1.000  O
  O277     1.0000 0.80793  0.07793  0.95477  Biso   1.000  O
  O278     1.0000 0.77793  0.11338  0.63237  Biso   1.000  O
  O279     1.0000 0.77001  0.10031  0.82777  Biso   1.000  O
  O280     1.0000 0.82454  0.10189  0.73317  Biso   1.000  O
  O281     1.0000 0.71959  0.10810  0.72967  Biso   1.000  O
  O282     1.0000 0.71366  0.11169  0.57367  Biso   1.000  O
  O283     1.0000 0.92419  0.22905  0.93487  Biso   1.000  O
  O284     1.0000 0.82552  0.21491  0.79007  Biso   1.000  O
  O285     1.0000 0.81388  0.14469  0.96977  Biso   1.000  O
  O286     1.0000 0.92525  0.16486  0.88267  Biso   1.000  O
  C528     1.0000 0.73343  0.98037  0.58647  Biso   1.000  C
  H664     1.0000 0.73773  0.97277  0.52857  Biso   1.000  H
  C529     1.0000 0.70443  0.96977  0.72207  Biso   1.000  C
  H665     1.0000 0.68813  0.95487  0.76427  Biso   1.000  H
  C530     1.0000 0.89143  0.11627  0.96917  Biso   1.000  C
  H666     1.0000 0.86873  0.10247  0.97997  Biso   1.000  H
  H667     1.0000 0.90003  0.10417  0.93957  Biso   1.000  H
  H668     1.0000 0.90213  0.12467  0.02827  Biso   1.000  H
  C531     1.0000 0.71543  0.23797  0.72847  Biso   1.000  C
  H669     1.0000 0.70333  0.23917  0.67887  Biso   1.000  H
  C532     1.0000 0.73063  0.24687  0.88447  Biso   1.000  C
  H670     1.0000 0.73053  0.25527  0.94357  Biso   1.000  H
  C533     1.0000 0.78593  0.04357  0.08347  Biso   1.000  C
  H671     1.0000 0.76923  0.03747  0.12957  Biso   1.000  H
  H672     1.0000 0.78223  0.02497  0.04787  Biso   1.000  H
  H673     1.0000 0.80643  0.05257  0.11477  Biso   1.000  H
  C534     1.0000 0.73273  0.22257  0.71257  Biso   1.000  C
  H674     1.0000 0.73333  0.21507  0.65247  Biso   1.000  H
  C535     1.0000 0.66703  0.08457  0.66987  Biso   1.000  C
  H675     1.0000 0.65643  0.08177  0.61027  Biso   1.000  H
  H676     1.0000 0.66073  0.06387  0.69677  Biso   1.000  H
  H677     1.0000 0.66113  0.09647  0.71167  Biso   1.000  H
  C536     1.0000 0.75053  0.01247  0.60497  Biso   1.000  C
  H678     1.0000 0.76643  0.02667  0.56057  Biso   1.000  H
  C537     1.0000 0.72183  0.00397  0.74607  Biso   1.000  C
  H679     1.0000 0.71773  0.01207  0.80307  Biso   1.000  H
  C538     1.0000 0.74892  0.21817  0.78607  Biso   1.000  C
  C539     1.0000 0.74603  0.23017  0.86847  Biso   1.000  C
  H680     1.0000 0.75553  0.22647  0.92047  Biso   1.000  H
  C540     1.0000 0.89653  0.14317  0.90717  Biso   1.000  C
  C541     1.0000 0.70293  0.10277  0.65517  Biso   1.000  C
  C542     1.0000 0.76807  0.19999  0.77667  Biso   1.000  C
  C543     1.0000 0.89552  0.24196  0.04697  Biso   1.000  C
  H681     1.0000 0.87383  0.23767  0.05437  Biso   1.000  H
  H682     1.0000 0.90123  0.23337  0.09987  Biso   1.000  H
  H683     1.0000 0.90983  0.26477  0.04347  Biso   1.000  H
  C544     1.0000 0.78606  0.06788  0.01947  Biso   1.000  C
  C545     1.0000 0.83038  0.14896  0.05987  Biso   1.000  C
  H684     1.0000 0.85323  0.16227  0.05087  Biso   1.000  H
  H685     1.0000 0.82303  0.15907  0.10417  Biso   1.000  H
  H686     1.0000 0.82563  0.12827  0.08377  Biso   1.000  H
  C546     1.0000 0.75471  0.17357  0.85087  Biso   1.000  C
  H687     1.0000 0.73203  0.15917  0.83777  Biso   1.000  H
  H688     1.0000 0.75623  0.18337  0.91197  Biso   1.000  H
  C547     1.0000 0.75303  0.06715  0.79547  Biso   1.000  C
  H689     1.0000 0.75413  0.05357  0.84447  Biso   1.000  H
  H690     1.0000 0.73053  0.06057  0.78597  Biso   1.000  H
  C548     1.0000 0.74572  0.02504  0.68217  Biso   1.000  C
  C549     1.0000 0.76177  0.18499  0.67237  Biso   1.000  C
  H691     1.0000 0.76943  0.20217  0.62607  Biso   1.000  H
  H692     1.0000 0.73883  0.17077  0.66267  Biso   1.000  H
  C550     1.0000 0.89792  0.22689  0.96087  Biso   1.000  C
  C551     1.0000 0.80283  0.22587  0.78777  Biso   1.000  C
  H693     1.0000 0.80493  0.23757  0.84567  Biso   1.000  H
  H694     1.0000 0.80843  0.24097  0.73597  Biso   1.000  H
  C552     1.0000 0.80121  0.06923  0.71107  Biso   1.000  C
  H695     1.0000 0.80703  0.06377  0.65117  Biso   1.000  H
  H696     1.0000 0.80253  0.05537  0.75867  Biso   1.000  H
  C553     1.0000 0.76155  0.07903  0.61997  Biso   1.000  C
  H697     1.0000 0.73873  0.07107  0.61147  Biso   1.000  H
  H698     1.0000 0.76953  0.07397  0.56337  Biso   1.000  H
  C554     1.0000 0.76630  0.06160  0.70497  Biso   1.000  C
  O287     1.0000 0.87442  0.14623  0.87897  Biso   1.000  O
  O288     1.0000 0.87436  0.20883  0.91067  Biso   1.000  O
  Mn108    1.0000 0.90491  0.19521  0.81090  Biso   1.000  Mn
  C555     1.0000 0.74333  0.96957  0.65047  Biso   1.000  C
  H699     1.0000 0.75133  0.95477  0.64777  Biso   1.000  H
  C556     1.0000 0.70053  0.97457  0.64417  Biso   1.000  C
  H700     1.0000 0.67783  0.96507  0.63127  Biso   1.000  H
  C557     1.0000 0.76473  0.00617  0.67307  Biso   1.000  C
  H701     1.0000 0.78783  0.01667  0.67507  Biso   1.000  H
  C558     1.0000 0.71913  0.00907  0.66777  Biso   1.000  C
  H702     1.0000 0.70683  0.01987  0.67187  Biso   1.000  H
