data_image0
_cell_length_a       24.605
_cell_length_b       24.605
_cell_length_c       46.814
_cell_angle_alpha    90
_cell_angle_beta     90
_cell_angle_gamma    90

_symmetry_space_group_name_H-M    "P 1"
_symmetry_int_tables_number       1

loop_
  _symmetry_equiv_pos_as_xyz
  'x, y, z'

loop_
  _atom_site_label
  _atom_site_occupancy
  _atom_site_fract_x
  _atom_site_fract_y
  _atom_site_fract_z
  _atom_site_thermal_displace_type
  _atom_site_B_iso_or_equiv
  _atom_site_type_symbol
  Pt1      1.0000 0.75610  0.50005  0.20525  Biso   1.000  Pt
  Pt2      1.0000 0.83512  0.77542  0.23281  Biso   1.000  Pt
  Pt3      1.0000 0.95333  0.56755  0.31356  Biso   1.000  Pt
  Pt4      1.0000 0.68418  0.47755  0.34808  Biso   1.000  Pt
  Pt5      1.0000 0.57183  0.68611  0.26961  Biso   1.000  Pt
  Pt6      1.0000 0.76155  0.74667  0.37614  Biso   1.000  Pt
  Ag1      1.0000 0.71640  0.65944  0.22989  Biso   1.000  Ag
  Ag2      1.0000 0.84916  0.61054  0.25117  Biso   1.000  Ag
  Ag3      1.0000 0.81057  0.49992  0.28892  Biso   1.000  Ag
  Ag4      1.0000 0.67300  0.55956  0.27422  Biso   1.000  Ag
  Ag5      1.0000 0.72873  0.73625  0.29258  Biso   1.000  Ag
  Ag6      1.0000 0.87396  0.71170  0.31269  Biso   1.000  Ag
  Ag7      1.0000 0.79838  0.59389  0.34583  Biso   1.000  Ag
  Ag8      1.0000 0.64760  0.64045  0.34580  Biso   1.000  Ag
  La1      1.0000 0.91892  0.38170  0.11279  Biso   1.000  La
  S1       1.0000 0.69619  0.56270  0.22104  Biso   1.000  S
  S2       1.0000 0.82466  0.51556  0.23659  Biso   1.000  S
  S3       1.0000 0.81193  0.69026  0.22288  Biso   1.000  S
  S4       1.0000 0.81985  0.77253  0.28075  Biso   1.000  S
  S5       1.0000 0.92083  0.63689  0.28686  Biso   1.000  S
  S6       1.0000 0.87316  0.53198  0.32720  Biso   1.000  S
  S7       1.0000 0.71379  0.48100  0.30235  Biso   1.000  S
  S8       1.0000 0.70594  0.56216  0.36159  Biso   1.000  S
  S9       1.0000 0.60252  0.61926  0.29843  Biso   1.000  S
  S10      1.0000 0.65356  0.71900  0.25616  Biso   1.000  S
  S11      1.0000 0.69523  0.73073  0.34347  Biso   1.000  S
  S12      1.0000 0.82565  0.69005  0.35924  Biso   1.000  S
  O1       1.0000 0.60740  0.46260  0.14704  Biso   1.000  O
  O2       1.0000 0.58850  0.54130  0.13566  Biso   1.000  O
  O3       1.0000 0.88273  0.39500  0.16129  Biso   1.000  O
  O4       1.0000 0.93540  0.37450  0.20102  Biso   1.000  O
  O5       1.0000 0.86910  0.77350  0.13580  Biso   1.000  O
  O6       1.0000 0.79840  0.72900  0.12416  Biso   1.000  O
  O7       1.0000 0.85910  0.95460  0.25234  Biso   1.000  O
  O8       1.0000 0.90180  0.95020  0.29287  Biso   1.000  O
  O9       1.0000 0.11425  0.62740  0.27258  Biso   1.000  O
  O10      1.0000 0.10110  0.71090  0.27894  Biso   1.000  O
  O11      1.0000 0.92556  0.48033  0.12014  Biso   1.000  O
  O12      1.0000 0.86882  0.54534  0.10647  Biso   1.000  O
  O13      1.0000 0.63238  0.30152  0.31696  Biso   1.000  O
  O14      1.0000 0.71000  0.28915  0.29483  Biso   1.000  O
  O15      1.0000 0.67170  0.45220  0.44518  Biso   1.000  O
  O16      1.0000 0.63610  0.53220  0.45652  Biso   1.000  O
  O17      1.0000 0.40910  0.59140  0.29315  Biso   1.000  O
  O18      1.0000 0.42500  0.59210  0.34000  Biso   1.000  O
  O19      1.0000 0.98700  0.33004  0.04193  Biso   1.000  O
  O20      1.0000 0.91873  0.31431  0.07258  Biso   1.000  O
  O21      1.0000 0.64590  0.89042  0.39690  Biso   1.000  O
  O22      1.0000 0.56620  0.84360  0.39353  Biso   1.000  O
  O23      1.0000 0.89380  0.76620  0.44727  Biso   1.000  O
  O24      1.0000 0.96230  0.75570  0.42194  Biso   1.000  O
  N1       1.0000 0.70080  0.48960  0.17287  Biso   1.000  N
  H1       1.0000 0.72020  0.48610  0.15620  Biso   1.000  H
  H2       1.0000 0.68370  0.45690  0.17600  Biso   1.000  H
  N2       1.0000 0.80390  0.43990  0.18948  Biso   1.000  N
  H3       1.0000 0.78310  0.40890  0.18770  Biso   1.000  H
  H4       1.0000 0.81510  0.44970  0.17140  Biso   1.000  H
  N3       1.0000 0.84230  0.78820  0.18983  Biso   1.000  N
  H5       1.0000 0.82930  0.82210  0.18520  Biso   1.000  H
  H6       1.0000 0.87830  0.78660  0.18460  Biso   1.000  H
  N4       1.0000 0.86860  0.84700  0.24114  Biso   1.000  N
  H7       1.0000 0.90300  0.84680  0.23340  Biso   1.000  H
  H8       1.0000 0.84900  0.87290  0.23140  Biso   1.000  H
  N5       1.0000 0.02680  0.59930  0.30299  Biso   1.000  N
  H9       1.0000 0.04860  0.59890  0.31890  Biso   1.000  H
  H10      1.0000 0.04270  0.57710  0.28950  Biso   1.000  H
  N6       1.0000 0.98720  0.50410  0.33572  Biso   1.000  N
  H11      1.0000 0.01760  0.49210  0.32620  Biso   1.000  H
  H12      1.0000 0.99780  0.51600  0.35350  Biso   1.000  H
  N7       1.0000 0.66810  0.39710  0.33956  Biso   1.000  N
  H13      1.0000 0.67740  0.37690  0.35530  Biso   1.000  H
  H14      1.0000 0.63130  0.39320  0.33680  Biso   1.000  H
  N8       1.0000 0.65640  0.46760  0.38826  Biso   1.000  N
  H15      1.0000 0.62070  0.45660  0.38740  Biso   1.000  H
  H16      1.0000 0.67590  0.44020  0.39680  Biso   1.000  H
  N9       1.0000 0.49590  0.66270  0.28201  Biso   1.000  N
  H17      1.0000 0.47540  0.69320  0.28550  Biso   1.000  H
  H18      1.0000 0.47970  0.64410  0.26720  Biso   1.000  H
  N10      1.0000 0.54210  0.74070  0.24076  Biso   1.000  N
  H19      1.0000 0.51350  0.72470  0.23130  Biso   1.000  H
  H20      1.0000 0.52830  0.76990  0.25070  Biso   1.000  H
  N11      1.0000 0.70704  0.79720  0.39374  Biso   1.000  N
  H21      1.0000 0.70750  0.79120  0.41310  Biso   1.000  H
  H22      1.0000 0.71930  0.83210  0.39090  Biso   1.000  H
  N12      1.0000 0.81930  0.76390  0.40480  Biso   1.000  N
  H23      1.0000 0.81710  0.80050  0.40870  Biso   1.000  H
  H24      1.0000 0.81060  0.74580  0.42140  Biso   1.000  H
  C1       1.0000 0.63680  0.54500  0.19875  Biso   1.000  C
  C2       1.0000 0.65910  0.52970  0.16790  Biso   1.000  C
  H25      1.0000 0.67450  0.56240  0.15820  Biso   1.000  H
  C3       1.0000 0.61450  0.50490  0.15029  Biso   1.000  C
  C4       1.0000 0.60120  0.50530  0.21133  Biso   1.000  C
  H26      1.0000 0.58910  0.51820  0.23010  Biso   1.000  H
  H27      1.0000 0.62060  0.47080  0.21350  Biso   1.000  H
  H28      1.0000 0.56950  0.49990  0.19890  Biso   1.000  H
  C5       1.0000 0.60490  0.60420  0.19420  Biso   1.000  C
  H29      1.0000 0.62990  0.63060  0.18560  Biso   1.000  H
  H30      1.0000 0.59250  0.61790  0.21280  Biso   1.000  H
  H31      1.0000 0.57350  0.59910  0.18160  Biso   1.000  H
  C6       1.0000 0.88010  0.47900  0.21882  Biso   1.000  C
  C7       1.0000 0.85360  0.42630  0.20709  Biso   1.000  C
  H32      1.0000 0.84430  0.40080  0.22300  Biso   1.000  H
  C8       1.0000 0.88940  0.39870  0.18505  Biso   1.000  C
  C9       1.0000 0.90280  0.51520  0.19531  Biso   1.000  C
  H33      1.0000 0.87510  0.52050  0.18050  Biso   1.000  H
  H34      1.0000 0.93490  0.49800  0.18690  Biso   1.000  H
  H35      1.0000 0.91300  0.55050  0.20340  Biso   1.000  H
  C10      1.0000 0.92060  0.46760  0.24259  Biso   1.000  C
  H36      1.0000 0.90370  0.44410  0.25700  Biso   1.000  H
  H37      1.0000 0.93160  0.50190  0.25150  Biso   1.000  H
  H38      1.0000 0.95260  0.44940  0.23460  Biso   1.000  H
  C11      1.0000 0.82920  0.68830  0.18430  Biso   1.000  C
  C12      1.0000 0.81090  0.74590  0.17443  Biso   1.000  C
  H39      1.0000 0.77080  0.75130  0.17620  Biso   1.000  H
  C13      1.0000 0.83200  0.74980  0.14081  Biso   1.000  C
  C14      1.0000 0.89210  0.67480  0.18313  Biso   1.000  C
  H40      1.0000 0.89800  0.63710  0.18910  Biso   1.000  H
  H41      1.0000 0.91180  0.69930  0.19600  Biso   1.000  H
  H42      1.0000 0.90540  0.67970  0.16360  Biso   1.000  H
  C15      1.0000 0.79760  0.63990  0.17121  Biso   1.000  C
  H43      1.0000 0.81230  0.60570  0.17870  Biso   1.000  H
  H44      1.0000 0.80150  0.64050  0.15040  Biso   1.000  H
  H45      1.0000 0.75910  0.64290  0.17630  Biso   1.000  H
  C16      1.0000 0.82710  0.84390  0.28693  Biso   1.000  C
  C17      1.0000 0.87370  0.86520  0.27068  Biso   1.000  C
  H46      1.0000 0.90700  0.84770  0.27870  Biso   1.000  H
  C18      1.0000 0.88390  0.92790  0.27089  Biso   1.000  C
  C19      1.0000 0.77660  0.87390  0.27790  Biso   1.000  C
  H47      1.0000 0.74560  0.86120  0.28930  Biso   1.000  H
  H48      1.0000 0.76950  0.86720  0.25760  Biso   1.000  H
  H49      1.0000 0.78170  0.91300  0.28100  Biso   1.000  H
  C20      1.0000 0.98210  0.65660  0.26894  Biso   1.000  C
  C21      1.0000 0.02540  0.65210  0.29230  Biso   1.000  C
  H50      1.0000 0.01630  0.67780  0.30810  Biso   1.000  H
  C22      1.0000 0.08420  0.66410  0.28160  Biso   1.000  C
  C23      1.0000 0.99520  0.61990  0.24502  Biso   1.000  C
  H51      1.0000 0.96630  0.62180  0.23060  Biso   1.000  H
  H52      1.0000 0.99820  0.58250  0.25210  Biso   1.000  H
  H53      1.0000 0.02980  0.63080  0.23640  Biso   1.000  H
  C24      1.0000 0.97030  0.71700  0.25754  Biso   1.000  C
  H54      1.0000 0.96130  0.74060  0.27370  Biso   1.000  H
  H55      1.0000 0.93970  0.71610  0.24420  Biso   1.000  H
  H56      1.0000 0.00260  0.73100  0.24780  Biso   1.000  H
  C25      1.0000 0.89300  0.47630  0.35130  Biso   1.000  C
  C26      1.0000 0.94770  0.45740  0.33909  Biso   1.000  C
  H57      1.0000 0.94110  0.44120  0.31980  Biso   1.000  H
  C27      1.0000 0.91510  0.52270  0.10752  Biso   1.000  C
  C28      1.0000 0.90190  0.49810  0.38180  Biso   1.000  C
  H58      1.0000 0.92970  0.52660  0.38150  Biso   1.000  H
  H59      1.0000 0.91400  0.46840  0.39420  Biso   1.000  H
  H60      1.0000 0.86780  0.51310  0.38910  Biso   1.000  H
  C29      1.0000 0.85030  0.43390  0.34984  Biso   1.000  C
  H61      1.0000 0.81650  0.44820  0.35800  Biso   1.000  H
  H62      1.0000 0.86190  0.40200  0.36070  Biso   1.000  H
  H63      1.0000 0.84420  0.42360  0.32990  Biso   1.000  H
  C30      1.0000 0.68720  0.41500  0.28880  Biso   1.000  C
  C31      1.0000 0.69640  0.37510  0.31480  Biso   1.000  C
  H64      1.0000 0.73610  0.37330  0.31910  Biso   1.000  H
  C32      1.0000 0.67490  0.31610  0.30862  Biso   1.000  C
  C33      1.0000 0.63140  0.42130  0.28244  Biso   1.000  C
  H65      1.0000 0.61160  0.43120  0.29990  Biso   1.000  H
  H66      1.0000 0.61690  0.38700  0.27490  Biso   1.000  H
  H67      1.0000 0.62680  0.45000  0.26810  Biso   1.000  H
  C34      1.0000 0.72210  0.39920  0.26359  Biso   1.000  C
  H68      1.0000 0.76010  0.39610  0.26970  Biso   1.000  H
  H69      1.0000 0.71910  0.42710  0.24870  Biso   1.000  H
  H70      1.0000 0.70980  0.36420  0.25600  Biso   1.000  H
  C35      1.0000 0.70660  0.55440  0.40085  Biso   1.000  C
  C36      1.0000 0.65980  0.51960  0.40760  Biso   1.000  C
  H71      1.0000 0.62680  0.54170  0.40290  Biso   1.000  H
  C37      1.0000 0.65190  0.50060  0.43882  Biso   1.000  C
  C38      1.0000 0.75360  0.52720  0.41040  Biso   1.000  C
  H72      1.0000 0.75490  0.49080  0.40200  Biso   1.000  H
  H73      1.0000 0.75270  0.52430  0.43130  Biso   1.000  H
  H74      1.0000 0.78590  0.54780  0.40460  Biso   1.000  H
  C39      1.0000 0.69830  0.60760  0.41300  Biso   1.000  C
  H75      1.0000 0.66380  0.62260  0.40600  Biso   1.000  H
  H76      1.0000 0.72820  0.63160  0.40730  Biso   1.000  H
  H77      1.0000 0.69710  0.60480  0.43390  Biso   1.000  H
  C40      1.0000 0.53760  0.58330  0.30564  Biso   1.000  C
  C41      1.0000 0.49550  0.62650  0.30885  Biso   1.000  C
  H78      1.0000 0.50420  0.64920  0.32600  Biso   1.000  H
  C42      1.0000 0.43680  0.60150  0.31239  Biso   1.000  C
  C43      1.0000 0.52700  0.54630  0.27739  Biso   1.000  C
  H79      1.0000 0.55520  0.51840  0.27600  Biso   1.000  H
  H80      1.0000 0.52810  0.56940  0.26030  Biso   1.000  H
  H81      1.0000 0.49130  0.52890  0.27880  Biso   1.000  H
  C44      1.0000 0.54070  0.54410  0.33159  Biso   1.000  C
  H82      1.0000 0.56910  0.51690  0.32820  Biso   1.000  H
  H83      1.0000 0.50570  0.52580  0.33410  Biso   1.000  H
  H84      1.0000 0.54940  0.56480  0.34890  Biso   1.000  H
  C45      1.0000 0.63370  0.77780  0.23210  Biso   1.000  C
  C46      1.0000 0.58140  0.76160  0.21901  Biso   1.000  C
  H85      1.0000 0.59000  0.72990  0.20640  Biso   1.000  H
  C47      1.0000 0.94010  0.30580  0.05077  Biso   1.000  C
  C48      1.0000 0.62370  0.82710  0.25177  Biso   1.000  C
  H86      1.0000 0.65820  0.83860  0.26030  Biso   1.000  H
  H87      1.0000 0.59810  0.81700  0.26690  Biso   1.000  H
  H88      1.0000 0.60850  0.85710  0.24060  Biso   1.000  H
  C49      1.0000 0.68020  0.78640  0.21261  Biso   1.000  C
  H89      1.0000 0.71190  0.79820  0.22370  Biso   1.000  H
  H90      1.0000 0.67090  0.81430  0.19850  Biso   1.000  H
  H91      1.0000 0.68870  0.75230  0.20270  Biso   1.000  H
  C50      1.0000 0.64870  0.78760  0.35231  Biso   1.000  C
  C51      1.0000 0.65070  0.79550  0.38460  Biso   1.000  C
  H92      1.0000 0.63200  0.76430  0.39410  Biso   1.000  H
  C52      1.0000 0.62160  0.84910  0.39297  Biso   1.000  C
  C53      1.0000 0.66590  0.83700  0.33645  Biso   1.000  C
  H93      1.0000 0.66360  0.83020  0.31590  Biso   1.000  H
  H94      1.0000 0.70350  0.84600  0.34150  Biso   1.000  H
  H95      1.0000 0.64210  0.86750  0.34150  Biso   1.000  H
  C54      1.0000 0.59280  0.76960  0.34110  Biso   1.000  C
  H96      1.0000 0.59430  0.76580  0.32030  Biso   1.000  H
  H97      1.0000 0.56540  0.79690  0.34620  Biso   1.000  H
  H98      1.0000 0.58290  0.73460  0.34970  Biso   1.000  H
  C55      1.0000 0.87190  0.68960  0.38909  Biso   1.000  C
  C56      1.0000 0.87810  0.75140  0.39819  Biso   1.000  C
  H99      1.0000 0.88970  0.77320  0.38120  Biso   1.000  H
  C57      1.0000 0.92090  0.75820  0.42253  Biso   1.000  C
  C58      1.0000 0.85640  0.65180  0.41167  Biso   1.000  C
  H100     1.0000 0.85430  0.61490  0.40380  Biso   1.000  H
  H101     1.0000 0.82080  0.66210  0.41940  Biso   1.000  H
  H102     1.0000 0.88360  0.65280  0.42700  Biso   1.000  H
  C59      1.0000 0.93060  0.67430  0.37840  Biso   1.000  C
  H103     1.0000 0.94180  0.69960  0.36330  Biso   1.000  H
  H104     1.0000 0.93040  0.63720  0.37080  Biso   1.000  H
  H105     1.0000 0.95620  0.67660  0.39440  Biso   1.000  H
  O25      1.0000 0.91300  0.43590  0.06287  Biso   1.000  O
  O26      1.0000 0.83710  0.41600  0.08009  Biso   1.000  O
  C60      1.0000 0.86750  0.43950  0.05950  Biso   1.000  C
  C61      1.0000 0.85050  0.46540  0.03500  Biso   1.000  C
  H106     1.0000 0.81070  0.46610  0.03450  Biso   1.000  H
  H107     1.0000 0.86420  0.44580  0.01830  Biso   1.000  H
  H108     1.0000 0.86450  0.50270  0.03490  Biso   1.000  H
  La2      1.0000 0.93444  0.02731  0.29350  Biso   1.000  La
  La3      1.0000 0.49310  0.81820  0.28732  Biso   1.000  La
  La4      1.0000 0.21480  0.64370  0.25495  Biso   1.000  La
  La5      1.0000 0.83380  0.76840  0.49624  Biso   1.000  La
  La6      1.0000 0.86370  0.06060  0.23880  Biso   1.000  La
  La7      1.0000 0.18730  0.72330  0.22320  Biso   1.000  La
  O27      1.0000 0.78780  0.71320  0.54620  Biso   1.000  O
  Pt7      1.0000 0.24390  0.49995  0.70525  Biso   1.000  Pt
  Pt8      1.0000 0.16488  0.22458  0.73281  Biso   1.000  Pt
  Pt9      1.0000 0.04667  0.43245  0.81356  Biso   1.000  Pt
  Pt10     1.0000 0.31582  0.52245  0.84808  Biso   1.000  Pt
  Pt11     1.0000 0.42817  0.31389  0.76961  Biso   1.000  Pt
  Pt12     1.0000 0.23845  0.25333  0.87614  Biso   1.000  Pt
  Ag9      1.0000 0.28360  0.34056  0.72989  Biso   1.000  Ag
  Ag10     1.0000 0.15084  0.38946  0.75117  Biso   1.000  Ag
  Ag11     1.0000 0.18943  0.50008  0.78892  Biso   1.000  Ag
  Ag12     1.0000 0.32700  0.44044  0.77422  Biso   1.000  Ag
  Ag13     1.0000 0.27127  0.26375  0.79258  Biso   1.000  Ag
  Ag14     1.0000 0.12604  0.28830  0.81269  Biso   1.000  Ag
  Ag15     1.0000 0.20162  0.40611  0.84583  Biso   1.000  Ag
  Ag16     1.0000 0.35240  0.35955  0.84580  Biso   1.000  Ag
  La8      1.0000 0.08108  0.61830  0.61279  Biso   1.000  La
  S13      1.0000 0.30381  0.43730  0.72104  Biso   1.000  S
  S14      1.0000 0.17534  0.48444  0.73659  Biso   1.000  S
  S15      1.0000 0.18807  0.30974  0.72288  Biso   1.000  S
  S16      1.0000 0.18015  0.22747  0.78075  Biso   1.000  S
  S17      1.0000 0.07917  0.36311  0.78686  Biso   1.000  S
  S18      1.0000 0.12684  0.46802  0.82720  Biso   1.000  S
  S19      1.0000 0.28621  0.51900  0.80235  Biso   1.000  S
  S20      1.0000 0.29406  0.43784  0.86159  Biso   1.000  S
  S21      1.0000 0.39748  0.38074  0.79843  Biso   1.000  S
  S22      1.0000 0.34644  0.28100  0.75616  Biso   1.000  S
  S23      1.0000 0.30477  0.26927  0.84347  Biso   1.000  S
  S24      1.0000 0.17435  0.30995  0.85924  Biso   1.000  S
  O28      1.0000 0.39260  0.53740  0.64704  Biso   1.000  O
  O29      1.0000 0.41150  0.45870  0.63566  Biso   1.000  O
  O30      1.0000 0.11727  0.60500  0.66129  Biso   1.000  O
  O31      1.0000 0.06460  0.62550  0.70102  Biso   1.000  O
  O32      1.0000 0.13090  0.22650  0.63580  Biso   1.000  O
  O33      1.0000 0.20160  0.27100  0.62416  Biso   1.000  O
  O34      1.0000 0.14090  0.04540  0.75234  Biso   1.000  O
  O35      1.0000 0.09820  0.04980  0.79287  Biso   1.000  O
  O36      1.0000 0.88575  0.37260  0.77258  Biso   1.000  O
  O37      1.0000 0.89890  0.28910  0.77894  Biso   1.000  O
  O38      1.0000 0.07444  0.51967  0.62014  Biso   1.000  O
  O39      1.0000 0.13118  0.45466  0.60647  Biso   1.000  O
  O40      1.0000 0.36762  0.69848  0.81696  Biso   1.000  O
  O41      1.0000 0.29000  0.71085  0.79483  Biso   1.000  O
  O42      1.0000 0.32830  0.54780  0.94518  Biso   1.000  O
  O43      1.0000 0.36390  0.46780  0.95652  Biso   1.000  O
  O44      1.0000 0.59090  0.40860  0.79315  Biso   1.000  O
  O45      1.0000 0.57500  0.40790  0.84000  Biso   1.000  O
  O46      1.0000 0.01300  0.66996  0.54193  Biso   1.000  O
  O47      1.0000 0.08127  0.68569  0.57258  Biso   1.000  O
  O48      1.0000 0.35410  0.10958  0.89690  Biso   1.000  O
  O49      1.0000 0.43380  0.15640  0.89353  Biso   1.000  O
  O50      1.0000 0.10620  0.23380  0.94727  Biso   1.000  O
  O51      1.0000 0.03770  0.24430  0.92194  Biso   1.000  O
  N13      1.0000 0.29920  0.51040  0.67287  Biso   1.000  N
  H109     1.0000 0.27980  0.51390  0.65620  Biso   1.000  H
  H110     1.0000 0.31630  0.54310  0.67600  Biso   1.000  H
  N14      1.0000 0.19610  0.56010  0.68948  Biso   1.000  N
  H111     1.0000 0.21690  0.59110  0.68770  Biso   1.000  H
  H112     1.0000 0.18490  0.55030  0.67140  Biso   1.000  H
  N15      1.0000 0.15770  0.21180  0.68983  Biso   1.000  N
  H113     1.0000 0.17070  0.17790  0.68520  Biso   1.000  H
  H114     1.0000 0.12170  0.21340  0.68460  Biso   1.000  H
  N16      1.0000 0.13140  0.15300  0.74114  Biso   1.000  N
  H115     1.0000 0.09700  0.15320  0.73340  Biso   1.000  H
  H116     1.0000 0.15100  0.12710  0.73140  Biso   1.000  H
  N17      1.0000 0.97320  0.40070  0.80299  Biso   1.000  N
  H117     1.0000 0.95140  0.40110  0.81890  Biso   1.000  H
  H118     1.0000 0.95730  0.42290  0.78950  Biso   1.000  H
  N18      1.0000 0.01280  0.49590  0.83572  Biso   1.000  N
  H119     1.0000 0.98240  0.50790  0.82620  Biso   1.000  H
  H120     1.0000 0.00220  0.48400  0.85350  Biso   1.000  H
  N19      1.0000 0.33190  0.60290  0.83956  Biso   1.000  N
  H121     1.0000 0.32260  0.62310  0.85530  Biso   1.000  H
  H122     1.0000 0.36870  0.60680  0.83680  Biso   1.000  H
  N20      1.0000 0.34360  0.53240  0.88826  Biso   1.000  N
  H123     1.0000 0.37930  0.54340  0.88740  Biso   1.000  H
  H124     1.0000 0.32410  0.55980  0.89680  Biso   1.000  H
  N21      1.0000 0.50410  0.33730  0.78201  Biso   1.000  N
  H125     1.0000 0.52460  0.30680  0.78550  Biso   1.000  H
  H126     1.0000 0.52030  0.35590  0.76720  Biso   1.000  H
  N22      1.0000 0.45790  0.25930  0.74076  Biso   1.000  N
  H127     1.0000 0.48650  0.27530  0.73130  Biso   1.000  H
  H128     1.0000 0.47170  0.23010  0.75070  Biso   1.000  H
  N23      1.0000 0.29296  0.20280  0.89374  Biso   1.000  N
  H129     1.0000 0.29250  0.20880  0.91310  Biso   1.000  H
  H130     1.0000 0.28070  0.16790  0.89090  Biso   1.000  H
  N24      1.0000 0.18070  0.23610  0.90480  Biso   1.000  N
  H131     1.0000 0.18290  0.19950  0.90870  Biso   1.000  H
  H132     1.0000 0.18940  0.25420  0.92140  Biso   1.000  H
  C62      1.0000 0.36320  0.45500  0.69875  Biso   1.000  C
  C63      1.0000 0.34090  0.47030  0.66790  Biso   1.000  C
  H133     1.0000 0.32550  0.43760  0.65820  Biso   1.000  H
  C64      1.0000 0.38550  0.49510  0.65029  Biso   1.000  C
  C65      1.0000 0.39880  0.49470  0.71133  Biso   1.000  C
  H134     1.0000 0.41090  0.48180  0.73010  Biso   1.000  H
  H135     1.0000 0.37940  0.52920  0.71350  Biso   1.000  H
  H136     1.0000 0.43050  0.50010  0.69890  Biso   1.000  H
  C66      1.0000 0.39510  0.39580  0.69420  Biso   1.000  C
  H137     1.0000 0.37010  0.36940  0.68560  Biso   1.000  H
  H138     1.0000 0.40750  0.38210  0.71280  Biso   1.000  H
  H139     1.0000 0.42650  0.40090  0.68160  Biso   1.000  H
  C67      1.0000 0.11990  0.52100  0.71882  Biso   1.000  C
  C68      1.0000 0.14640  0.57370  0.70709  Biso   1.000  C
  H140     1.0000 0.15570  0.59920  0.72300  Biso   1.000  H
  C69      1.0000 0.11060  0.60130  0.68505  Biso   1.000  C
  C70      1.0000 0.09720  0.48480  0.69531  Biso   1.000  C
  H141     1.0000 0.12490  0.47950  0.68050  Biso   1.000  H
  H142     1.0000 0.06510  0.50200  0.68690  Biso   1.000  H
  H143     1.0000 0.08700  0.44950  0.70340  Biso   1.000  H
  C71      1.0000 0.07940  0.53240  0.74259  Biso   1.000  C
  H144     1.0000 0.09630  0.55590  0.75700  Biso   1.000  H
  H145     1.0000 0.06840  0.49810  0.75150  Biso   1.000  H
  H146     1.0000 0.04740  0.55060  0.73460  Biso   1.000  H
  C72      1.0000 0.17080  0.31170  0.68430  Biso   1.000  C
  C73      1.0000 0.18910  0.25410  0.67443  Biso   1.000  C
  H147     1.0000 0.22920  0.24870  0.67620  Biso   1.000  H
  C74      1.0000 0.16800  0.25020  0.64081  Biso   1.000  C
  C75      1.0000 0.10790  0.32520  0.68313  Biso   1.000  C
  H148     1.0000 0.10200  0.36290  0.68910  Biso   1.000  H
  H149     1.0000 0.08820  0.30070  0.69600  Biso   1.000  H
  H150     1.0000 0.09460  0.32030  0.66360  Biso   1.000  H
  C76      1.0000 0.20240  0.36010  0.67121  Biso   1.000  C
  H151     1.0000 0.18770  0.39430  0.67870  Biso   1.000  H
  H152     1.0000 0.19850  0.35950  0.65040  Biso   1.000  H
  H153     1.0000 0.24090  0.35710  0.67630  Biso   1.000  H
  C77      1.0000 0.17290  0.15610  0.78693  Biso   1.000  C
  C78      1.0000 0.12630  0.13480  0.77068  Biso   1.000  C
  H154     1.0000 0.09300  0.15230  0.77870  Biso   1.000  H
  C79      1.0000 0.11610  0.07210  0.77089  Biso   1.000  C
  C80      1.0000 0.22340  0.12610  0.77790  Biso   1.000  C
  H155     1.0000 0.25440  0.13880  0.78930  Biso   1.000  H
  H156     1.0000 0.23050  0.13280  0.75760  Biso   1.000  H
  H157     1.0000 0.21830  0.08700  0.78100  Biso   1.000  H
  C81      1.0000 0.01790  0.34340  0.76894  Biso   1.000  C
  C82      1.0000 0.97460  0.34790  0.79230  Biso   1.000  C
  H158     1.0000 0.98370  0.32220  0.80810  Biso   1.000  H
  C83      1.0000 0.91580  0.33590  0.78160  Biso   1.000  C
  C84      1.0000 0.00480  0.38010  0.74502  Biso   1.000  C
  H159     1.0000 0.03370  0.37820  0.73060  Biso   1.000  H
  H160     1.0000 0.00180  0.41750  0.75210  Biso   1.000  H
  H161     1.0000 0.97020  0.36920  0.73640  Biso   1.000  H
  C85      1.0000 0.02970  0.28300  0.75754  Biso   1.000  C
  H162     1.0000 0.03870  0.25940  0.77370  Biso   1.000  H
  H163     1.0000 0.06030  0.28390  0.74420  Biso   1.000  H
  H164     1.0000 0.99740  0.26900  0.74780  Biso   1.000  H
  C86      1.0000 0.10700  0.52370  0.85130  Biso   1.000  C
  C87      1.0000 0.05230  0.54260  0.83909  Biso   1.000  C
  H165     1.0000 0.05890  0.55880  0.81980  Biso   1.000  H
  C88      1.0000 0.08490  0.47730  0.60752  Biso   1.000  C
  C89      1.0000 0.09810  0.50190  0.88180  Biso   1.000  C
  H166     1.0000 0.07030  0.47340  0.88150  Biso   1.000  H
  H167     1.0000 0.08600  0.53160  0.89420  Biso   1.000  H
  H168     1.0000 0.13220  0.48690  0.88910  Biso   1.000  H
  C90      1.0000 0.14970  0.56610  0.84984  Biso   1.000  C
  H169     1.0000 0.18350  0.55180  0.85800  Biso   1.000  H
  H170     1.0000 0.13810  0.59800  0.86070  Biso   1.000  H
  H171     1.0000 0.15580  0.57640  0.82990  Biso   1.000  H
  C91      1.0000 0.31280  0.58500  0.78880  Biso   1.000  C
  C92      1.0000 0.30360  0.62490  0.81480  Biso   1.000  C
  H172     1.0000 0.26390  0.62670  0.81910  Biso   1.000  H
  C93      1.0000 0.32510  0.68390  0.80862  Biso   1.000  C
  C94      1.0000 0.36860  0.57870  0.78244  Biso   1.000  C
  H173     1.0000 0.38840  0.56880  0.79990  Biso   1.000  H
  H174     1.0000 0.38310  0.61300  0.77490  Biso   1.000  H
  H175     1.0000 0.37320  0.55000  0.76810  Biso   1.000  H
  C95      1.0000 0.27790  0.60080  0.76359  Biso   1.000  C
  H176     1.0000 0.23990  0.60390  0.76970  Biso   1.000  H
  H177     1.0000 0.28090  0.57290  0.74870  Biso   1.000  H
  H178     1.0000 0.29020  0.63580  0.75600  Biso   1.000  H
  C96      1.0000 0.29340  0.44560  0.90085  Biso   1.000  C
  C97      1.0000 0.34020  0.48040  0.90760  Biso   1.000  C
  H179     1.0000 0.37320  0.45830  0.90290  Biso   1.000  H
  C98      1.0000 0.34810  0.49940  0.93882  Biso   1.000  C
  C99      1.0000 0.24640  0.47280  0.91040  Biso   1.000  C
  H180     1.0000 0.24510  0.50920  0.90200  Biso   1.000  H
  H181     1.0000 0.24730  0.47570  0.93130  Biso   1.000  H
  H182     1.0000 0.21410  0.45220  0.90460  Biso   1.000  H
  C100     1.0000 0.30170  0.39240  0.91300  Biso   1.000  C
  H183     1.0000 0.33620  0.37740  0.90600  Biso   1.000  H
  H184     1.0000 0.27180  0.36840  0.90730  Biso   1.000  H
  H185     1.0000 0.30290  0.39520  0.93390  Biso   1.000  H
  C101     1.0000 0.46240  0.41670  0.80564  Biso   1.000  C
  C102     1.0000 0.50450  0.37350  0.80885  Biso   1.000  C
  H186     1.0000 0.49580  0.35080  0.82600  Biso   1.000  H
  C103     1.0000 0.56320  0.39850  0.81239  Biso   1.000  C
  C104     1.0000 0.47300  0.45370  0.77739  Biso   1.000  C
  H187     1.0000 0.44480  0.48160  0.77600  Biso   1.000  H
  H188     1.0000 0.47190  0.43060  0.76030  Biso   1.000  H
  H189     1.0000 0.50870  0.47110  0.77880  Biso   1.000  H
  C105     1.0000 0.45930  0.45590  0.83159  Biso   1.000  C
  H190     1.0000 0.43090  0.48310  0.82820  Biso   1.000  H
  H191     1.0000 0.49430  0.47420  0.83410  Biso   1.000  H
  H192     1.0000 0.45060  0.43520  0.84890  Biso   1.000  H
  C106     1.0000 0.36630  0.22220  0.73210  Biso   1.000  C
  C107     1.0000 0.41860  0.23840  0.71901  Biso   1.000  C
  H193     1.0000 0.41000  0.27010  0.70640  Biso   1.000  H
  C108     1.0000 0.05990  0.69420  0.55077  Biso   1.000  C
  C109     1.0000 0.37630  0.17290  0.75177  Biso   1.000  C
  H194     1.0000 0.34180  0.16140  0.76030  Biso   1.000  H
  H195     1.0000 0.40190  0.18300  0.76690  Biso   1.000  H
  H196     1.0000 0.39150  0.14290  0.74060  Biso   1.000  H
  C110     1.0000 0.31980  0.21360  0.71261  Biso   1.000  C
  H197     1.0000 0.28810  0.20180  0.72370  Biso   1.000  H
  H198     1.0000 0.32910  0.18570  0.69850  Biso   1.000  H
  H199     1.0000 0.31130  0.24770  0.70270  Biso   1.000  H
  C111     1.0000 0.35130  0.21240  0.85231  Biso   1.000  C
  C112     1.0000 0.34930  0.20450  0.88460  Biso   1.000  C
  H200     1.0000 0.36800  0.23570  0.89410  Biso   1.000  H
  C113     1.0000 0.37840  0.15090  0.89297  Biso   1.000  C
  C114     1.0000 0.33410  0.16300  0.83645  Biso   1.000  C
  H201     1.0000 0.33640  0.16980  0.81590  Biso   1.000  H
  H202     1.0000 0.29650  0.15400  0.84150  Biso   1.000  H
  H203     1.0000 0.35790  0.13250  0.84150  Biso   1.000  H
  C115     1.0000 0.40720  0.23040  0.84110  Biso   1.000  C
  H204     1.0000 0.40570  0.23420  0.82030  Biso   1.000  H
  H205     1.0000 0.43460  0.20310  0.84620  Biso   1.000  H
  H206     1.0000 0.41710  0.26540  0.84970  Biso   1.000  H
  C116     1.0000 0.12810  0.31040  0.88909  Biso   1.000  C
  C117     1.0000 0.12190  0.24860  0.89819  Biso   1.000  C
  H207     1.0000 0.11030  0.22680  0.88120  Biso   1.000  H
  C118     1.0000 0.07910  0.24180  0.92253  Biso   1.000  C
  C119     1.0000 0.14360  0.34820  0.91167  Biso   1.000  C
  H208     1.0000 0.14570  0.38510  0.90380  Biso   1.000  H
  H209     1.0000 0.17920  0.33790  0.91940  Biso   1.000  H
  H210     1.0000 0.11640  0.34720  0.92700  Biso   1.000  H
  C120     1.0000 0.06940  0.32570  0.87840  Biso   1.000  C
  H211     1.0000 0.05820  0.30040  0.86330  Biso   1.000  H
  H212     1.0000 0.06960  0.36280  0.87080  Biso   1.000  H
  H213     1.0000 0.04380  0.32340  0.89440  Biso   1.000  H
  O52      1.0000 0.08700  0.56410  0.56287  Biso   1.000  O
  O53      1.0000 0.16290  0.58400  0.58009  Biso   1.000  O
  C121     1.0000 0.13250  0.56050  0.55950  Biso   1.000  C
  C122     1.0000 0.14950  0.53460  0.53500  Biso   1.000  C
  H214     1.0000 0.18930  0.53390  0.53450  Biso   1.000  H
  H215     1.0000 0.13580  0.55420  0.51830  Biso   1.000  H
  H216     1.0000 0.13550  0.49730  0.53490  Biso   1.000  H
  La9      1.0000 0.06556  0.97269  0.79350  Biso   1.000  La
  La10     1.0000 0.50690  0.18180  0.78732  Biso   1.000  La
  La11     1.0000 0.78520  0.35630  0.75495  Biso   1.000  La
  La12     1.0000 0.16620  0.23160  0.99624  Biso   1.000  La
  La13     1.0000 0.13630  0.93940  0.73880  Biso   1.000  La
  La14     1.0000 0.81270  0.27670  0.72320  Biso   1.000  La
  O54      1.0000 0.21220  0.28680  0.04620  Biso   1.000  O
  Pt13     1.0000 0.99995  0.25610  0.45525  Biso   1.000  Pt
  Pt14     1.0000 0.72458  0.33512  0.48281  Biso   1.000  Pt
  Pt15     1.0000 0.93245  0.45333  0.56356  Biso   1.000  Pt
  Pt16     1.0000 0.02245  0.18418  0.59808  Biso   1.000  Pt
  Pt17     1.0000 0.81389  0.07183  0.51961  Biso   1.000  Pt
  Pt18     1.0000 0.75333  0.26155  0.62614  Biso   1.000  Pt
  Ag17     1.0000 0.84056  0.21640  0.47989  Biso   1.000  Ag
  Ag18     1.0000 0.88946  0.34916  0.50117  Biso   1.000  Ag
  Ag19     1.0000 0.00008  0.31057  0.53892  Biso   1.000  Ag
  Ag20     1.0000 0.94044  0.17300  0.52422  Biso   1.000  Ag
  Ag21     1.0000 0.76375  0.22873  0.54258  Biso   1.000  Ag
  Ag22     1.0000 0.78830  0.37396  0.56269  Biso   1.000  Ag
  Ag23     1.0000 0.90611  0.29838  0.59583  Biso   1.000  Ag
  Ag24     1.0000 0.85955  0.14760  0.59580  Biso   1.000  Ag
  La15     1.0000 0.11830  0.41892  0.36279  Biso   1.000  La
  S25      1.0000 0.93730  0.19619  0.47104  Biso   1.000  S
  S26      1.0000 0.98444  0.32466  0.48659  Biso   1.000  S
  S27      1.0000 0.80974  0.31193  0.47288  Biso   1.000  S
  S28      1.0000 0.72747  0.31985  0.53075  Biso   1.000  S
  S29      1.0000 0.86311  0.42083  0.53686  Biso   1.000  S
  S30      1.0000 0.96802  0.37316  0.57720  Biso   1.000  S
  S31      1.0000 0.01900  0.21379  0.55235  Biso   1.000  S
  S32      1.0000 0.93784  0.20594  0.61159  Biso   1.000  S
  S33      1.0000 0.88074  0.10252  0.54843  Biso   1.000  S
  S34      1.0000 0.78100  0.15356  0.50616  Biso   1.000  S
  S35      1.0000 0.76927  0.19523  0.59347  Biso   1.000  S
  S36      1.0000 0.80995  0.32565  0.60924  Biso   1.000  S
  O55      1.0000 0.03740  0.10740  0.39704  Biso   1.000  O
  O56      1.0000 0.95870  0.08850  0.38566  Biso   1.000  O
  O57      1.0000 0.10500  0.38273  0.41129  Biso   1.000  O
  O58      1.0000 0.12550  0.43540  0.45102  Biso   1.000  O
  O59      1.0000 0.72650  0.36910  0.38580  Biso   1.000  O
  O60      1.0000 0.77100  0.29840  0.37416  Biso   1.000  O
  O61      1.0000 0.54540  0.35910  0.50234  Biso   1.000  O
  O62      1.0000 0.54980  0.40180  0.54287  Biso   1.000  O
  O63      1.0000 0.87260  0.61425  0.52258  Biso   1.000  O
  O64      1.0000 0.78910  0.60110  0.52894  Biso   1.000  O
  O65      1.0000 0.01967  0.42556  0.37014  Biso   1.000  O
  O66      1.0000 0.95466  0.36882  0.35647  Biso   1.000  O
  O67      1.0000 0.19848  0.13238  0.56696  Biso   1.000  O
  O68      1.0000 0.21085  0.21000  0.54483  Biso   1.000  O
  O69      1.0000 0.04780  0.17170  0.69518  Biso   1.000  O
  O70      1.0000 0.96780  0.13610  0.70652  Biso   1.000  O
  O71      1.0000 0.90860  0.90910  0.54315  Biso   1.000  O
  O72      1.0000 0.90790  0.92500  0.59000  Biso   1.000  O
  O73      1.0000 0.16996  0.48700  0.29193  Biso   1.000  O
  O74      1.0000 0.18569  0.41873  0.32258  Biso   1.000  O
  O75      1.0000 0.60958  0.14590  0.64690  Biso   1.000  O
  O76      1.0000 0.65640  0.06620  0.64353  Biso   1.000  O
  O77      1.0000 0.73380  0.39380  0.69727  Biso   1.000  O
  O78      1.0000 0.74430  0.46230  0.67194  Biso   1.000  O
  N25      1.0000 0.01040  0.20080  0.42287  Biso   1.000  N
  H217     1.0000 0.01390  0.22020  0.40620  Biso   1.000  H
  H218     1.0000 0.04310  0.18370  0.42600  Biso   1.000  H
  N26      1.0000 0.06010  0.30390  0.43948  Biso   1.000  N
  H219     1.0000 0.09110  0.28310  0.43770  Biso   1.000  H
  H220     1.0000 0.05030  0.31510  0.42140  Biso   1.000  H
  N27      1.0000 0.71180  0.34230  0.43983  Biso   1.000  N
  H221     1.0000 0.67790  0.32930  0.43520  Biso   1.000  H
  H222     1.0000 0.71340  0.37830  0.43460  Biso   1.000  H
  N28      1.0000 0.65300  0.36860  0.49114  Biso   1.000  N
  H223     1.0000 0.65320  0.40300  0.48340  Biso   1.000  H
  H224     1.0000 0.62710  0.34900  0.48140  Biso   1.000  H
  N29      1.0000 0.90070  0.52680  0.55299  Biso   1.000  N
  H225     1.0000 0.90110  0.54860  0.56890  Biso   1.000  H
  H226     1.0000 0.92290  0.54270  0.53950  Biso   1.000  H
  N30      1.0000 0.99590  0.48720  0.58572  Biso   1.000  N
  H227     1.0000 0.00790  0.51760  0.57620  Biso   1.000  H
  H228     1.0000 0.98400  0.49780  0.60350  Biso   1.000  H
  N31      1.0000 0.10290  0.16810  0.58956  Biso   1.000  N
  H229     1.0000 0.12310  0.17740  0.60530  Biso   1.000  H
  H230     1.0000 0.10680  0.13130  0.58680  Biso   1.000  H
  N32      1.0000 0.03240  0.15640  0.63826  Biso   1.000  N
  H231     1.0000 0.04340  0.12070  0.63740  Biso   1.000  H
  H232     1.0000 0.05980  0.17590  0.64680  Biso   1.000  H
  N33      1.0000 0.83730  0.99590  0.53201  Biso   1.000  N
  H233     1.0000 0.80680  0.97540  0.53550  Biso   1.000  H
  H234     1.0000 0.85590  0.97970  0.51720  Biso   1.000  H
  N34      1.0000 0.75930  0.04210  0.49076  Biso   1.000  N
  H235     1.0000 0.77530  0.01350  0.48130  Biso   1.000  H
  H236     1.0000 0.73010  0.02830  0.50070  Biso   1.000  H
  N35      1.0000 0.70280  0.20704  0.64374  Biso   1.000  N
  H237     1.0000 0.70880  0.20750  0.66310  Biso   1.000  H
  H238     1.0000 0.66790  0.21930  0.64090  Biso   1.000  H
  N36      1.0000 0.73610  0.31930  0.65480  Biso   1.000  N
  H239     1.0000 0.69950  0.31710  0.65870  Biso   1.000  H
  H240     1.0000 0.75420  0.31060  0.67140  Biso   1.000  H
  C123     1.0000 0.95500  0.13680  0.44875  Biso   1.000  C
  C124     1.0000 0.97030  0.15910  0.41790  Biso   1.000  C
  H241     1.0000 0.93760  0.17450  0.40820  Biso   1.000  H
  C125     1.0000 0.99510  0.11450  0.40029  Biso   1.000  C
  C126     1.0000 0.99470  0.10120  0.46133  Biso   1.000  C
  H242     1.0000 0.98180  0.08910  0.48010  Biso   1.000  H
  H243     1.0000 0.02920  0.12060  0.46350  Biso   1.000  H
  H244     1.0000 0.00010  0.06950  0.44890  Biso   1.000  H
  C127     1.0000 0.89580  0.10490  0.44420  Biso   1.000  C
  H245     1.0000 0.86940  0.12990  0.43560  Biso   1.000  H
  H246     1.0000 0.88210  0.09250  0.46280  Biso   1.000  H
  H247     1.0000 0.90090  0.07350  0.43160  Biso   1.000  H
  C128     1.0000 0.02100  0.38010  0.46882  Biso   1.000  C
  C129     1.0000 0.07370  0.35360  0.45709  Biso   1.000  C
  H248     1.0000 0.09920  0.34430  0.47300  Biso   1.000  H
  C130     1.0000 0.10130  0.38940  0.43505  Biso   1.000  C
  C131     1.0000 0.98480  0.40280  0.44531  Biso   1.000  C
  H249     1.0000 0.97950  0.37510  0.43050  Biso   1.000  H
  H250     1.0000 0.00200  0.43490  0.43690  Biso   1.000  H
  H251     1.0000 0.94950  0.41300  0.45340  Biso   1.000  H
  C132     1.0000 0.03240  0.42060  0.49259  Biso   1.000  C
  H252     1.0000 0.05590  0.40370  0.50700  Biso   1.000  H
  H253     1.0000 0.99810  0.43160  0.50150  Biso   1.000  H
  H254     1.0000 0.05060  0.45260  0.48460  Biso   1.000  H
  C133     1.0000 0.81170  0.32920  0.43430  Biso   1.000  C
  C134     1.0000 0.75410  0.31090  0.42443  Biso   1.000  C
  H255     1.0000 0.74870  0.27080  0.42620  Biso   1.000  H
  C135     1.0000 0.75020  0.33200  0.39081  Biso   1.000  C
  C136     1.0000 0.82520  0.39210  0.43313  Biso   1.000  C
  H256     1.0000 0.86290  0.39800  0.43910  Biso   1.000  H
  H257     1.0000 0.80070  0.41180  0.44600  Biso   1.000  H
  H258     1.0000 0.82030  0.40540  0.41360  Biso   1.000  H
  C137     1.0000 0.86010  0.29760  0.42121  Biso   1.000  C
  H259     1.0000 0.89430  0.31230  0.42870  Biso   1.000  H
  H260     1.0000 0.85950  0.30150  0.40040  Biso   1.000  H
  H261     1.0000 0.85710  0.25910  0.42630  Biso   1.000  H
  C138     1.0000 0.65610  0.32710  0.53693  Biso   1.000  C
  C139     1.0000 0.63480  0.37370  0.52068  Biso   1.000  C
  H262     1.0000 0.65230  0.40700  0.52870  Biso   1.000  H
  C140     1.0000 0.57210  0.38390  0.52089  Biso   1.000  C
  C141     1.0000 0.62610  0.27660  0.52790  Biso   1.000  C
  H263     1.0000 0.63880  0.24560  0.53930  Biso   1.000  H
  H264     1.0000 0.63280  0.26950  0.50760  Biso   1.000  H
  H265     1.0000 0.58700  0.28170  0.53100  Biso   1.000  H
  C142     1.0000 0.84340  0.48210  0.51894  Biso   1.000  C
  C143     1.0000 0.84790  0.52540  0.54230  Biso   1.000  C
  H266     1.0000 0.82220  0.51630  0.55810  Biso   1.000  H
  C144     1.0000 0.83590  0.58420  0.53160  Biso   1.000  C
  C145     1.0000 0.88010  0.49520  0.49502  Biso   1.000  C
  H267     1.0000 0.87820  0.46630  0.48060  Biso   1.000  H
  H268     1.0000 0.91750  0.49820  0.50210  Biso   1.000  H
  H269     1.0000 0.86920  0.52980  0.48640  Biso   1.000  H
  C146     1.0000 0.78300  0.47030  0.50754  Biso   1.000  C
  H270     1.0000 0.75940  0.46130  0.52370  Biso   1.000  H
  H271     1.0000 0.78390  0.43970  0.49420  Biso   1.000  H
  H272     1.0000 0.76900  0.50260  0.49780  Biso   1.000  H
  C147     1.0000 0.02370  0.39300  0.60130  Biso   1.000  C
  C148     1.0000 0.04260  0.44770  0.58909  Biso   1.000  C
  H273     1.0000 0.05880  0.44110  0.56980  Biso   1.000  H
  C149     1.0000 0.97730  0.41510  0.35752  Biso   1.000  C
  C150     1.0000 0.00190  0.40190  0.63180  Biso   1.000  C
  H274     1.0000 0.97340  0.42970  0.63150  Biso   1.000  H
  H275     1.0000 0.03160  0.41400  0.64420  Biso   1.000  H
  H276     1.0000 0.98690  0.36780  0.63910  Biso   1.000  H
  C151     1.0000 0.06610  0.35030  0.59984  Biso   1.000  C
  H277     1.0000 0.05180  0.31650  0.60800  Biso   1.000  H
  H278     1.0000 0.09800  0.36190  0.61070  Biso   1.000  H
  H279     1.0000 0.07640  0.34420  0.57990  Biso   1.000  H
  C152     1.0000 0.08500  0.18720  0.53880  Biso   1.000  C
  C153     1.0000 0.12490  0.19640  0.56480  Biso   1.000  C
  H280     1.0000 0.12670  0.23610  0.56910  Biso   1.000  H
  C154     1.0000 0.18390  0.17490  0.55862  Biso   1.000  C
  C155     1.0000 0.07870  0.13140  0.53244  Biso   1.000  C
  H281     1.0000 0.06880  0.11160  0.54990  Biso   1.000  H
  H282     1.0000 0.11300  0.11690  0.52490  Biso   1.000  H
  H283     1.0000 0.05000  0.12680  0.51810  Biso   1.000  H
  C156     1.0000 0.10080  0.22210  0.51359  Biso   1.000  C
  H284     1.0000 0.10390  0.26010  0.51970  Biso   1.000  H
  H285     1.0000 0.07290  0.21910  0.49870  Biso   1.000  H
  H286     1.0000 0.13580  0.20980  0.50600  Biso   1.000  H
  C157     1.0000 0.94560  0.20660  0.65085  Biso   1.000  C
  C158     1.0000 0.98040  0.15980  0.65760  Biso   1.000  C
  H287     1.0000 0.95830  0.12680  0.65290  Biso   1.000  H
  C159     1.0000 0.99940  0.15190  0.68882  Biso   1.000  C
  C160     1.0000 0.97280  0.25360  0.66040  Biso   1.000  C
  H288     1.0000 0.00920  0.25490  0.65200  Biso   1.000  H
  H289     1.0000 0.97570  0.25270  0.68130  Biso   1.000  H
  H290     1.0000 0.95220  0.28590  0.65460  Biso   1.000  H
  C161     1.0000 0.89240  0.19830  0.66300  Biso   1.000  C
  H291     1.0000 0.87740  0.16380  0.65600  Biso   1.000  H
  H292     1.0000 0.86840  0.22820  0.65730  Biso   1.000  H
  H293     1.0000 0.89520  0.19710  0.68390  Biso   1.000  H
  C162     1.0000 0.91670  0.03760  0.55564  Biso   1.000  C
  C163     1.0000 0.87350  0.99550  0.55885  Biso   1.000  C
  H294     1.0000 0.85080  0.00420  0.57600  Biso   1.000  H
  C164     1.0000 0.89850  0.93680  0.56239  Biso   1.000  C
  C165     1.0000 0.95370  0.02700  0.52739  Biso   1.000  C
  H295     1.0000 0.98160  0.05520  0.52600  Biso   1.000  H
  H296     1.0000 0.93060  0.02810  0.51030  Biso   1.000  H
  H297     1.0000 0.97110  0.99130  0.52880  Biso   1.000  H
  C166     1.0000 0.95590  0.04070  0.58159  Biso   1.000  C
  H298     1.0000 0.98310  0.06910  0.57820  Biso   1.000  H
  H299     1.0000 0.97420  0.00570  0.58410  Biso   1.000  H
  H300     1.0000 0.93520  0.04940  0.59890  Biso   1.000  H
  C167     1.0000 0.72220  0.13370  0.48210  Biso   1.000  C
  C168     1.0000 0.73840  0.08140  0.46901  Biso   1.000  C
  H301     1.0000 0.77010  0.09000  0.45640  Biso   1.000  H
  C169     1.0000 0.19420  0.44010  0.30077  Biso   1.000  C
  C170     1.0000 0.67290  0.12370  0.50177  Biso   1.000  C
  H302     1.0000 0.66140  0.15820  0.51030  Biso   1.000  H
  H303     1.0000 0.68300  0.09810  0.51690  Biso   1.000  H
  H304     1.0000 0.64290  0.10850  0.49060  Biso   1.000  H
  C171     1.0000 0.71360  0.18020  0.46261  Biso   1.000  C
  H305     1.0000 0.70180  0.21190  0.47370  Biso   1.000  H
  H306     1.0000 0.68570  0.17090  0.44850  Biso   1.000  H
  H307     1.0000 0.74770  0.18870  0.45270  Biso   1.000  H
  C172     1.0000 0.71240  0.14870  0.60231  Biso   1.000  C
  C173     1.0000 0.70450  0.15070  0.63460  Biso   1.000  C
  H308     1.0000 0.73570  0.13200  0.64410  Biso   1.000  H
  C174     1.0000 0.65090  0.12160  0.64297  Biso   1.000  C
  C175     1.0000 0.66300  0.16590  0.58645  Biso   1.000  C
  H309     1.0000 0.66980  0.16360  0.56590  Biso   1.000  H
  H310     1.0000 0.65400  0.20350  0.59150  Biso   1.000  H
  H311     1.0000 0.63250  0.14210  0.59150  Biso   1.000  H
  C176     1.0000 0.73040  0.09280  0.59110  Biso   1.000  C
  H312     1.0000 0.73420  0.09430  0.57030  Biso   1.000  H
  H313     1.0000 0.70310  0.06540  0.59620  Biso   1.000  H
  H314     1.0000 0.76540  0.08290  0.59970  Biso   1.000  H
  C177     1.0000 0.81040  0.37190  0.63909  Biso   1.000  C
  C178     1.0000 0.74860  0.37810  0.64819  Biso   1.000  C
  H315     1.0000 0.72680  0.38970  0.63120  Biso   1.000  H
  C179     1.0000 0.74180  0.42090  0.67253  Biso   1.000  C
  C180     1.0000 0.84820  0.35640  0.66167  Biso   1.000  C
  H316     1.0000 0.88510  0.35430  0.65380  Biso   1.000  H
  H317     1.0000 0.83790  0.32080  0.66940  Biso   1.000  H
  H318     1.0000 0.84720  0.38360  0.67700  Biso   1.000  H
  C181     1.0000 0.82570  0.43060  0.62840  Biso   1.000  C
  H319     1.0000 0.80040  0.44180  0.61330  Biso   1.000  H
  H320     1.0000 0.86280  0.43040  0.62080  Biso   1.000  H
  H321     1.0000 0.82340  0.45620  0.64440  Biso   1.000  H
  O79      1.0000 0.06410  0.41300  0.31287  Biso   1.000  O
  O80      1.0000 0.08400  0.33710  0.33009  Biso   1.000  O
  C182     1.0000 0.06050  0.36750  0.30950  Biso   1.000  C
  C183     1.0000 0.03460  0.35050  0.28500  Biso   1.000  C
  H322     1.0000 0.03390  0.31070  0.28450  Biso   1.000  H
  H323     1.0000 0.05420  0.36420  0.26830  Biso   1.000  H
  H324     1.0000 0.99730  0.36450  0.28490  Biso   1.000  H
  La16     1.0000 0.47269  0.43444  0.54350  Biso   1.000  La
  La17     1.0000 0.68180  0.99310  0.53732  Biso   1.000  La
  La18     1.0000 0.85630  0.71480  0.50495  Biso   1.000  La
  La19     1.0000 0.73160  0.33380  0.74624  Biso   1.000  La
  La20     1.0000 0.43940  0.36370  0.48880  Biso   1.000  La
  La21     1.0000 0.77670  0.68730  0.47320  Biso   1.000  La
  O81      1.0000 0.78680  0.28780  0.79620  Biso   1.000  O
  Pt19     1.0000 0.00005  0.74390  0.95525  Biso   1.000  Pt
  Pt20     1.0000 0.27542  0.66488  0.98281  Biso   1.000  Pt
  Pt21     1.0000 0.06755  0.54667  0.06356  Biso   1.000  Pt
  Pt22     1.0000 0.97755  0.81582  0.09808  Biso   1.000  Pt
  Pt23     1.0000 0.18611  0.92817  0.01961  Biso   1.000  Pt
  Pt24     1.0000 0.24667  0.73845  0.12614  Biso   1.000  Pt
  Ag25     1.0000 0.15944  0.78360  0.97989  Biso   1.000  Ag
  Ag26     1.0000 0.11054  0.65084  0.00117  Biso   1.000  Ag
  Ag27     1.0000 0.99992  0.68943  0.03892  Biso   1.000  Ag
  Ag28     1.0000 0.05956  0.82700  0.02422  Biso   1.000  Ag
  Ag29     1.0000 0.23625  0.77127  0.04258  Biso   1.000  Ag
  Ag30     1.0000 0.21170  0.62604  0.06269  Biso   1.000  Ag
  Ag31     1.0000 0.09389  0.70162  0.09583  Biso   1.000  Ag
  Ag32     1.0000 0.14045  0.85240  0.09580  Biso   1.000  Ag
  La22     1.0000 0.88170  0.58108  0.86279  Biso   1.000  La
  S37      1.0000 0.06270  0.80381  0.97104  Biso   1.000  S
  S38      1.0000 0.01556  0.67534  0.98659  Biso   1.000  S
  S39      1.0000 0.19026  0.68807  0.97288  Biso   1.000  S
  S40      1.0000 0.27253  0.68015  0.03075  Biso   1.000  S
  S41      1.0000 0.13689  0.57917  0.03686  Biso   1.000  S
  S42      1.0000 0.03198  0.62684  0.07720  Biso   1.000  S
  S43      1.0000 0.98100  0.78621  0.05235  Biso   1.000  S
  S44      1.0000 0.06216  0.79406  0.11159  Biso   1.000  S
  S45      1.0000 0.11926  0.89748  0.04843  Biso   1.000  S
  S46      1.0000 0.21900  0.84644  0.00616  Biso   1.000  S
  S47      1.0000 0.23073  0.80477  0.09347  Biso   1.000  S
  S48      1.0000 0.19005  0.67435  0.10924  Biso   1.000  S
  O82      1.0000 0.96260  0.89260  0.89704  Biso   1.000  O
  O83      1.0000 0.04130  0.91150  0.88566  Biso   1.000  O
  O84      1.0000 0.89500  0.61727  0.91129  Biso   1.000  O
  O85      1.0000 0.87450  0.56460  0.95102  Biso   1.000  O
  O86      1.0000 0.27350  0.63090  0.88580  Biso   1.000  O
  O87      1.0000 0.22900  0.70160  0.87416  Biso   1.000  O
  O88      1.0000 0.45460  0.64090  0.00234  Biso   1.000  O
  O89      1.0000 0.45020  0.59820  0.04287  Biso   1.000  O
  O90      1.0000 0.12740  0.38575  0.02258  Biso   1.000  O
  O91      1.0000 0.21090  0.39890  0.02894  Biso   1.000  O
  O92      1.0000 0.98033  0.57444  0.87014  Biso   1.000  O
  O93      1.0000 0.04534  0.63118  0.85647  Biso   1.000  O
  O94      1.0000 0.80152  0.86762  0.06696  Biso   1.000  O
  O95      1.0000 0.78915  0.79000  0.04483  Biso   1.000  O
  O96      1.0000 0.95220  0.82830  0.19518  Biso   1.000  O
  O97      1.0000 0.03220  0.86390  0.20652  Biso   1.000  O
  O98      1.0000 0.09140  0.09090  0.04315  Biso   1.000  O
  O99      1.0000 0.09210  0.07500  0.09000  Biso   1.000  O
  O100     1.0000 0.83004  0.51300  0.79193  Biso   1.000  O
  O101     1.0000 0.81431  0.58127  0.82258  Biso   1.000  O
  O102     1.0000 0.39042  0.85410  0.14690  Biso   1.000  O
  O103     1.0000 0.34360  0.93380  0.14353  Biso   1.000  O
  O104     1.0000 0.26620  0.60620  0.19727  Biso   1.000  O
  O105     1.0000 0.25570  0.53770  0.17194  Biso   1.000  O
  N37      1.0000 0.98960  0.79920  0.92287  Biso   1.000  N
  H325     1.0000 0.98610  0.77980  0.90620  Biso   1.000  H
  H326     1.0000 0.95690  0.81630  0.92600  Biso   1.000  H
  N38      1.0000 0.93990  0.69610  0.93948  Biso   1.000  N
  H327     1.0000 0.90890  0.71690  0.93770  Biso   1.000  H
  H328     1.0000 0.94970  0.68490  0.92140  Biso   1.000  H
  N39      1.0000 0.28820  0.65770  0.93983  Biso   1.000  N
  H329     1.0000 0.32210  0.67070  0.93520  Biso   1.000  H
  H330     1.0000 0.28660  0.62170  0.93460  Biso   1.000  H
  N40      1.0000 0.34700  0.63140  0.99114  Biso   1.000  N
  H331     1.0000 0.34680  0.59700  0.98340  Biso   1.000  H
  H332     1.0000 0.37290  0.65100  0.98140  Biso   1.000  H
  N41      1.0000 0.09930  0.47320  0.05299  Biso   1.000  N
  H333     1.0000 0.09890  0.45140  0.06890  Biso   1.000  H
  H334     1.0000 0.07710  0.45730  0.03950  Biso   1.000  H
  N42      1.0000 0.00410  0.51280  0.08572  Biso   1.000  N
  H335     1.0000 0.99210  0.48240  0.07620  Biso   1.000  H
  H336     1.0000 0.01600  0.50220  0.10350  Biso   1.000  H
  N43      1.0000 0.89710  0.83190  0.08956  Biso   1.000  N
  H337     1.0000 0.87690  0.82260  0.10530  Biso   1.000  H
  H338     1.0000 0.89320  0.86870  0.08680  Biso   1.000  H
  N44      1.0000 0.96760  0.84360  0.13826  Biso   1.000  N
  H339     1.0000 0.95660  0.87930  0.13740  Biso   1.000  H
  H340     1.0000 0.94020  0.82410  0.14680  Biso   1.000  H
  N45      1.0000 0.16270  0.00410  0.03201  Biso   1.000  N
  H341     1.0000 0.19320  0.02460  0.03550  Biso   1.000  H
  H342     1.0000 0.14410  0.02030  0.01720  Biso   1.000  H
  N46      1.0000 0.24070  0.95790  0.99076  Biso   1.000  N
  H343     1.0000 0.22470  0.98650  0.98130  Biso   1.000  H
  H344     1.0000 0.26990  0.97170  0.00070  Biso   1.000  H
  N47      1.0000 0.29720  0.79296  0.14374  Biso   1.000  N
  H345     1.0000 0.29120  0.79250  0.16310  Biso   1.000  H
  H346     1.0000 0.33210  0.78070  0.14090  Biso   1.000  H
  N48      1.0000 0.26390  0.68070  0.15480  Biso   1.000  N
  H347     1.0000 0.30050  0.68290  0.15870  Biso   1.000  H
  H348     1.0000 0.24580  0.68940  0.17140  Biso   1.000  H
  C184     1.0000 0.04500  0.86320  0.94875  Biso   1.000  C
  C185     1.0000 0.02970  0.84090  0.91790  Biso   1.000  C
  H349     1.0000 0.06240  0.82550  0.90820  Biso   1.000  H
  C186     1.0000 0.00490  0.88550  0.90029  Biso   1.000  C
  C187     1.0000 0.00530  0.89880  0.96133  Biso   1.000  C
  H350     1.0000 0.01820  0.91090  0.98010  Biso   1.000  H
  H351     1.0000 0.97080  0.87940  0.96350  Biso   1.000  H
  H352     1.0000 0.99990  0.93050  0.94890  Biso   1.000  H
  C188     1.0000 0.10420  0.89510  0.94420  Biso   1.000  C
  H353     1.0000 0.13060  0.87010  0.93560  Biso   1.000  H
  H354     1.0000 0.11790  0.90750  0.96280  Biso   1.000  H
  H355     1.0000 0.09910  0.92650  0.93160  Biso   1.000  H
  C189     1.0000 0.97900  0.61990  0.96882  Biso   1.000  C
  C190     1.0000 0.92630  0.64640  0.95709  Biso   1.000  C
  H356     1.0000 0.90080  0.65570  0.97300  Biso   1.000  H
  C191     1.0000 0.89870  0.61060  0.93505  Biso   1.000  C
  C192     1.0000 0.01520  0.59720  0.94531  Biso   1.000  C
  H357     1.0000 0.02050  0.62490  0.93050  Biso   1.000  H
  H358     1.0000 0.99800  0.56510  0.93690  Biso   1.000  H
  H359     1.0000 0.05050  0.58700  0.95340  Biso   1.000  H
  C193     1.0000 0.96760  0.57940  0.99259  Biso   1.000  C
  H360     1.0000 0.94410  0.59630  0.00700  Biso   1.000  H
  H361     1.0000 0.00190  0.56840  0.00150  Biso   1.000  H
  H362     1.0000 0.94940  0.54740  0.98460  Biso   1.000  H
  C194     1.0000 0.18830  0.67080  0.93430  Biso   1.000  C
  C195     1.0000 0.24590  0.68910  0.92443  Biso   1.000  C
  H363     1.0000 0.25130  0.72920  0.92620  Biso   1.000  H
  C196     1.0000 0.24980  0.66800  0.89081  Biso   1.000  C
  C197     1.0000 0.17480  0.60790  0.93313  Biso   1.000  C
  H364     1.0000 0.13710  0.60200  0.93910  Biso   1.000  H
  H365     1.0000 0.19930  0.58820  0.94600  Biso   1.000  H
  H366     1.0000 0.17970  0.59460  0.91360  Biso   1.000  H
  C198     1.0000 0.13990  0.70240  0.92121  Biso   1.000  C
  H367     1.0000 0.10570  0.68770  0.92870  Biso   1.000  H
  H368     1.0000 0.14050  0.69850  0.90040  Biso   1.000  H
  H369     1.0000 0.14290  0.74090  0.92630  Biso   1.000  H
  C199     1.0000 0.34390  0.67290  0.03693  Biso   1.000  C
  C200     1.0000 0.36520  0.62630  0.02068  Biso   1.000  C
  H370     1.0000 0.34770  0.59300  0.02870  Biso   1.000  H
  C201     1.0000 0.42790  0.61610  0.02089  Biso   1.000  C
  C202     1.0000 0.37390  0.72340  0.02790  Biso   1.000  C
  H371     1.0000 0.36120  0.75440  0.03930  Biso   1.000  H
  H372     1.0000 0.36720  0.73050  0.00760  Biso   1.000  H
  H373     1.0000 0.41300  0.71830  0.03100  Biso   1.000  H
  C203     1.0000 0.15660  0.51790  0.01894  Biso   1.000  C
  C204     1.0000 0.15210  0.47460  0.04230  Biso   1.000  C
  H374     1.0000 0.17780  0.48370  0.05810  Biso   1.000  H
  C205     1.0000 0.16410  0.41580  0.03160  Biso   1.000  C
  C206     1.0000 0.11990  0.50480  0.99502  Biso   1.000  C
  H375     1.0000 0.12180  0.53370  0.98060  Biso   1.000  H
  H376     1.0000 0.08250  0.50180  0.00210  Biso   1.000  H
  H377     1.0000 0.13080  0.47020  0.98640  Biso   1.000  H
  C207     1.0000 0.21700  0.52970  0.00754  Biso   1.000  C
  H378     1.0000 0.24060  0.53870  0.02370  Biso   1.000  H
  H379     1.0000 0.21610  0.56030  0.99420  Biso   1.000  H
  H380     1.0000 0.23100  0.49740  0.99780  Biso   1.000  H
  C208     1.0000 0.97630  0.60700  0.10130  Biso   1.000  C
  C209     1.0000 0.95740  0.55230  0.08909  Biso   1.000  C
  H381     1.0000 0.94120  0.55890  0.06980  Biso   1.000  H
  C210     1.0000 0.02270  0.58490  0.85752  Biso   1.000  C
  C211     1.0000 0.99810  0.59810  0.13180  Biso   1.000  C
  H382     1.0000 0.02660  0.57030  0.13150  Biso   1.000  H
  H383     1.0000 0.96840  0.58600  0.14420  Biso   1.000  H
  H384     1.0000 0.01310  0.63220  0.13910  Biso   1.000  H
  C212     1.0000 0.93390  0.64970  0.09984  Biso   1.000  C
  H385     1.0000 0.94820  0.68350  0.10800  Biso   1.000  H
  H386     1.0000 0.90200  0.63810  0.11070  Biso   1.000  H
  H387     1.0000 0.92360  0.65580  0.07990  Biso   1.000  H
  C213     1.0000 0.91500  0.81280  0.03880  Biso   1.000  C
  C214     1.0000 0.87510  0.80360  0.06480  Biso   1.000  C
  H388     1.0000 0.87330  0.76390  0.06910  Biso   1.000  H
  C215     1.0000 0.81610  0.82510  0.05862  Biso   1.000  C
  C216     1.0000 0.92130  0.86860  0.03244  Biso   1.000  C
  H389     1.0000 0.93120  0.88840  0.04990  Biso   1.000  H
  H390     1.0000 0.88700  0.88310  0.02490  Biso   1.000  H
  H391     1.0000 0.95000  0.87320  0.01810  Biso   1.000  H
  C217     1.0000 0.89920  0.77790  0.01359  Biso   1.000  C
  H392     1.0000 0.89610  0.73990  0.01970  Biso   1.000  H
  H393     1.0000 0.92710  0.78090  0.99870  Biso   1.000  H
  H394     1.0000 0.86420  0.79020  0.00600  Biso   1.000  H
  C218     1.0000 0.05440  0.79340  0.15085  Biso   1.000  C
  C219     1.0000 0.01960  0.84020  0.15760  Biso   1.000  C
  H395     1.0000 0.04170  0.87320  0.15290  Biso   1.000  H
  C220     1.0000 0.00060  0.84810  0.18882  Biso   1.000  C
  C221     1.0000 0.02720  0.74640  0.16040  Biso   1.000  C
  H396     1.0000 0.99080  0.74510  0.15200  Biso   1.000  H
  H397     1.0000 0.02430  0.74730  0.18130  Biso   1.000  H
  H398     1.0000 0.04780  0.71410  0.15460  Biso   1.000  H
  C222     1.0000 0.10760  0.80170  0.16300  Biso   1.000  C
  H399     1.0000 0.12260  0.83620  0.15600  Biso   1.000  H
  H400     1.0000 0.13160  0.77180  0.15730  Biso   1.000  H
  H401     1.0000 0.10480  0.80290  0.18390  Biso   1.000  H
  C223     1.0000 0.08330  0.96240  0.05564  Biso   1.000  C
  C224     1.0000 0.12650  0.00450  0.05885  Biso   1.000  C
  H402     1.0000 0.14920  0.99580  0.07600  Biso   1.000  H
  C225     1.0000 0.10150  0.06320  0.06239  Biso   1.000  C
  C226     1.0000 0.04630  0.97300  0.02739  Biso   1.000  C
  H403     1.0000 0.01840  0.94480  0.02600  Biso   1.000  H
  H404     1.0000 0.06940  0.97190  0.01030  Biso   1.000  H
  H405     1.0000 0.02890  0.00870  0.02880  Biso   1.000  H
  C227     1.0000 0.04410  0.95930  0.08159  Biso   1.000  C
  H406     1.0000 0.01690  0.93090  0.07820  Biso   1.000  H
  H407     1.0000 0.02580  0.99430  0.08410  Biso   1.000  H
  H408     1.0000 0.06480  0.95060  0.09890  Biso   1.000  H
  C228     1.0000 0.27780  0.86630  0.98210  Biso   1.000  C
  C229     1.0000 0.26160  0.91860  0.96901  Biso   1.000  C
  H409     1.0000 0.22990  0.91000  0.95640  Biso   1.000  H
  C230     1.0000 0.80580  0.55990  0.80077  Biso   1.000  C
  C231     1.0000 0.32710  0.87630  0.00177  Biso   1.000  C
  H410     1.0000 0.33860  0.84180  0.01030  Biso   1.000  H
  H411     1.0000 0.31700  0.90190  0.01690  Biso   1.000  H
  H412     1.0000 0.35710  0.89150  0.99060  Biso   1.000  H
  C232     1.0000 0.28640  0.81980  0.96261  Biso   1.000  C
  H413     1.0000 0.29820  0.78810  0.97370  Biso   1.000  H
  H414     1.0000 0.31430  0.82910  0.94850  Biso   1.000  H
  H415     1.0000 0.25230  0.81130  0.95270  Biso   1.000  H
  C233     1.0000 0.28760  0.85130  0.10231  Biso   1.000  C
  C234     1.0000 0.29550  0.84930  0.13460  Biso   1.000  C
  H416     1.0000 0.26430  0.86800  0.14410  Biso   1.000  H
  C235     1.0000 0.34910  0.87840  0.14297  Biso   1.000  C
  C236     1.0000 0.33700  0.83410  0.08645  Biso   1.000  C
  H417     1.0000 0.33020  0.83640  0.06590  Biso   1.000  H
  H418     1.0000 0.34600  0.79650  0.09150  Biso   1.000  H
  H419     1.0000 0.36750  0.85790  0.09150  Biso   1.000  H
  C237     1.0000 0.26960  0.90720  0.09110  Biso   1.000  C
  H420     1.0000 0.26580  0.90570  0.07030  Biso   1.000  H
  H421     1.0000 0.29690  0.93460  0.09620  Biso   1.000  H
  H422     1.0000 0.23460  0.91710  0.09970  Biso   1.000  H
  C238     1.0000 0.18960  0.62810  0.13909  Biso   1.000  C
  C239     1.0000 0.25140  0.62190  0.14819  Biso   1.000  C
  H423     1.0000 0.27320  0.61030  0.13120  Biso   1.000  H
  C240     1.0000 0.25820  0.57910  0.17253  Biso   1.000  C
  C241     1.0000 0.15180  0.64360  0.16167  Biso   1.000  C
  H424     1.0000 0.11490  0.64570  0.15380  Biso   1.000  H
  H425     1.0000 0.16210  0.67920  0.16940  Biso   1.000  H
  H426     1.0000 0.15280  0.61640  0.17700  Biso   1.000  H
  C242     1.0000 0.17430  0.56940  0.12840  Biso   1.000  C
  H427     1.0000 0.19960  0.55820  0.11330  Biso   1.000  H
  H428     1.0000 0.13720  0.56960  0.12080  Biso   1.000  H
  H429     1.0000 0.17660  0.54380  0.14440  Biso   1.000  H
  O106     1.0000 0.93590  0.58700  0.81287  Biso   1.000  O
  O107     1.0000 0.91600  0.66290  0.83009  Biso   1.000  O
  C243     1.0000 0.93950  0.63250  0.80950  Biso   1.000  C
  C244     1.0000 0.96540  0.64950  0.78500  Biso   1.000  C
  H430     1.0000 0.96610  0.68930  0.78450  Biso   1.000  H
  H431     1.0000 0.94580  0.63580  0.76830  Biso   1.000  H
  H432     1.0000 0.00270  0.63550  0.78490  Biso   1.000  H
  La23     1.0000 0.52731  0.56556  0.04350  Biso   1.000  La
  La24     1.0000 0.31820  0.00690  0.03732  Biso   1.000  La
  La25     1.0000 0.14370  0.28520  0.00495  Biso   1.000  La
  La26     1.0000 0.26840  0.66620  0.24624  Biso   1.000  La
  La27     1.0000 0.56060  0.63630  0.98880  Biso   1.000  La
  La28     1.0000 0.22330  0.31270  0.97320  Biso   1.000  La
  O108     1.0000 0.21320  0.71220  0.29620  Biso   1.000  O
  Pt25     1.0000 0.74390  0.00005  0.04475  Biso   1.000  Pt
  Pt26     1.0000 0.66488  0.27542  0.01719  Biso   1.000  Pt
  Pt27     1.0000 0.54667  0.06755  0.93644  Biso   1.000  Pt
  Pt28     1.0000 0.81582  0.97755  0.90192  Biso   1.000  Pt
  Pt29     1.0000 0.92817  0.18611  0.98039  Biso   1.000  Pt
  Pt30     1.0000 0.73845  0.24667  0.87386  Biso   1.000  Pt
  Ag33     1.0000 0.78360  0.15944  0.02011  Biso   1.000  Ag
  Ag34     1.0000 0.65084  0.11054  0.99883  Biso   1.000  Ag
  Ag35     1.0000 0.68943  0.99992  0.96107  Biso   1.000  Ag
  Ag36     1.0000 0.82700  0.05956  0.97578  Biso   1.000  Ag
  Ag37     1.0000 0.77127  0.23625  0.95742  Biso   1.000  Ag
  Ag38     1.0000 0.62604  0.21170  0.93731  Biso   1.000  Ag
  Ag39     1.0000 0.70162  0.09389  0.90417  Biso   1.000  Ag
  Ag40     1.0000 0.85240  0.14045  0.90420  Biso   1.000  Ag
  La29     1.0000 0.58108  0.88170  0.13721  Biso   1.000  La
  S49      1.0000 0.80381  0.06270  0.02896  Biso   1.000  S
  S50      1.0000 0.67534  0.01556  0.01341  Biso   1.000  S
  S51      1.0000 0.68807  0.19026  0.02712  Biso   1.000  S
  S52      1.0000 0.68015  0.27253  0.96925  Biso   1.000  S
  S53      1.0000 0.57917  0.13689  0.96314  Biso   1.000  S
  S54      1.0000 0.62684  0.03198  0.92280  Biso   1.000  S
  S55      1.0000 0.78621  0.98100  0.94765  Biso   1.000  S
  S56      1.0000 0.79406  0.06216  0.88841  Biso   1.000  S
  S57      1.0000 0.89748  0.11926  0.95157  Biso   1.000  S
  S58      1.0000 0.84644  0.21900  0.99384  Biso   1.000  S
  S59      1.0000 0.80477  0.23073  0.90653  Biso   1.000  S
  S60      1.0000 0.67435  0.19005  0.89076  Biso   1.000  S
  O109     1.0000 0.89260  0.96260  0.10296  Biso   1.000  O
  O110     1.0000 0.91150  0.04130  0.11434  Biso   1.000  O
  O111     1.0000 0.61727  0.89500  0.08871  Biso   1.000  O
  O112     1.0000 0.56460  0.87450  0.04898  Biso   1.000  O
  O113     1.0000 0.63090  0.27350  0.11420  Biso   1.000  O
  O114     1.0000 0.70160  0.22900  0.12584  Biso   1.000  O
  O115     1.0000 0.64090  0.45460  0.99766  Biso   1.000  O
  O116     1.0000 0.59820  0.45020  0.95713  Biso   1.000  O
  O117     1.0000 0.38575  0.12740  0.97742  Biso   1.000  O
  O118     1.0000 0.39890  0.21090  0.97106  Biso   1.000  O
  O119     1.0000 0.57444  0.98033  0.12986  Biso   1.000  O
  O120     1.0000 0.63118  0.04534  0.14353  Biso   1.000  O
  O121     1.0000 0.86762  0.80152  0.93304  Biso   1.000  O
  O122     1.0000 0.79000  0.78915  0.95517  Biso   1.000  O
  O123     1.0000 0.82830  0.95220  0.80482  Biso   1.000  O
  O124     1.0000 0.86390  0.03220  0.79348  Biso   1.000  O
  O125     1.0000 0.09090  0.09140  0.95685  Biso   1.000  O
  O126     1.0000 0.07500  0.09210  0.91000  Biso   1.000  O
  O127     1.0000 0.51300  0.83004  0.20807  Biso   1.000  O
  O128     1.0000 0.58127  0.81431  0.17742  Biso   1.000  O
  O129     1.0000 0.85410  0.39042  0.85310  Biso   1.000  O
  O130     1.0000 0.93380  0.34360  0.85647  Biso   1.000  O
  O131     1.0000 0.60620  0.26620  0.80273  Biso   1.000  O
  O132     1.0000 0.53770  0.25570  0.82806  Biso   1.000  O
  N49      1.0000 0.79920  0.98960  0.07713  Biso   1.000  N
  H433     1.0000 0.77980  0.98610  0.09380  Biso   1.000  H
  H434     1.0000 0.81630  0.95690  0.07400  Biso   1.000  H
  N50      1.0000 0.69610  0.93990  0.06052  Biso   1.000  N
  H435     1.0000 0.71690  0.90890  0.06230  Biso   1.000  H
  H436     1.0000 0.68490  0.94970  0.07860  Biso   1.000  H
  N51      1.0000 0.65770  0.28820  0.06017  Biso   1.000  N
  H437     1.0000 0.67070  0.32210  0.06480  Biso   1.000  H
  H438     1.0000 0.62170  0.28660  0.06540  Biso   1.000  H
  N52      1.0000 0.63140  0.34700  0.00886  Biso   1.000  N
  H439     1.0000 0.59700  0.34680  0.01660  Biso   1.000  H
  H440     1.0000 0.65100  0.37290  0.01860  Biso   1.000  H
  N53      1.0000 0.47320  0.09930  0.94701  Biso   1.000  N
  H441     1.0000 0.45140  0.09890  0.93110  Biso   1.000  H
  H442     1.0000 0.45730  0.07710  0.96050  Biso   1.000  H
  N54      1.0000 0.51280  0.00410  0.91428  Biso   1.000  N
  H443     1.0000 0.48240  0.99210  0.92380  Biso   1.000  H
  H444     1.0000 0.50220  0.01600  0.89650  Biso   1.000  H
  N55      1.0000 0.83190  0.89710  0.91044  Biso   1.000  N
  H445     1.0000 0.82260  0.87690  0.89470  Biso   1.000  H
  H446     1.0000 0.86870  0.89320  0.91320  Biso   1.000  H
  N56      1.0000 0.84360  0.96760  0.86174  Biso   1.000  N
  H447     1.0000 0.87930  0.95660  0.86260  Biso   1.000  H
  H448     1.0000 0.82410  0.94020  0.85320  Biso   1.000  H
  N57      1.0000 0.00410  0.16270  0.96799  Biso   1.000  N
  H449     1.0000 0.02460  0.19320  0.96450  Biso   1.000  H
  H450     1.0000 0.02030  0.14410  0.98280  Biso   1.000  H
  N58      1.0000 0.95790  0.24070  0.00924  Biso   1.000  N
  H451     1.0000 0.98650  0.22470  0.01870  Biso   1.000  H
  H452     1.0000 0.97170  0.26990  0.99930  Biso   1.000  H
  N59      1.0000 0.79296  0.29720  0.85626  Biso   1.000  N
  H453     1.0000 0.79250  0.29120  0.83690  Biso   1.000  H
  H454     1.0000 0.78070  0.33210  0.85910  Biso   1.000  H
  N60      1.0000 0.68070  0.26390  0.84520  Biso   1.000  N
  H455     1.0000 0.68290  0.30050  0.84130  Biso   1.000  H
  H456     1.0000 0.68940  0.24580  0.82860  Biso   1.000  H
  C245     1.0000 0.86320  0.04500  0.05125  Biso   1.000  C
  C246     1.0000 0.84090  0.02970  0.08210  Biso   1.000  C
  H457     1.0000 0.82550  0.06240  0.09180  Biso   1.000  H
  C247     1.0000 0.88550  0.00490  0.09971  Biso   1.000  C
  C248     1.0000 0.89880  0.00530  0.03867  Biso   1.000  C
  H458     1.0000 0.91090  0.01820  0.01990  Biso   1.000  H
  H459     1.0000 0.87940  0.97080  0.03650  Biso   1.000  H
  H460     1.0000 0.93050  0.99990  0.05110  Biso   1.000  H
  C249     1.0000 0.89510  0.10420  0.05580  Biso   1.000  C
  H461     1.0000 0.87010  0.13060  0.06440  Biso   1.000  H
  H462     1.0000 0.90750  0.11790  0.03720  Biso   1.000  H
  H463     1.0000 0.92650  0.09910  0.06840  Biso   1.000  H
  C250     1.0000 0.61990  0.97900  0.03118  Biso   1.000  C
  C251     1.0000 0.64640  0.92630  0.04291  Biso   1.000  C
  H464     1.0000 0.65570  0.90080  0.02700  Biso   1.000  H
  C252     1.0000 0.61060  0.89870  0.06495  Biso   1.000  C
  C253     1.0000 0.59720  0.01520  0.05469  Biso   1.000  C
  H465     1.0000 0.62490  0.02050  0.06950  Biso   1.000  H
  H466     1.0000 0.56510  0.99800  0.06310  Biso   1.000  H
  H467     1.0000 0.58700  0.05050  0.04660  Biso   1.000  H
  C254     1.0000 0.57940  0.96760  0.00741  Biso   1.000  C
  H468     1.0000 0.59630  0.94410  0.99300  Biso   1.000  H
  H469     1.0000 0.56840  0.00190  0.99850  Biso   1.000  H
  H470     1.0000 0.54740  0.94940  0.01540  Biso   1.000  H
  C255     1.0000 0.67080  0.18830  0.06570  Biso   1.000  C
  C256     1.0000 0.68910  0.24590  0.07557  Biso   1.000  C
  H471     1.0000 0.72920  0.25130  0.07380  Biso   1.000  H
  C257     1.0000 0.66800  0.24980  0.10919  Biso   1.000  C
  C258     1.0000 0.60790  0.17480  0.06687  Biso   1.000  C
  H472     1.0000 0.60200  0.13710  0.06090  Biso   1.000  H
  H473     1.0000 0.58820  0.19930  0.05400  Biso   1.000  H
  H474     1.0000 0.59460  0.17970  0.08640  Biso   1.000  H
  C259     1.0000 0.70240  0.13990  0.07879  Biso   1.000  C
  H475     1.0000 0.68770  0.10570  0.07130  Biso   1.000  H
  H476     1.0000 0.69850  0.14050  0.09960  Biso   1.000  H
  H477     1.0000 0.74090  0.14290  0.07370  Biso   1.000  H
  C260     1.0000 0.67290  0.34390  0.96307  Biso   1.000  C
  C261     1.0000 0.62630  0.36520  0.97932  Biso   1.000  C
  H478     1.0000 0.59300  0.34770  0.97130  Biso   1.000  H
  C262     1.0000 0.61610  0.42790  0.97911  Biso   1.000  C
  C263     1.0000 0.72340  0.37390  0.97210  Biso   1.000  C
  H479     1.0000 0.75440  0.36120  0.96070  Biso   1.000  H
  H480     1.0000 0.73050  0.36720  0.99240  Biso   1.000  H
  H481     1.0000 0.71830  0.41300  0.96900  Biso   1.000  H
  C264     1.0000 0.51790  0.15660  0.98106  Biso   1.000  C
  C265     1.0000 0.47460  0.15210  0.95770  Biso   1.000  C
  H482     1.0000 0.48370  0.17780  0.94190  Biso   1.000  H
  C266     1.0000 0.41580  0.16410  0.96840  Biso   1.000  C
  C267     1.0000 0.50480  0.11990  0.00498  Biso   1.000  C
  H483     1.0000 0.53370  0.12180  0.01940  Biso   1.000  H
  H484     1.0000 0.50180  0.08250  0.99790  Biso   1.000  H
  H485     1.0000 0.47020  0.13080  0.01360  Biso   1.000  H
  C268     1.0000 0.52970  0.21700  0.99246  Biso   1.000  C
  H486     1.0000 0.53870  0.24060  0.97630  Biso   1.000  H
  H487     1.0000 0.56030  0.21610  0.00580  Biso   1.000  H
  H488     1.0000 0.49740  0.23100  0.00220  Biso   1.000  H
  C269     1.0000 0.60700  0.97630  0.89870  Biso   1.000  C
  C270     1.0000 0.55230  0.95740  0.91091  Biso   1.000  C
  H489     1.0000 0.55890  0.94120  0.93020  Biso   1.000  H
  C271     1.0000 0.58490  0.02270  0.14248  Biso   1.000  C
  C272     1.0000 0.59810  0.99810  0.86820  Biso   1.000  C
  H490     1.0000 0.57030  0.02660  0.86850  Biso   1.000  H
  H491     1.0000 0.58600  0.96840  0.85580  Biso   1.000  H
  H492     1.0000 0.63220  0.01310  0.86090  Biso   1.000  H
  C273     1.0000 0.64970  0.93390  0.90016  Biso   1.000  C
  H493     1.0000 0.68350  0.94820  0.89200  Biso   1.000  H
  H494     1.0000 0.63810  0.90200  0.88930  Biso   1.000  H
  H495     1.0000 0.65580  0.92360  0.92010  Biso   1.000  H
  C274     1.0000 0.81280  0.91500  0.96120  Biso   1.000  C
  C275     1.0000 0.80360  0.87510  0.93520  Biso   1.000  C
  H496     1.0000 0.76390  0.87330  0.93090  Biso   1.000  H
  C276     1.0000 0.82510  0.81610  0.94138  Biso   1.000  C
  C277     1.0000 0.86860  0.92130  0.96756  Biso   1.000  C
  H497     1.0000 0.88840  0.93120  0.95010  Biso   1.000  H
  H498     1.0000 0.88310  0.88700  0.97510  Biso   1.000  H
  H499     1.0000 0.87320  0.95000  0.98190  Biso   1.000  H
  C278     1.0000 0.77790  0.89920  0.98641  Biso   1.000  C
  H500     1.0000 0.73990  0.89610  0.98030  Biso   1.000  H
  H501     1.0000 0.78090  0.92710  0.00130  Biso   1.000  H
  H502     1.0000 0.79020  0.86420  0.99400  Biso   1.000  H
  C279     1.0000 0.79340  0.05440  0.84915  Biso   1.000  C
  C280     1.0000 0.84020  0.01960  0.84240  Biso   1.000  C
  H503     1.0000 0.87320  0.04170  0.84710  Biso   1.000  H
  C281     1.0000 0.84810  0.00060  0.81118  Biso   1.000  C
  C282     1.0000 0.74640  0.02720  0.83960  Biso   1.000  C
  H504     1.0000 0.74510  0.99080  0.84800  Biso   1.000  H
  H505     1.0000 0.74730  0.02430  0.81870  Biso   1.000  H
  H506     1.0000 0.71410  0.04780  0.84540  Biso   1.000  H
  C283     1.0000 0.80170  0.10760  0.83700  Biso   1.000  C
  H507     1.0000 0.83620  0.12260  0.84400  Biso   1.000  H
  H508     1.0000 0.77180  0.13160  0.84270  Biso   1.000  H
  H509     1.0000 0.80290  0.10480  0.81610  Biso   1.000  H
  C284     1.0000 0.96240  0.08330  0.94436  Biso   1.000  C
  C285     1.0000 0.00450  0.12650  0.94115  Biso   1.000  C
  H510     1.0000 0.99580  0.14920  0.92400  Biso   1.000  H
  C286     1.0000 0.06320  0.10150  0.93761  Biso   1.000  C
  C287     1.0000 0.97300  0.04630  0.97261  Biso   1.000  C
  H511     1.0000 0.94480  0.01840  0.97400  Biso   1.000  H
  H512     1.0000 0.97190  0.06940  0.98970  Biso   1.000  H
  H513     1.0000 0.00870  0.02890  0.97120  Biso   1.000  H
  C288     1.0000 0.95930  0.04410  0.91841  Biso   1.000  C
  H514     1.0000 0.93090  0.01690  0.92180  Biso   1.000  H
  H515     1.0000 0.99430  0.02580  0.91590  Biso   1.000  H
  H516     1.0000 0.95060  0.06480  0.90110  Biso   1.000  H
  C289     1.0000 0.86630  0.27780  0.01790  Biso   1.000  C
  C290     1.0000 0.91860  0.26160  0.03099  Biso   1.000  C
  H517     1.0000 0.91000  0.22990  0.04360  Biso   1.000  H
  C291     1.0000 0.55990  0.80580  0.19923  Biso   1.000  C
  C292     1.0000 0.87630  0.32710  0.99823  Biso   1.000  C
  H518     1.0000 0.84180  0.33860  0.98970  Biso   1.000  H
  H519     1.0000 0.90190  0.31700  0.98310  Biso   1.000  H
  H520     1.0000 0.89150  0.35710  0.00940  Biso   1.000  H
  C293     1.0000 0.81980  0.28640  0.03739  Biso   1.000  C
  H521     1.0000 0.78810  0.29820  0.02630  Biso   1.000  H
  H522     1.0000 0.82910  0.31430  0.05150  Biso   1.000  H
  H523     1.0000 0.81130  0.25230  0.04730  Biso   1.000  H
  C294     1.0000 0.85130  0.28760  0.89769  Biso   1.000  C
  C295     1.0000 0.84930  0.29550  0.86540  Biso   1.000  C
  H524     1.0000 0.86800  0.26430  0.85590  Biso   1.000  H
  C296     1.0000 0.87840  0.34910  0.85703  Biso   1.000  C
  C297     1.0000 0.83410  0.33700  0.91355  Biso   1.000  C
  H525     1.0000 0.83640  0.33020  0.93410  Biso   1.000  H
  H526     1.0000 0.79650  0.34600  0.90850  Biso   1.000  H
  H527     1.0000 0.85790  0.36750  0.90850  Biso   1.000  H
  C298     1.0000 0.90720  0.26960  0.90890  Biso   1.000  C
  H528     1.0000 0.90570  0.26580  0.92970  Biso   1.000  H
  H529     1.0000 0.93460  0.29690  0.90380  Biso   1.000  H
  H530     1.0000 0.91710  0.23460  0.90030  Biso   1.000  H
  C299     1.0000 0.62810  0.18960  0.86091  Biso   1.000  C
  C300     1.0000 0.62190  0.25140  0.85181  Biso   1.000  C
  H531     1.0000 0.61030  0.27320  0.86880  Biso   1.000  H
  C301     1.0000 0.57910  0.25820  0.82747  Biso   1.000  C
  C302     1.0000 0.64360  0.15180  0.83833  Biso   1.000  C
  H532     1.0000 0.64570  0.11490  0.84620  Biso   1.000  H
  H533     1.0000 0.67920  0.16210  0.83060  Biso   1.000  H
  H534     1.0000 0.61640  0.15280  0.82300  Biso   1.000  H
  C303     1.0000 0.56940  0.17430  0.87160  Biso   1.000  C
  H535     1.0000 0.55820  0.19960  0.88670  Biso   1.000  H
  H536     1.0000 0.56960  0.13720  0.87920  Biso   1.000  H
  H537     1.0000 0.54380  0.17660  0.85560  Biso   1.000  H
  O133     1.0000 0.58700  0.93590  0.18713  Biso   1.000  O
  O134     1.0000 0.66290  0.91600  0.16991  Biso   1.000  O
  C304     1.0000 0.63250  0.93950  0.19050  Biso   1.000  C
  C305     1.0000 0.64950  0.96540  0.21500  Biso   1.000  C
  H538     1.0000 0.68930  0.96610  0.21550  Biso   1.000  H
  H539     1.0000 0.63580  0.94580  0.23170  Biso   1.000  H
  H540     1.0000 0.63550  0.00270  0.21510  Biso   1.000  H
  La30     1.0000 0.56556  0.52731  0.95650  Biso   1.000  La
  La31     1.0000 0.00690  0.31820  0.96268  Biso   1.000  La
  La32     1.0000 0.28520  0.14370  0.99505  Biso   1.000  La
  La33     1.0000 0.66620  0.26840  0.75376  Biso   1.000  La
  La34     1.0000 0.63630  0.56060  0.01120  Biso   1.000  La
  La35     1.0000 0.31270  0.22330  0.02680  Biso   1.000  La
  O135     1.0000 0.71220  0.21320  0.70380  Biso   1.000  O
  Pt31     1.0000 0.25610  0.99995  0.54475  Biso   1.000  Pt
  Pt32     1.0000 0.33512  0.72458  0.51719  Biso   1.000  Pt
  Pt33     1.0000 0.45333  0.93245  0.43644  Biso   1.000  Pt
  Pt34     1.0000 0.18418  0.02245  0.40192  Biso   1.000  Pt
  Pt35     1.0000 0.07183  0.81389  0.48039  Biso   1.000  Pt
  Pt36     1.0000 0.26155  0.75333  0.37386  Biso   1.000  Pt
  Ag41     1.0000 0.21640  0.84056  0.52011  Biso   1.000  Ag
  Ag42     1.0000 0.34916  0.88946  0.49882  Biso   1.000  Ag
  Ag43     1.0000 0.31057  0.00008  0.46108  Biso   1.000  Ag
  Ag44     1.0000 0.17300  0.94044  0.47578  Biso   1.000  Ag
  Ag45     1.0000 0.22873  0.76375  0.45742  Biso   1.000  Ag
  Ag46     1.0000 0.37396  0.78830  0.43731  Biso   1.000  Ag
  Ag47     1.0000 0.29838  0.90611  0.40417  Biso   1.000  Ag
  Ag48     1.0000 0.14760  0.85955  0.40420  Biso   1.000  Ag
  La36     1.0000 0.41892  0.11830  0.63721  Biso   1.000  La
  S61      1.0000 0.19619  0.93730  0.52896  Biso   1.000  S
  S62      1.0000 0.32466  0.98444  0.51341  Biso   1.000  S
  S63      1.0000 0.31193  0.80974  0.52712  Biso   1.000  S
  S64      1.0000 0.31985  0.72747  0.46925  Biso   1.000  S
  S65      1.0000 0.42083  0.86311  0.46314  Biso   1.000  S
  S66      1.0000 0.37316  0.96802  0.42280  Biso   1.000  S
  S67      1.0000 0.21379  0.01900  0.44765  Biso   1.000  S
  S68      1.0000 0.20594  0.93784  0.38841  Biso   1.000  S
  S69      1.0000 0.10252  0.88074  0.45157  Biso   1.000  S
  S70      1.0000 0.15356  0.78100  0.49384  Biso   1.000  S
  S71      1.0000 0.19523  0.76927  0.40653  Biso   1.000  S
  S72      1.0000 0.32565  0.80995  0.39076  Biso   1.000  S
  O136     1.0000 0.10740  0.03740  0.60296  Biso   1.000  O
  O137     1.0000 0.08850  0.95870  0.61434  Biso   1.000  O
  O138     1.0000 0.38273  0.10500  0.58871  Biso   1.000  O
  O139     1.0000 0.43540  0.12550  0.54898  Biso   1.000  O
  O140     1.0000 0.36910  0.72650  0.61420  Biso   1.000  O
  O141     1.0000 0.29840  0.77100  0.62584  Biso   1.000  O
  O142     1.0000 0.35910  0.54540  0.49766  Biso   1.000  O
  O143     1.0000 0.40180  0.54980  0.45713  Biso   1.000  O
  O144     1.0000 0.61425  0.87260  0.47742  Biso   1.000  O
  O145     1.0000 0.60110  0.78910  0.47106  Biso   1.000  O
  O146     1.0000 0.42556  0.01967  0.62986  Biso   1.000  O
  O147     1.0000 0.36882  0.95466  0.64353  Biso   1.000  O
  O148     1.0000 0.13238  0.19848  0.43304  Biso   1.000  O
  O149     1.0000 0.21000  0.21085  0.45517  Biso   1.000  O
  O150     1.0000 0.17170  0.04780  0.30482  Biso   1.000  O
  O151     1.0000 0.13610  0.96780  0.29348  Biso   1.000  O
  O152     1.0000 0.90910  0.90860  0.45685  Biso   1.000  O
  O153     1.0000 0.92500  0.90790  0.41000  Biso   1.000  O
  O154     1.0000 0.48700  0.16996  0.70807  Biso   1.000  O
  O155     1.0000 0.41873  0.18569  0.67742  Biso   1.000  O
  O156     1.0000 0.14590  0.60958  0.35310  Biso   1.000  O
  O157     1.0000 0.06620  0.65640  0.35647  Biso   1.000  O
  O158     1.0000 0.39380  0.73380  0.30273  Biso   1.000  O
  O159     1.0000 0.46230  0.74430  0.32806  Biso   1.000  O
  N61      1.0000 0.20080  0.01040  0.57713  Biso   1.000  N
  H541     1.0000 0.22020  0.01390  0.59380  Biso   1.000  H
  H542     1.0000 0.18370  0.04310  0.57400  Biso   1.000  H
  N62      1.0000 0.30390  0.06010  0.56052  Biso   1.000  N
  H543     1.0000 0.28310  0.09110  0.56230  Biso   1.000  H
  H544     1.0000 0.31510  0.05030  0.57860  Biso   1.000  H
  N63      1.0000 0.34230  0.71180  0.56017  Biso   1.000  N
  H545     1.0000 0.32930  0.67790  0.56480  Biso   1.000  H
  H546     1.0000 0.37830  0.71340  0.56540  Biso   1.000  H
  N64      1.0000 0.36860  0.65300  0.50886  Biso   1.000  N
  H547     1.0000 0.40300  0.65320  0.51660  Biso   1.000  H
  H548     1.0000 0.34900  0.62710  0.51860  Biso   1.000  H
  N65      1.0000 0.52680  0.90070  0.44701  Biso   1.000  N
  H549     1.0000 0.54860  0.90110  0.43110  Biso   1.000  H
  H550     1.0000 0.54270  0.92290  0.46050  Biso   1.000  H
  N66      1.0000 0.48720  0.99590  0.41428  Biso   1.000  N
  H551     1.0000 0.51760  0.00790  0.42380  Biso   1.000  H
  H552     1.0000 0.49780  0.98400  0.39650  Biso   1.000  H
  N67      1.0000 0.16810  0.10290  0.41044  Biso   1.000  N
  H553     1.0000 0.17740  0.12310  0.39470  Biso   1.000  H
  H554     1.0000 0.13130  0.10680  0.41320  Biso   1.000  H
  N68      1.0000 0.15640  0.03240  0.36174  Biso   1.000  N
  H555     1.0000 0.12070  0.04340  0.36260  Biso   1.000  H
  H556     1.0000 0.17590  0.05980  0.35320  Biso   1.000  H
  N69      1.0000 0.99590  0.83730  0.46799  Biso   1.000  N
  H557     1.0000 0.97540  0.80680  0.46450  Biso   1.000  H
  H558     1.0000 0.97970  0.85590  0.48280  Biso   1.000  H
  N70      1.0000 0.04210  0.75930  0.50924  Biso   1.000  N
  H559     1.0000 0.01350  0.77530  0.51870  Biso   1.000  H
  H560     1.0000 0.02830  0.73010  0.49930  Biso   1.000  H
  N71      1.0000 0.20704  0.70280  0.35626  Biso   1.000  N
  H561     1.0000 0.20750  0.70880  0.33690  Biso   1.000  H
  H562     1.0000 0.21930  0.66790  0.35910  Biso   1.000  H
  N72      1.0000 0.31930  0.73610  0.34520  Biso   1.000  N
  H563     1.0000 0.31710  0.69950  0.34130  Biso   1.000  H
  H564     1.0000 0.31060  0.75420  0.32860  Biso   1.000  H
  C306     1.0000 0.13680  0.95500  0.55125  Biso   1.000  C
  C307     1.0000 0.15910  0.97030  0.58210  Biso   1.000  C
  H565     1.0000 0.17450  0.93760  0.59180  Biso   1.000  H
  C308     1.0000 0.11450  0.99510  0.59971  Biso   1.000  C
  C309     1.0000 0.10120  0.99470  0.53867  Biso   1.000  C
  H566     1.0000 0.08910  0.98180  0.51990  Biso   1.000  H
  H567     1.0000 0.12060  0.02920  0.53650  Biso   1.000  H
  H568     1.0000 0.06950  0.00010  0.55110  Biso   1.000  H
  C310     1.0000 0.10490  0.89580  0.55580  Biso   1.000  C
  H569     1.0000 0.12990  0.86940  0.56440  Biso   1.000  H
  H570     1.0000 0.09250  0.88210  0.53720  Biso   1.000  H
  H571     1.0000 0.07350  0.90090  0.56840  Biso   1.000  H
  C311     1.0000 0.38010  0.02100  0.53118  Biso   1.000  C
  C312     1.0000 0.35360  0.07370  0.54291  Biso   1.000  C
  H572     1.0000 0.34430  0.09920  0.52700  Biso   1.000  H
  C313     1.0000 0.38940  0.10130  0.56495  Biso   1.000  C
  C314     1.0000 0.40280  0.98480  0.55469  Biso   1.000  C
  H573     1.0000 0.37510  0.97950  0.56950  Biso   1.000  H
  H574     1.0000 0.43490  0.00200  0.56310  Biso   1.000  H
  H575     1.0000 0.41300  0.94950  0.54660  Biso   1.000  H
  C315     1.0000 0.42060  0.03240  0.50741  Biso   1.000  C
  H576     1.0000 0.40370  0.05590  0.49300  Biso   1.000  H
  H577     1.0000 0.43160  0.99810  0.49850  Biso   1.000  H
  H578     1.0000 0.45260  0.05060  0.51540  Biso   1.000  H
  C316     1.0000 0.32920  0.81170  0.56570  Biso   1.000  C
  C317     1.0000 0.31090  0.75410  0.57557  Biso   1.000  C
  H579     1.0000 0.27080  0.74870  0.57380  Biso   1.000  H
  C318     1.0000 0.33200  0.75020  0.60919  Biso   1.000  C
  C319     1.0000 0.39210  0.82520  0.56687  Biso   1.000  C
  H580     1.0000 0.39800  0.86290  0.56090  Biso   1.000  H
  H581     1.0000 0.41180  0.80070  0.55400  Biso   1.000  H
  H582     1.0000 0.40540  0.82030  0.58640  Biso   1.000  H
  C320     1.0000 0.29760  0.86010  0.57879  Biso   1.000  C
  H583     1.0000 0.31230  0.89430  0.57130  Biso   1.000  H
  H584     1.0000 0.30150  0.85950  0.59960  Biso   1.000  H
  H585     1.0000 0.25910  0.85710  0.57370  Biso   1.000  H
  C321     1.0000 0.32710  0.65610  0.46307  Biso   1.000  C
  C322     1.0000 0.37370  0.63480  0.47932  Biso   1.000  C
  H586     1.0000 0.40700  0.65230  0.47130  Biso   1.000  H
  C323     1.0000 0.38390  0.57210  0.47911  Biso   1.000  C
  C324     1.0000 0.27660  0.62610  0.47210  Biso   1.000  C
  H587     1.0000 0.24560  0.63880  0.46070  Biso   1.000  H
  H588     1.0000 0.26950  0.63280  0.49240  Biso   1.000  H
  H589     1.0000 0.28170  0.58700  0.46900  Biso   1.000  H
  C325     1.0000 0.48210  0.84340  0.48106  Biso   1.000  C
  C326     1.0000 0.52540  0.84790  0.45770  Biso   1.000  C
  H590     1.0000 0.51630  0.82220  0.44190  Biso   1.000  H
  C327     1.0000 0.58420  0.83590  0.46840  Biso   1.000  C
  C328     1.0000 0.49520  0.88010  0.50498  Biso   1.000  C
  H591     1.0000 0.46630  0.87820  0.51940  Biso   1.000  H
  H592     1.0000 0.49820  0.91750  0.49790  Biso   1.000  H
  H593     1.0000 0.52980  0.86920  0.51360  Biso   1.000  H
  C329     1.0000 0.47030  0.78300  0.49246  Biso   1.000  C
  H594     1.0000 0.46130  0.75940  0.47630  Biso   1.000  H
  H595     1.0000 0.43970  0.78390  0.50580  Biso   1.000  H
  H596     1.0000 0.50260  0.76900  0.50220  Biso   1.000  H
  C330     1.0000 0.39300  0.02370  0.39870  Biso   1.000  C
  C331     1.0000 0.44770  0.04260  0.41091  Biso   1.000  C
  H597     1.0000 0.44110  0.05880  0.43020  Biso   1.000  H
  C332     1.0000 0.41510  0.97730  0.64248  Biso   1.000  C
  C333     1.0000 0.40190  0.00190  0.36820  Biso   1.000  C
  H598     1.0000 0.42970  0.97340  0.36850  Biso   1.000  H
  H599     1.0000 0.41400  0.03160  0.35580  Biso   1.000  H
  H600     1.0000 0.36780  0.98690  0.36090  Biso   1.000  H
  C334     1.0000 0.35030  0.06610  0.40016  Biso   1.000  C
  H601     1.0000 0.31650  0.05180  0.39200  Biso   1.000  H
  H602     1.0000 0.36190  0.09800  0.38930  Biso   1.000  H
  H603     1.0000 0.34420  0.07640  0.42010  Biso   1.000  H
  C335     1.0000 0.18720  0.08500  0.46120  Biso   1.000  C
  C336     1.0000 0.19640  0.12490  0.43520  Biso   1.000  C
  H604     1.0000 0.23610  0.12670  0.43090  Biso   1.000  H
  C337     1.0000 0.17490  0.18390  0.44138  Biso   1.000  C
  C338     1.0000 0.13140  0.07870  0.46756  Biso   1.000  C
  H605     1.0000 0.11160  0.06880  0.45010  Biso   1.000  H
  H606     1.0000 0.11690  0.11300  0.47510  Biso   1.000  H
  H607     1.0000 0.12680  0.05000  0.48190  Biso   1.000  H
  C339     1.0000 0.22210  0.10080  0.48641  Biso   1.000  C
  H608     1.0000 0.26010  0.10390  0.48030  Biso   1.000  H
  H609     1.0000 0.21910  0.07290  0.50130  Biso   1.000  H
  H610     1.0000 0.20980  0.13580  0.49400  Biso   1.000  H
  C340     1.0000 0.20660  0.94560  0.34915  Biso   1.000  C
  C341     1.0000 0.15980  0.98040  0.34240  Biso   1.000  C
  H611     1.0000 0.12680  0.95830  0.34710  Biso   1.000  H
  C342     1.0000 0.15190  0.99940  0.31118  Biso   1.000  C
  C343     1.0000 0.25360  0.97280  0.33960  Biso   1.000  C
  H612     1.0000 0.25490  0.00920  0.34800  Biso   1.000  H
  H613     1.0000 0.25270  0.97570  0.31870  Biso   1.000  H
  H614     1.0000 0.28590  0.95220  0.34540  Biso   1.000  H
  C344     1.0000 0.19830  0.89240  0.33700  Biso   1.000  C
  H615     1.0000 0.16380  0.87740  0.34400  Biso   1.000  H
  H616     1.0000 0.22820  0.86840  0.34270  Biso   1.000  H
  H617     1.0000 0.19710  0.89520  0.31610  Biso   1.000  H
  C345     1.0000 0.03760  0.91670  0.44436  Biso   1.000  C
  C346     1.0000 0.99550  0.87350  0.44115  Biso   1.000  C
  H618     1.0000 0.00420  0.85080  0.42400  Biso   1.000  H
  C347     1.0000 0.93680  0.89850  0.43761  Biso   1.000  C
  C348     1.0000 0.02700  0.95370  0.47261  Biso   1.000  C
  H619     1.0000 0.05520  0.98160  0.47400  Biso   1.000  H
  H620     1.0000 0.02810  0.93060  0.48970  Biso   1.000  H
  H621     1.0000 0.99130  0.97110  0.47120  Biso   1.000  H
  C349     1.0000 0.04070  0.95590  0.41841  Biso   1.000  C
  H622     1.0000 0.06910  0.98310  0.42180  Biso   1.000  H
  H623     1.0000 0.00570  0.97420  0.41590  Biso   1.000  H
  H624     1.0000 0.04940  0.93520  0.40110  Biso   1.000  H
  C350     1.0000 0.13370  0.72220  0.51790  Biso   1.000  C
  C351     1.0000 0.08140  0.73840  0.53099  Biso   1.000  C
  H625     1.0000 0.09000  0.77010  0.54360  Biso   1.000  H
  C352     1.0000 0.44010  0.19420  0.69923  Biso   1.000  C
  C353     1.0000 0.12370  0.67290  0.49823  Biso   1.000  C
  H626     1.0000 0.15820  0.66140  0.48970  Biso   1.000  H
  H627     1.0000 0.09810  0.68300  0.48310  Biso   1.000  H
  H628     1.0000 0.10850  0.64290  0.50940  Biso   1.000  H
  C354     1.0000 0.18020  0.71360  0.53739  Biso   1.000  C
  H629     1.0000 0.21190  0.70180  0.52630  Biso   1.000  H
  H630     1.0000 0.17090  0.68570  0.55150  Biso   1.000  H
  H631     1.0000 0.18870  0.74770  0.54730  Biso   1.000  H
  C355     1.0000 0.14870  0.71240  0.39769  Biso   1.000  C
  C356     1.0000 0.15070  0.70450  0.36540  Biso   1.000  C
  H632     1.0000 0.13200  0.73570  0.35590  Biso   1.000  H
  C357     1.0000 0.12160  0.65090  0.35703  Biso   1.000  C
  C358     1.0000 0.16590  0.66300  0.41355  Biso   1.000  C
  H633     1.0000 0.16360  0.66980  0.43410  Biso   1.000  H
  H634     1.0000 0.20350  0.65400  0.40850  Biso   1.000  H
  H635     1.0000 0.14210  0.63250  0.40850  Biso   1.000  H
  C359     1.0000 0.09280  0.73040  0.40890  Biso   1.000  C
  H636     1.0000 0.09430  0.73420  0.42970  Biso   1.000  H
  H637     1.0000 0.06540  0.70310  0.40380  Biso   1.000  H
  H638     1.0000 0.08290  0.76540  0.40030  Biso   1.000  H
  C360     1.0000 0.37190  0.81040  0.36091  Biso   1.000  C
  C361     1.0000 0.37810  0.74860  0.35181  Biso   1.000  C
  H639     1.0000 0.38970  0.72680  0.36880  Biso   1.000  H
  C362     1.0000 0.42090  0.74180  0.32747  Biso   1.000  C
  C363     1.0000 0.35640  0.84820  0.33833  Biso   1.000  C
  H640     1.0000 0.35430  0.88510  0.34620  Biso   1.000  H
  H641     1.0000 0.32080  0.83790  0.33060  Biso   1.000  H
  H642     1.0000 0.38360  0.84720  0.32300  Biso   1.000  H
  C364     1.0000 0.43060  0.82570  0.37160  Biso   1.000  C
  H643     1.0000 0.44180  0.80040  0.38670  Biso   1.000  H
  H644     1.0000 0.43040  0.86280  0.37920  Biso   1.000  H
  H645     1.0000 0.45620  0.82340  0.35560  Biso   1.000  H
  O160     1.0000 0.41300  0.06410  0.68713  Biso   1.000  O
  O161     1.0000 0.33710  0.08400  0.66991  Biso   1.000  O
  C365     1.0000 0.36750  0.06050  0.69050  Biso   1.000  C
  C366     1.0000 0.35050  0.03460  0.71500  Biso   1.000  C
  H646     1.0000 0.31070  0.03390  0.71550  Biso   1.000  H
  H647     1.0000 0.36420  0.05420  0.73170  Biso   1.000  H
  H648     1.0000 0.36450  0.99730  0.71510  Biso   1.000  H
  La37     1.0000 0.43444  0.47269  0.45650  Biso   1.000  La
  La38     1.0000 0.99310  0.68180  0.46268  Biso   1.000  La
  La39     1.0000 0.71480  0.85630  0.49505  Biso   1.000  La
  La40     1.0000 0.33380  0.73160  0.25376  Biso   1.000  La
  La41     1.0000 0.36370  0.43940  0.51120  Biso   1.000  La
  La42     1.0000 0.68730  0.77670  0.52680  Biso   1.000  La
  O162     1.0000 0.28780  0.78680  0.20380  Biso   1.000  O
  Pt37     1.0000 0.50005  0.75610  0.79475  Biso   1.000  Pt
  Pt38     1.0000 0.77542  0.83512  0.76719  Biso   1.000  Pt
  Pt39     1.0000 0.56755  0.95333  0.68644  Biso   1.000  Pt
  Pt40     1.0000 0.47755  0.68418  0.65192  Biso   1.000  Pt
  Pt41     1.0000 0.68611  0.57183  0.73039  Biso   1.000  Pt
  Pt42     1.0000 0.74667  0.76155  0.62386  Biso   1.000  Pt
  Ag49     1.0000 0.65944  0.71640  0.77011  Biso   1.000  Ag
  Ag50     1.0000 0.61054  0.84916  0.74882  Biso   1.000  Ag
  Ag51     1.0000 0.49992  0.81057  0.71107  Biso   1.000  Ag
  Ag52     1.0000 0.55956  0.67300  0.72578  Biso   1.000  Ag
  Ag53     1.0000 0.73625  0.72873  0.70742  Biso   1.000  Ag
  Ag54     1.0000 0.71170  0.87396  0.68731  Biso   1.000  Ag
  Ag55     1.0000 0.59389  0.79838  0.65417  Biso   1.000  Ag
  Ag56     1.0000 0.64045  0.64760  0.65420  Biso   1.000  Ag
  La43     1.0000 0.38170  0.91892  0.88721  Biso   1.000  La
  S73      1.0000 0.56270  0.69619  0.77896  Biso   1.000  S
  S74      1.0000 0.51556  0.82466  0.76341  Biso   1.000  S
  S75      1.0000 0.69026  0.81193  0.77712  Biso   1.000  S
  S76      1.0000 0.77253  0.81985  0.71925  Biso   1.000  S
  S77      1.0000 0.63689  0.92083  0.71314  Biso   1.000  S
  S78      1.0000 0.53198  0.87316  0.67280  Biso   1.000  S
  S79      1.0000 0.48100  0.71379  0.69765  Biso   1.000  S
  S80      1.0000 0.56216  0.70594  0.63841  Biso   1.000  S
  S81      1.0000 0.61926  0.60252  0.70157  Biso   1.000  S
  S82      1.0000 0.71900  0.65356  0.74384  Biso   1.000  S
  S83      1.0000 0.73073  0.69523  0.65653  Biso   1.000  S
  S84      1.0000 0.69005  0.82565  0.64076  Biso   1.000  S
  O163     1.0000 0.46260  0.60740  0.85296  Biso   1.000  O
  O164     1.0000 0.54130  0.58850  0.86434  Biso   1.000  O
  O165     1.0000 0.39500  0.88273  0.83871  Biso   1.000  O
  O166     1.0000 0.37450  0.93540  0.79898  Biso   1.000  O
  O167     1.0000 0.77350  0.86910  0.86420  Biso   1.000  O
  O168     1.0000 0.72900  0.79840  0.87584  Biso   1.000  O
  O169     1.0000 0.95460  0.85910  0.74766  Biso   1.000  O
  O170     1.0000 0.95020  0.90180  0.70713  Biso   1.000  O
  O171     1.0000 0.62740  0.11425  0.72742  Biso   1.000  O
  O172     1.0000 0.71090  0.10110  0.72106  Biso   1.000  O
  O173     1.0000 0.48033  0.92556  0.87986  Biso   1.000  O
  O174     1.0000 0.54534  0.86882  0.89353  Biso   1.000  O
  O175     1.0000 0.30152  0.63238  0.68304  Biso   1.000  O
  O176     1.0000 0.28915  0.71000  0.70517  Biso   1.000  O
  O177     1.0000 0.45220  0.67170  0.55482  Biso   1.000  O
  O178     1.0000 0.53220  0.63610  0.54348  Biso   1.000  O
  O179     1.0000 0.59140  0.40910  0.70685  Biso   1.000  O
  O180     1.0000 0.59210  0.42500  0.66000  Biso   1.000  O
  O181     1.0000 0.33004  0.98700  0.95807  Biso   1.000  O
  O182     1.0000 0.31431  0.91873  0.92742  Biso   1.000  O
  O183     1.0000 0.89042  0.64590  0.60310  Biso   1.000  O
  O184     1.0000 0.84360  0.56620  0.60647  Biso   1.000  O
  O185     1.0000 0.76620  0.89380  0.55273  Biso   1.000  O
  O186     1.0000 0.75570  0.96230  0.57806  Biso   1.000  O
  N73      1.0000 0.48960  0.70080  0.82713  Biso   1.000  N
  H649     1.0000 0.48610  0.72020  0.84380  Biso   1.000  H
  H650     1.0000 0.45690  0.68370  0.82400  Biso   1.000  H
  N74      1.0000 0.43990  0.80390  0.81052  Biso   1.000  N
  H651     1.0000 0.40890  0.78310  0.81230  Biso   1.000  H
  H652     1.0000 0.44970  0.81510  0.82860  Biso   1.000  H
  N75      1.0000 0.78820  0.84230  0.81017  Biso   1.000  N
  H653     1.0000 0.82210  0.82930  0.81480  Biso   1.000  H
  H654     1.0000 0.78660  0.87830  0.81540  Biso   1.000  H
  N76      1.0000 0.84700  0.86860  0.75886  Biso   1.000  N
  H655     1.0000 0.84680  0.90300  0.76660  Biso   1.000  H
  H656     1.0000 0.87290  0.84900  0.76860  Biso   1.000  H
  N77      1.0000 0.59930  0.02680  0.69701  Biso   1.000  N
  H657     1.0000 0.59890  0.04860  0.68110  Biso   1.000  H
  H658     1.0000 0.57710  0.04270  0.71050  Biso   1.000  H
  N78      1.0000 0.50410  0.98720  0.66428  Biso   1.000  N
  H659     1.0000 0.49210  0.01760  0.67380  Biso   1.000  H
  H660     1.0000 0.51600  0.99780  0.64650  Biso   1.000  H
  N79      1.0000 0.39710  0.66810  0.66044  Biso   1.000  N
  H661     1.0000 0.37690  0.67740  0.64470  Biso   1.000  H
  H662     1.0000 0.39320  0.63130  0.66320  Biso   1.000  H
  N80      1.0000 0.46760  0.65640  0.61174  Biso   1.000  N
  H663     1.0000 0.45660  0.62070  0.61260  Biso   1.000  H
  H664     1.0000 0.44020  0.67590  0.60320  Biso   1.000  H
  N81      1.0000 0.66270  0.49590  0.71799  Biso   1.000  N
  H665     1.0000 0.69320  0.47540  0.71450  Biso   1.000  H
  H666     1.0000 0.64410  0.47970  0.73280  Biso   1.000  H
  N82      1.0000 0.74070  0.54210  0.75924  Biso   1.000  N
  H667     1.0000 0.72470  0.51350  0.76870  Biso   1.000  H
  H668     1.0000 0.76990  0.52830  0.74930  Biso   1.000  H
  N83      1.0000 0.79720  0.70704  0.60626  Biso   1.000  N
  H669     1.0000 0.79120  0.70750  0.58690  Biso   1.000  H
  H670     1.0000 0.83210  0.71930  0.60910  Biso   1.000  H
  N84      1.0000 0.76390  0.81930  0.59520  Biso   1.000  N
  H671     1.0000 0.80050  0.81710  0.59130  Biso   1.000  H
  H672     1.0000 0.74580  0.81060  0.57860  Biso   1.000  H
  C367     1.0000 0.54500  0.63680  0.80125  Biso   1.000  C
  C368     1.0000 0.52970  0.65910  0.83210  Biso   1.000  C
  H673     1.0000 0.56240  0.67450  0.84180  Biso   1.000  H
  C369     1.0000 0.50490  0.61450  0.84971  Biso   1.000  C
  C370     1.0000 0.50530  0.60120  0.78867  Biso   1.000  C
  H674     1.0000 0.51820  0.58910  0.76990  Biso   1.000  H
  H675     1.0000 0.47080  0.62060  0.78650  Biso   1.000  H
  H676     1.0000 0.49990  0.56950  0.80110  Biso   1.000  H
  C371     1.0000 0.60420  0.60490  0.80580  Biso   1.000  C
  H677     1.0000 0.63060  0.62990  0.81440  Biso   1.000  H
  H678     1.0000 0.61790  0.59250  0.78720  Biso   1.000  H
  H679     1.0000 0.59910  0.57350  0.81840  Biso   1.000  H
  C372     1.0000 0.47900  0.88010  0.78118  Biso   1.000  C
  C373     1.0000 0.42630  0.85360  0.79291  Biso   1.000  C
  H680     1.0000 0.40080  0.84430  0.77700  Biso   1.000  H
  C374     1.0000 0.39870  0.88940  0.81495  Biso   1.000  C
  C375     1.0000 0.51520  0.90280  0.80469  Biso   1.000  C
  H681     1.0000 0.52050  0.87510  0.81950  Biso   1.000  H
  H682     1.0000 0.49800  0.93490  0.81310  Biso   1.000  H
  H683     1.0000 0.55050  0.91300  0.79660  Biso   1.000  H
  C376     1.0000 0.46760  0.92060  0.75741  Biso   1.000  C
  H684     1.0000 0.44410  0.90370  0.74300  Biso   1.000  H
  H685     1.0000 0.50190  0.93160  0.74850  Biso   1.000  H
  H686     1.0000 0.44940  0.95260  0.76540  Biso   1.000  H
  C377     1.0000 0.68830  0.82920  0.81570  Biso   1.000  C
  C378     1.0000 0.74590  0.81090  0.82557  Biso   1.000  C
  H687     1.0000 0.75130  0.77080  0.82380  Biso   1.000  H
  C379     1.0000 0.74980  0.83200  0.85919  Biso   1.000  C
  C380     1.0000 0.67480  0.89210  0.81687  Biso   1.000  C
  H688     1.0000 0.63710  0.89800  0.81090  Biso   1.000  H
  H689     1.0000 0.69930  0.91180  0.80400  Biso   1.000  H
  H690     1.0000 0.67970  0.90540  0.83640  Biso   1.000  H
  C381     1.0000 0.63990  0.79760  0.82879  Biso   1.000  C
  H691     1.0000 0.60570  0.81230  0.82130  Biso   1.000  H
  H692     1.0000 0.64050  0.80150  0.84960  Biso   1.000  H
  H693     1.0000 0.64290  0.75910  0.82370  Biso   1.000  H
  C382     1.0000 0.84390  0.82710  0.71307  Biso   1.000  C
  C383     1.0000 0.86520  0.87370  0.72932  Biso   1.000  C
  H694     1.0000 0.84770  0.90700  0.72130  Biso   1.000  H
  C384     1.0000 0.92790  0.88390  0.72911  Biso   1.000  C
  C385     1.0000 0.87390  0.77660  0.72210  Biso   1.000  C
  H695     1.0000 0.86120  0.74560  0.71070  Biso   1.000  H
  H696     1.0000 0.86720  0.76950  0.74240  Biso   1.000  H
  H697     1.0000 0.91300  0.78170  0.71900  Biso   1.000  H
  C386     1.0000 0.65660  0.98210  0.73106  Biso   1.000  C
  C387     1.0000 0.65210  0.02540  0.70770  Biso   1.000  C
  H698     1.0000 0.67780  0.01630  0.69190  Biso   1.000  H
  C388     1.0000 0.66410  0.08420  0.71840  Biso   1.000  C
  C389     1.0000 0.61990  0.99520  0.75498  Biso   1.000  C
  H699     1.0000 0.62180  0.96630  0.76940  Biso   1.000  H
  H700     1.0000 0.58250  0.99820  0.74790  Biso   1.000  H
  H701     1.0000 0.63080  0.02980  0.76360  Biso   1.000  H
  C390     1.0000 0.71700  0.97030  0.74246  Biso   1.000  C
  H702     1.0000 0.74060  0.96130  0.72630  Biso   1.000  H
  H703     1.0000 0.71610  0.93970  0.75580  Biso   1.000  H
  H704     1.0000 0.73100  0.00260  0.75220  Biso   1.000  H
  C391     1.0000 0.47630  0.89300  0.64870  Biso   1.000  C
  C392     1.0000 0.45740  0.94770  0.66091  Biso   1.000  C
  H705     1.0000 0.44120  0.94110  0.68020  Biso   1.000  H
  C393     1.0000 0.52270  0.91510  0.89248  Biso   1.000  C
  C394     1.0000 0.49810  0.90190  0.61820  Biso   1.000  C
  H706     1.0000 0.52660  0.92970  0.61850  Biso   1.000  H
  H707     1.0000 0.46840  0.91400  0.60580  Biso   1.000  H
  H708     1.0000 0.51310  0.86780  0.61090  Biso   1.000  H
  C395     1.0000 0.43390  0.85030  0.65016  Biso   1.000  C
  H709     1.0000 0.44820  0.81650  0.64200  Biso   1.000  H
  H710     1.0000 0.40200  0.86190  0.63930  Biso   1.000  H
  H711     1.0000 0.42360  0.84420  0.67010  Biso   1.000  H
  C396     1.0000 0.41500  0.68720  0.71120  Biso   1.000  C
  C397     1.0000 0.37510  0.69640  0.68520  Biso   1.000  C
  H712     1.0000 0.37330  0.73610  0.68090  Biso   1.000  H
  C398     1.0000 0.31610  0.67490  0.69138  Biso   1.000  C
  C399     1.0000 0.42130  0.63140  0.71756  Biso   1.000  C
  H713     1.0000 0.43120  0.61160  0.70010  Biso   1.000  H
  H714     1.0000 0.38700  0.61690  0.72510  Biso   1.000  H
  H715     1.0000 0.45000  0.62680  0.73190  Biso   1.000  H
  C400     1.0000 0.39920  0.72210  0.73641  Biso   1.000  C
  H716     1.0000 0.39610  0.76010  0.73030  Biso   1.000  H
  H717     1.0000 0.42710  0.71910  0.75130  Biso   1.000  H
  H718     1.0000 0.36420  0.70980  0.74400  Biso   1.000  H
  C401     1.0000 0.55440  0.70660  0.59915  Biso   1.000  C
  C402     1.0000 0.51960  0.65980  0.59240  Biso   1.000  C
  H719     1.0000 0.54170  0.62680  0.59710  Biso   1.000  H
  C403     1.0000 0.50060  0.65190  0.56118  Biso   1.000  C
  C404     1.0000 0.52720  0.75360  0.58960  Biso   1.000  C
  H720     1.0000 0.49080  0.75490  0.59800  Biso   1.000  H
  H721     1.0000 0.52430  0.75270  0.56870  Biso   1.000  H
  H722     1.0000 0.54780  0.78590  0.59540  Biso   1.000  H
  C405     1.0000 0.60760  0.69830  0.58700  Biso   1.000  C
  H723     1.0000 0.62260  0.66380  0.59400  Biso   1.000  H
  H724     1.0000 0.63160  0.72820  0.59270  Biso   1.000  H
  H725     1.0000 0.60480  0.69710  0.56610  Biso   1.000  H
  C406     1.0000 0.58330  0.53760  0.69436  Biso   1.000  C
  C407     1.0000 0.62650  0.49550  0.69115  Biso   1.000  C
  H726     1.0000 0.64920  0.50420  0.67400  Biso   1.000  H
  C408     1.0000 0.60150  0.43680  0.68761  Biso   1.000  C
  C409     1.0000 0.54630  0.52700  0.72261  Biso   1.000  C
  H727     1.0000 0.51840  0.55520  0.72400  Biso   1.000  H
  H728     1.0000 0.56940  0.52810  0.73970  Biso   1.000  H
  H729     1.0000 0.52890  0.49130  0.72120  Biso   1.000  H
  C410     1.0000 0.54410  0.54070  0.66841  Biso   1.000  C
  H730     1.0000 0.51690  0.56910  0.67180  Biso   1.000  H
  H731     1.0000 0.52580  0.50570  0.66590  Biso   1.000  H
  H732     1.0000 0.56480  0.54940  0.65110  Biso   1.000  H
  C411     1.0000 0.77780  0.63370  0.76790  Biso   1.000  C
  C412     1.0000 0.76160  0.58140  0.78099  Biso   1.000  C
  H733     1.0000 0.72990  0.59000  0.79360  Biso   1.000  H
  C413     1.0000 0.30580  0.94010  0.94923  Biso   1.000  C
  C414     1.0000 0.82710  0.62370  0.74823  Biso   1.000  C
  H734     1.0000 0.83860  0.65820  0.73970  Biso   1.000  H
  H735     1.0000 0.81700  0.59810  0.73310  Biso   1.000  H
  H736     1.0000 0.85710  0.60850  0.75940  Biso   1.000  H
  C415     1.0000 0.78640  0.68020  0.78739  Biso   1.000  C
  H737     1.0000 0.79820  0.71190  0.77630  Biso   1.000  H
  H738     1.0000 0.81430  0.67090  0.80150  Biso   1.000  H
  H739     1.0000 0.75230  0.68870  0.79730  Biso   1.000  H
  C416     1.0000 0.78760  0.64870  0.64769  Biso   1.000  C
  C417     1.0000 0.79550  0.65070  0.61540  Biso   1.000  C
  H740     1.0000 0.76430  0.63200  0.60590  Biso   1.000  H
  C418     1.0000 0.84910  0.62160  0.60703  Biso   1.000  C
  C419     1.0000 0.83700  0.66590  0.66355  Biso   1.000  C
  H741     1.0000 0.83020  0.66360  0.68410  Biso   1.000  H
  H742     1.0000 0.84600  0.70350  0.65850  Biso   1.000  H
  H743     1.0000 0.86750  0.64210  0.65850  Biso   1.000  H
  C420     1.0000 0.76960  0.59280  0.65890  Biso   1.000  C
  H744     1.0000 0.76580  0.59430  0.67970  Biso   1.000  H
  H745     1.0000 0.79690  0.56540  0.65380  Biso   1.000  H
  H746     1.0000 0.73460  0.58290  0.65030  Biso   1.000  H
  C421     1.0000 0.68960  0.87190  0.61091  Biso   1.000  C
  C422     1.0000 0.75140  0.87810  0.60181  Biso   1.000  C
  H747     1.0000 0.77320  0.88970  0.61880  Biso   1.000  H
  C423     1.0000 0.75820  0.92090  0.57747  Biso   1.000  C
  C424     1.0000 0.65180  0.85640  0.58833  Biso   1.000  C
  H748     1.0000 0.61490  0.85430  0.59620  Biso   1.000  H
  H749     1.0000 0.66210  0.82080  0.58060  Biso   1.000  H
  H750     1.0000 0.65280  0.88360  0.57300  Biso   1.000  H
  C425     1.0000 0.67430  0.93060  0.62160  Biso   1.000  C
  H751     1.0000 0.69960  0.94180  0.63670  Biso   1.000  H
  H752     1.0000 0.63720  0.93040  0.62920  Biso   1.000  H
  H753     1.0000 0.67660  0.95620  0.60560  Biso   1.000  H
  O187     1.0000 0.43590  0.91300  0.93713  Biso   1.000  O
  O188     1.0000 0.41600  0.83710  0.91991  Biso   1.000  O
  C426     1.0000 0.43950  0.86750  0.94050  Biso   1.000  C
  C427     1.0000 0.46540  0.85050  0.96500  Biso   1.000  C
  H754     1.0000 0.46610  0.81070  0.96550  Biso   1.000  H
  H755     1.0000 0.44580  0.86420  0.98170  Biso   1.000  H
  H756     1.0000 0.50270  0.86450  0.96510  Biso   1.000  H
  La44     1.0000 0.02731  0.93444  0.70650  Biso   1.000  La
  La45     1.0000 0.81820  0.49310  0.71268  Biso   1.000  La
  La46     1.0000 0.64370  0.21480  0.74505  Biso   1.000  La
  La47     1.0000 0.76840  0.83380  0.50376  Biso   1.000  La
  La48     1.0000 0.06060  0.86370  0.76120  Biso   1.000  La
  La49     1.0000 0.72330  0.18730  0.77680  Biso   1.000  La
  O189     1.0000 0.71320  0.78780  0.45380  Biso   1.000  O
  Pt43     1.0000 0.49995  0.24390  0.29475  Biso   1.000  Pt
  Pt44     1.0000 0.22458  0.16488  0.26719  Biso   1.000  Pt
  Pt45     1.0000 0.43245  0.04667  0.18644  Biso   1.000  Pt
  Pt46     1.0000 0.52245  0.31582  0.15192  Biso   1.000  Pt
  Pt47     1.0000 0.31389  0.42817  0.23039  Biso   1.000  Pt
  Pt48     1.0000 0.25333  0.23845  0.12386  Biso   1.000  Pt
  Ag57     1.0000 0.34056  0.28360  0.27011  Biso   1.000  Ag
  Ag58     1.0000 0.38946  0.15084  0.24883  Biso   1.000  Ag
  Ag59     1.0000 0.50008  0.18943  0.21108  Biso   1.000  Ag
  Ag60     1.0000 0.44044  0.32700  0.22578  Biso   1.000  Ag
  Ag61     1.0000 0.26375  0.27127  0.20742  Biso   1.000  Ag
  Ag62     1.0000 0.28830  0.12604  0.18731  Biso   1.000  Ag
  Ag63     1.0000 0.40611  0.20162  0.15417  Biso   1.000  Ag
  Ag64     1.0000 0.35955  0.35240  0.15420  Biso   1.000  Ag
  La50     1.0000 0.61830  0.08108  0.38721  Biso   1.000  La
  S85      1.0000 0.43730  0.30381  0.27896  Biso   1.000  S
  S86      1.0000 0.48444  0.17534  0.26341  Biso   1.000  S
  S87      1.0000 0.30974  0.18807  0.27712  Biso   1.000  S
  S88      1.0000 0.22747  0.18015  0.21925  Biso   1.000  S
  S89      1.0000 0.36311  0.07917  0.21314  Biso   1.000  S
  S90      1.0000 0.46802  0.12684  0.17280  Biso   1.000  S
  S91      1.0000 0.51900  0.28621  0.19765  Biso   1.000  S
  S92      1.0000 0.43784  0.29406  0.13841  Biso   1.000  S
  S93      1.0000 0.38074  0.39748  0.20157  Biso   1.000  S
  S94      1.0000 0.28100  0.34644  0.24384  Biso   1.000  S
  S95      1.0000 0.26927  0.30477  0.15653  Biso   1.000  S
  S96      1.0000 0.30995  0.17435  0.14076  Biso   1.000  S
  O190     1.0000 0.53740  0.39260  0.35296  Biso   1.000  O
  O191     1.0000 0.45870  0.41150  0.36434  Biso   1.000  O
  O192     1.0000 0.60500  0.11727  0.33871  Biso   1.000  O
  O193     1.0000 0.62550  0.06460  0.29898  Biso   1.000  O
  O194     1.0000 0.22650  0.13090  0.36420  Biso   1.000  O
  O195     1.0000 0.27100  0.20160  0.37584  Biso   1.000  O
  O196     1.0000 0.04540  0.14090  0.24766  Biso   1.000  O
  O197     1.0000 0.04980  0.09820  0.20713  Biso   1.000  O
  O198     1.0000 0.37260  0.88575  0.22742  Biso   1.000  O
  O199     1.0000 0.28910  0.89890  0.22106  Biso   1.000  O
  O200     1.0000 0.51967  0.07444  0.37986  Biso   1.000  O
  O201     1.0000 0.45466  0.13118  0.39353  Biso   1.000  O
  O202     1.0000 0.69848  0.36762  0.18304  Biso   1.000  O
  O203     1.0000 0.71085  0.29000  0.20517  Biso   1.000  O
  O204     1.0000 0.54780  0.32830  0.05482  Biso   1.000  O
  O205     1.0000 0.46780  0.36390  0.04348  Biso   1.000  O
  O206     1.0000 0.40860  0.59090  0.20685  Biso   1.000  O
  O207     1.0000 0.40790  0.57500  0.16000  Biso   1.000  O
  O208     1.0000 0.66996  0.01300  0.45807  Biso   1.000  O
  O209     1.0000 0.68569  0.08127  0.42742  Biso   1.000  O
  O210     1.0000 0.10958  0.35410  0.10310  Biso   1.000  O
  O211     1.0000 0.15640  0.43380  0.10647  Biso   1.000  O
  O212     1.0000 0.23380  0.10620  0.05273  Biso   1.000  O
  O213     1.0000 0.24430  0.03770  0.07806  Biso   1.000  O
  N85      1.0000 0.51040  0.29920  0.32713  Biso   1.000  N
  H757     1.0000 0.51390  0.27980  0.34380  Biso   1.000  H
  H758     1.0000 0.54310  0.31630  0.32400  Biso   1.000  H
  N86      1.0000 0.56010  0.19610  0.31052  Biso   1.000  N
  H759     1.0000 0.59110  0.21690  0.31230  Biso   1.000  H
  H760     1.0000 0.55030  0.18490  0.32860  Biso   1.000  H
  N87      1.0000 0.21180  0.15770  0.31017  Biso   1.000  N
  H761     1.0000 0.17790  0.17070  0.31480  Biso   1.000  H
  H762     1.0000 0.21340  0.12170  0.31540  Biso   1.000  H
  N88      1.0000 0.15300  0.13140  0.25886  Biso   1.000  N
  H763     1.0000 0.15320  0.09700  0.26660  Biso   1.000  H
  H764     1.0000 0.12710  0.15100  0.26860  Biso   1.000  H
  N89      1.0000 0.40070  0.97320  0.19701  Biso   1.000  N
  H765     1.0000 0.40110  0.95140  0.18110  Biso   1.000  H
  H766     1.0000 0.42290  0.95730  0.21050  Biso   1.000  H
  N90      1.0000 0.49590  0.01280  0.16428  Biso   1.000  N
  H767     1.0000 0.50790  0.98240  0.17380  Biso   1.000  H
  H768     1.0000 0.48400  0.00220  0.14650  Biso   1.000  H
  N91      1.0000 0.60290  0.33190  0.16044  Biso   1.000  N
  H769     1.0000 0.62310  0.32260  0.14470  Biso   1.000  H
  H770     1.0000 0.60680  0.36870  0.16320  Biso   1.000  H
  N92      1.0000 0.53240  0.34360  0.11174  Biso   1.000  N
  H771     1.0000 0.54340  0.37930  0.11260  Biso   1.000  H
  H772     1.0000 0.55980  0.32410  0.10320  Biso   1.000  H
  N93      1.0000 0.33730  0.50410  0.21799  Biso   1.000  N
  H773     1.0000 0.30680  0.52460  0.21450  Biso   1.000  H
  H774     1.0000 0.35590  0.52030  0.23280  Biso   1.000  H
  N94      1.0000 0.25930  0.45790  0.25924  Biso   1.000  N
  H775     1.0000 0.27530  0.48650  0.26870  Biso   1.000  H
  H776     1.0000 0.23010  0.47170  0.24930  Biso   1.000  H
  N95      1.0000 0.20280  0.29296  0.10626  Biso   1.000  N
  H777     1.0000 0.20880  0.29250  0.08690  Biso   1.000  H
  H778     1.0000 0.16790  0.28070  0.10910  Biso   1.000  H
  N96      1.0000 0.23610  0.18070  0.09520  Biso   1.000  N
  H779     1.0000 0.19950  0.18290  0.09130  Biso   1.000  H
  H780     1.0000 0.25420  0.18940  0.07860  Biso   1.000  H
  C428     1.0000 0.45500  0.36320  0.30125  Biso   1.000  C
  C429     1.0000 0.47030  0.34090  0.33210  Biso   1.000  C
  H781     1.0000 0.43760  0.32550  0.34180  Biso   1.000  H
  C430     1.0000 0.49510  0.38550  0.34971  Biso   1.000  C
  C431     1.0000 0.49470  0.39880  0.28867  Biso   1.000  C
  H782     1.0000 0.48180  0.41090  0.26990  Biso   1.000  H
  H783     1.0000 0.52920  0.37940  0.28650  Biso   1.000  H
  H784     1.0000 0.50010  0.43050  0.30110  Biso   1.000  H
  C432     1.0000 0.39580  0.39510  0.30580  Biso   1.000  C
  H785     1.0000 0.36940  0.37010  0.31440  Biso   1.000  H
  H786     1.0000 0.38210  0.40750  0.28720  Biso   1.000  H
  H787     1.0000 0.40090  0.42650  0.31840  Biso   1.000  H
  C433     1.0000 0.52100  0.11990  0.28118  Biso   1.000  C
  C434     1.0000 0.57370  0.14640  0.29291  Biso   1.000  C
  H788     1.0000 0.59920  0.15570  0.27700  Biso   1.000  H
  C435     1.0000 0.60130  0.11060  0.31495  Biso   1.000  C
  C436     1.0000 0.48480  0.09720  0.30469  Biso   1.000  C
  H789     1.0000 0.47950  0.12490  0.31950  Biso   1.000  H
  H790     1.0000 0.50200  0.06510  0.31310  Biso   1.000  H
  H791     1.0000 0.44950  0.08700  0.29660  Biso   1.000  H
  C437     1.0000 0.53240  0.07940  0.25741  Biso   1.000  C
  H792     1.0000 0.55590  0.09630  0.24300  Biso   1.000  H
  H793     1.0000 0.49810  0.06840  0.24850  Biso   1.000  H
  H794     1.0000 0.55060  0.04740  0.26540  Biso   1.000  H
  C438     1.0000 0.31170  0.17080  0.31570  Biso   1.000  C
  C439     1.0000 0.25410  0.18910  0.32557  Biso   1.000  C
  H795     1.0000 0.24870  0.22920  0.32380  Biso   1.000  H
  C440     1.0000 0.25020  0.16800  0.35919  Biso   1.000  C
  C441     1.0000 0.32520  0.10790  0.31687  Biso   1.000  C
  H796     1.0000 0.36290  0.10200  0.31090  Biso   1.000  H
  H797     1.0000 0.30070  0.08820  0.30400  Biso   1.000  H
  H798     1.0000 0.32030  0.09460  0.33640  Biso   1.000  H
  C442     1.0000 0.36010  0.20240  0.32879  Biso   1.000  C
  H799     1.0000 0.39430  0.18770  0.32130  Biso   1.000  H
  H800     1.0000 0.35950  0.19850  0.34960  Biso   1.000  H
  H801     1.0000 0.35710  0.24090  0.32370  Biso   1.000  H
  C443     1.0000 0.15610  0.17290  0.21307  Biso   1.000  C
  C444     1.0000 0.13480  0.12630  0.22932  Biso   1.000  C
  H802     1.0000 0.15230  0.09300  0.22130  Biso   1.000  H
  C445     1.0000 0.07210  0.11610  0.22911  Biso   1.000  C
  C446     1.0000 0.12610  0.22340  0.22210  Biso   1.000  C
  H803     1.0000 0.13880  0.25440  0.21070  Biso   1.000  H
  H804     1.0000 0.13280  0.23050  0.24240  Biso   1.000  H
  H805     1.0000 0.08700  0.21830  0.21900  Biso   1.000  H
  C447     1.0000 0.34340  0.01790  0.23106  Biso   1.000  C
  C448     1.0000 0.34790  0.97460  0.20770  Biso   1.000  C
  H806     1.0000 0.32220  0.98370  0.19190  Biso   1.000  H
  C449     1.0000 0.33590  0.91580  0.21840  Biso   1.000  C
  C450     1.0000 0.38010  0.00480  0.25498  Biso   1.000  C
  H807     1.0000 0.37820  0.03370  0.26940  Biso   1.000  H
  H808     1.0000 0.41750  0.00180  0.24790  Biso   1.000  H
  H809     1.0000 0.36920  0.97020  0.26360  Biso   1.000  H
  C451     1.0000 0.28300  0.02970  0.24246  Biso   1.000  C
  H810     1.0000 0.25940  0.03870  0.22630  Biso   1.000  H
  H811     1.0000 0.28390  0.06030  0.25580  Biso   1.000  H
  H812     1.0000 0.26900  0.99740  0.25220  Biso   1.000  H
  C452     1.0000 0.52370  0.10700  0.14870  Biso   1.000  C
  C453     1.0000 0.54260  0.05230  0.16091  Biso   1.000  C
  H813     1.0000 0.55880  0.05890  0.18020  Biso   1.000  H
  C454     1.0000 0.47730  0.08490  0.39248  Biso   1.000  C
  C455     1.0000 0.50190  0.09810  0.11820  Biso   1.000  C
  H814     1.0000 0.47340  0.07030  0.11850  Biso   1.000  H
  H815     1.0000 0.53160  0.08600  0.10580  Biso   1.000  H
  H816     1.0000 0.48690  0.13220  0.11090  Biso   1.000  H
  C456     1.0000 0.56610  0.14970  0.15016  Biso   1.000  C
  H817     1.0000 0.55180  0.18350  0.14200  Biso   1.000  H
  H818     1.0000 0.59800  0.13810  0.13930  Biso   1.000  H
  H819     1.0000 0.57640  0.15580  0.17010  Biso   1.000  H
  C457     1.0000 0.58500  0.31280  0.21120  Biso   1.000  C
  C458     1.0000 0.62490  0.30360  0.18520  Biso   1.000  C
  H820     1.0000 0.62670  0.26390  0.18090  Biso   1.000  H
  C459     1.0000 0.68390  0.32510  0.19138  Biso   1.000  C
  C460     1.0000 0.57870  0.36860  0.21756  Biso   1.000  C
  H821     1.0000 0.56880  0.38840  0.20010  Biso   1.000  H
  H822     1.0000 0.61300  0.38310  0.22510  Biso   1.000  H
  H823     1.0000 0.55000  0.37320  0.23190  Biso   1.000  H
  C461     1.0000 0.60080  0.27790  0.23641  Biso   1.000  C
  H824     1.0000 0.60390  0.23990  0.23030  Biso   1.000  H
  H825     1.0000 0.57290  0.28090  0.25130  Biso   1.000  H
  H826     1.0000 0.63580  0.29020  0.24400  Biso   1.000  H
  C462     1.0000 0.44560  0.29340  0.09915  Biso   1.000  C
  C463     1.0000 0.48040  0.34020  0.09240  Biso   1.000  C
  H827     1.0000 0.45830  0.37320  0.09710  Biso   1.000  H
  C464     1.0000 0.49940  0.34810  0.06118  Biso   1.000  C
  C465     1.0000 0.47280  0.24640  0.08960  Biso   1.000  C
  H828     1.0000 0.50920  0.24510  0.09800  Biso   1.000  H
  H829     1.0000 0.47570  0.24730  0.06870  Biso   1.000  H
  H830     1.0000 0.45220  0.21410  0.09540  Biso   1.000  H
  C466     1.0000 0.39240  0.30170  0.08700  Biso   1.000  C
  H831     1.0000 0.37740  0.33620  0.09400  Biso   1.000  H
  H832     1.0000 0.36840  0.27180  0.09270  Biso   1.000  H
  H833     1.0000 0.39520  0.30290  0.06610  Biso   1.000  H
  C467     1.0000 0.41670  0.46240  0.19436  Biso   1.000  C
  C468     1.0000 0.37350  0.50450  0.19115  Biso   1.000  C
  H834     1.0000 0.35080  0.49580  0.17400  Biso   1.000  H
  C469     1.0000 0.39850  0.56320  0.18761  Biso   1.000  C
  C470     1.0000 0.45370  0.47300  0.22261  Biso   1.000  C
  H835     1.0000 0.48160  0.44480  0.22400  Biso   1.000  H
  H836     1.0000 0.43060  0.47190  0.23970  Biso   1.000  H
  H837     1.0000 0.47110  0.50870  0.22120  Biso   1.000  H
  C471     1.0000 0.45590  0.45930  0.16841  Biso   1.000  C
  H838     1.0000 0.48310  0.43090  0.17180  Biso   1.000  H
  H839     1.0000 0.47420  0.49430  0.16590  Biso   1.000  H
  H840     1.0000 0.43520  0.45060  0.15110  Biso   1.000  H
  C472     1.0000 0.22220  0.36630  0.26790  Biso   1.000  C
  C473     1.0000 0.23840  0.41860  0.28099  Biso   1.000  C
  H841     1.0000 0.27010  0.41000  0.29360  Biso   1.000  H
  C474     1.0000 0.69420  0.05990  0.44923  Biso   1.000  C
  C475     1.0000 0.17290  0.37630  0.24823  Biso   1.000  C
  H842     1.0000 0.16140  0.34180  0.23970  Biso   1.000  H
  H843     1.0000 0.18300  0.40190  0.23310  Biso   1.000  H
  H844     1.0000 0.14290  0.39150  0.25940  Biso   1.000  H
  C476     1.0000 0.21360  0.31980  0.28739  Biso   1.000  C
  H845     1.0000 0.20180  0.28810  0.27630  Biso   1.000  H
  H846     1.0000 0.18570  0.32910  0.30150  Biso   1.000  H
  H847     1.0000 0.24770  0.31130  0.29730  Biso   1.000  H
  C477     1.0000 0.21240  0.35130  0.14769  Biso   1.000  C
  C478     1.0000 0.20450  0.34930  0.11540  Biso   1.000  C
  H848     1.0000 0.23570  0.36800  0.10590  Biso   1.000  H
  C479     1.0000 0.15090  0.37840  0.10703  Biso   1.000  C
  C480     1.0000 0.16300  0.33410  0.16355  Biso   1.000  C
  H849     1.0000 0.16980  0.33640  0.18410  Biso   1.000  H
  H850     1.0000 0.15400  0.29650  0.15850  Biso   1.000  H
  H851     1.0000 0.13250  0.35790  0.15850  Biso   1.000  H
  C481     1.0000 0.23040  0.40720  0.15890  Biso   1.000  C
  H852     1.0000 0.23420  0.40570  0.17970  Biso   1.000  H
  H853     1.0000 0.20310  0.43460  0.15380  Biso   1.000  H
  H854     1.0000 0.26540  0.41710  0.15030  Biso   1.000  H
  C482     1.0000 0.31040  0.12810  0.11091  Biso   1.000  C
  C483     1.0000 0.24860  0.12190  0.10181  Biso   1.000  C
  H855     1.0000 0.22680  0.11030  0.11880  Biso   1.000  H
  C484     1.0000 0.24180  0.07910  0.07747  Biso   1.000  C
  C485     1.0000 0.34820  0.14360  0.08833  Biso   1.000  C
  H856     1.0000 0.38510  0.14570  0.09620  Biso   1.000  H
  H857     1.0000 0.33790  0.17920  0.08060  Biso   1.000  H
  H858     1.0000 0.34720  0.11640  0.07300  Biso   1.000  H
  C486     1.0000 0.32570  0.06940  0.12160  Biso   1.000  C
  H859     1.0000 0.30040  0.05820  0.13670  Biso   1.000  H
  H860     1.0000 0.36280  0.06960  0.12920  Biso   1.000  H
  H861     1.0000 0.32340  0.04380  0.10560  Biso   1.000  H
  O214     1.0000 0.56410  0.08700  0.43713  Biso   1.000  O
  O215     1.0000 0.58400  0.16290  0.41991  Biso   1.000  O
  C487     1.0000 0.56050  0.13250  0.44050  Biso   1.000  C
  C488     1.0000 0.53460  0.14950  0.46500  Biso   1.000  C
  H862     1.0000 0.53390  0.18930  0.46550  Biso   1.000  H
  H863     1.0000 0.55420  0.13580  0.48170  Biso   1.000  H
  H864     1.0000 0.49730  0.13550  0.46510  Biso   1.000  H
  La51     1.0000 0.97269  0.06556  0.20650  Biso   1.000  La
  La52     1.0000 0.18180  0.50690  0.21268  Biso   1.000  La
  La53     1.0000 0.35630  0.78520  0.24505  Biso   1.000  La
  La54     1.0000 0.23160  0.16620  0.00376  Biso   1.000  La
  La55     1.0000 0.93940  0.13630  0.26120  Biso   1.000  La
  La56     1.0000 0.27670  0.81270  0.27680  Biso   1.000  La
  O216     1.0000 0.28680  0.21220  0.95380  Biso   1.000  O
  O217     1.0000 0.95940  0.04060  0.25000  Biso   1.000  O
  O218     1.0000 0.04060  0.95940  0.75000  Biso   1.000  O
  O219     1.0000 0.45940  0.45940  0.50000  Biso   1.000  O
  O220     1.0000 0.54060  0.54060  0.00000  Biso   1.000  O
