data_image0
_cell_length_a       24.8446
_cell_length_b       24.8446
_cell_length_c       47.2409
_cell_angle_alpha    90
_cell_angle_beta     90
_cell_angle_gamma    90

_symmetry_space_group_name_H-M    "P 1"
_symmetry_int_tables_number       1

loop_
  _symmetry_equiv_pos_as_xyz
  'x, y, z'

loop_
  _atom_site_label
  _atom_site_occupancy
  _atom_site_fract_x
  _atom_site_fract_y
  _atom_site_fract_z
  _atom_site_thermal_displace_type
  _atom_site_B_iso_or_equiv
  _atom_site_type_symbol
  Ag1      1.0000 0.71720  0.65550  0.22789  Biso   1.000  Ag
  Ag2      1.0000 0.85082  0.60959  0.24873  Biso   1.000  Ag
  Ag3      1.0000 0.81454  0.49703  0.28683  Biso   1.000  Ag
  Ag4      1.0000 0.67537  0.55643  0.27239  Biso   1.000  Ag
  Ag5      1.0000 0.72863  0.73580  0.28925  Biso   1.000  Ag
  Ag6      1.0000 0.87506  0.71523  0.31008  Biso   1.000  Ag
  Ag7      1.0000 0.80243  0.59222  0.34406  Biso   1.000  Ag
  Ag8      1.0000 0.65343  0.63979  0.34365  Biso   1.000  Ag
  Pd1      1.0000 0.75874  0.49601  0.20444  Biso   1.000  Pd
  Pd2      1.0000 0.83499  0.77235  0.22866  Biso   1.000  Pd
  Pd3      1.0000 0.95508  0.57007  0.31237  Biso   1.000  Pd
  Pd4      1.0000 0.68848  0.47579  0.34586  Biso   1.000  Pd
  Pd5      1.0000 0.57371  0.68346  0.26938  Biso   1.000  Pd
  Pd6      1.0000 0.76483  0.74709  0.37290  Biso   1.000  Pd
  Br1      1.0000 0.76445  0.62435  0.28905  Biso   1.000  Br
  La1      1.0000 0.92337  0.37738  0.11276  Biso   1.000  La
  S1       1.0000 0.69884  0.55792  0.21961  Biso   1.000  S
  S2       1.0000 0.82666  0.51457  0.23504  Biso   1.000  S
  S3       1.0000 0.81102  0.68665  0.22005  Biso   1.000  S
  S4       1.0000 0.81984  0.77179  0.27609  Biso   1.000  S
  S5       1.0000 0.91983  0.63660  0.28442  Biso   1.000  S
  S6       1.0000 0.87538  0.53139  0.32450  Biso   1.000  S
  S7       1.0000 0.71752  0.48007  0.30061  Biso   1.000  S
  S8       1.0000 0.71050  0.56002  0.35898  Biso   1.000  S
  S9       1.0000 0.60691  0.61563  0.29694  Biso   1.000  S
  S10      1.0000 0.65390  0.71516  0.25406  Biso   1.000  S
  S11      1.0000 0.69945  0.73043  0.34033  Biso   1.000  S
  S12      1.0000 0.82713  0.68834  0.35653  Biso   1.000  S
  O1       1.0000 0.60915  0.45147  0.14951  Biso   1.000  O
  O2       1.0000 0.59377  0.53560  0.13321  Biso   1.000  O
  O3       1.0000 0.88725  0.39273  0.16169  Biso   1.000  O
  O4       1.0000 0.93570  0.37410  0.19827  Biso   1.000  O
  O5       1.0000 0.87497  0.76248  0.13081  Biso   1.000  O
  O6       1.0000 0.79790  0.72280  0.12279  Biso   1.000  O
  O7       1.0000 0.85910  0.95630  0.24383  Biso   1.000  O
  O8       1.0000 0.90230  0.94200  0.28835  Biso   1.000  O
  O9       1.0000 0.11343  0.63900  0.27443  Biso   1.000  O
  O10      1.0000 0.08910  0.72040  0.27661  Biso   1.000  O
  O11      1.0000 0.93372  0.47495  0.11867  Biso   1.000  O
  O12      1.0000 0.87236  0.53607  0.10655  Biso   1.000  O
  O13      1.0000 0.63752  0.30215  0.31473  Biso   1.000  O
  O14      1.0000 0.71346  0.29044  0.29289  Biso   1.000  O
  O15      1.0000 0.67186  0.45215  0.44223  Biso   1.000  O
  O16      1.0000 0.63590  0.53071  0.45142  Biso   1.000  O
  O17      1.0000 0.41544  0.58910  0.29581  Biso   1.000  O
  O18      1.0000 0.43810  0.58580  0.34010  Biso   1.000  O
  O19      1.0000 0.98894  0.32184  0.04124  Biso   1.000  O
  O20      1.0000 0.92279  0.31006  0.07270  Biso   1.000  O
  O21      1.0000 0.64279  0.88188  0.39687  Biso   1.000  O
  O22      1.0000 0.56780  0.83844  0.38992  Biso   1.000  O
  O23      1.0000 0.89461  0.76500  0.44436  Biso   1.000  O
  O24      1.0000 0.96566  0.75589  0.41880  Biso   1.000  O
  N1       1.0000 0.70476  0.48150  0.17427  Biso   1.000  N
  H1       1.0000 0.72290  0.47550  0.15760  Biso   1.000  H
  H2       1.0000 0.68680  0.45020  0.17880  Biso   1.000  H
  N2       1.0000 0.80879  0.43568  0.18961  Biso   1.000  N
  H3       1.0000 0.78940  0.40420  0.18890  Biso   1.000  H
  H4       1.0000 0.81870  0.44410  0.17140  Biso   1.000  H
  N3       1.0000 0.84110  0.78008  0.18453  Biso   1.000  N
  H5       1.0000 0.82560  0.81200  0.17900  Biso   1.000  H
  H6       1.0000 0.87690  0.78120  0.17950  Biso   1.000  H
  N4       1.0000 0.86780  0.84940  0.23499  Biso   1.000  N
  H7       1.0000 0.90080  0.85160  0.22630  Biso   1.000  H
  H8       1.0000 0.84560  0.87490  0.22700  Biso   1.000  H
  N5       1.0000 0.02647  0.60522  0.30435  Biso   1.000  N
  H9       1.0000 0.04470  0.60890  0.32120  Biso   1.000  H
  H10      1.0000 0.04630  0.58250  0.29300  Biso   1.000  H
  N6       1.0000 0.98829  0.50938  0.33561  Biso   1.000  N
  H11      1.0000 0.02130  0.50100  0.32800  Biso   1.000  H
  H12      1.0000 0.99400  0.52170  0.35370  Biso   1.000  H
  N7       1.0000 0.67230  0.39723  0.33746  Biso   1.000  N
  H13      1.0000 0.68050  0.37720  0.35330  Biso   1.000  H
  H14      1.0000 0.63590  0.39380  0.33430  Biso   1.000  H
  N8       1.0000 0.66300  0.46735  0.38764  Biso   1.000  N
  H15      1.0000 0.62910  0.45230  0.38770  Biso   1.000  H
  H16      1.0000 0.68580  0.44390  0.39680  Biso   1.000  H
  N9       1.0000 0.49744  0.65968  0.28462  Biso   1.000  N
  H17      1.0000 0.47860  0.68980  0.29000  Biso   1.000  H
  H18      1.0000 0.47870  0.64350  0.27010  Biso   1.000  H
  N10      1.0000 0.53962  0.73893  0.24009  Biso   1.000  N
  H19      1.0000 0.51120  0.72290  0.23090  Biso   1.000  H
  H20      1.0000 0.52660  0.76830  0.24980  Biso   1.000  H
  N11      1.0000 0.70986  0.79601  0.39037  Biso   1.000  N
  H21      1.0000 0.70930  0.78890  0.40950  Biso   1.000  H
  H22      1.0000 0.72220  0.83070  0.38830  Biso   1.000  H
  N12      1.0000 0.82013  0.76826  0.40166  Biso   1.000  N
  H23      1.0000 0.82170  0.80520  0.40240  Biso   1.000  H
  H24      1.0000 0.80890  0.75640  0.41910  Biso   1.000  H
  C1       1.0000 0.63820  0.54220  0.19667  Biso   1.000  C
  C2       1.0000 0.66390  0.52480  0.16932  Biso   1.000  C
  H25      1.0000 0.68120  0.55640  0.15990  Biso   1.000  H
  C3       1.0000 0.61670  0.49880  0.14822  Biso   1.000  C
  C4       1.0000 0.60430  0.50400  0.20967  Biso   1.000  C
  H26      1.0000 0.58920  0.51930  0.22710  Biso   1.000  H
  H27      1.0000 0.62510  0.47170  0.21430  Biso   1.000  H
  H28      1.0000 0.57500  0.49460  0.19670  Biso   1.000  H
  C5       1.0000 0.60790  0.59540  0.19044  Biso   1.000  C
  H29      1.0000 0.63250  0.62110  0.18150  Biso   1.000  H
  H30      1.0000 0.59420  0.61050  0.20820  Biso   1.000  H
  H31      1.0000 0.57770  0.58810  0.17760  Biso   1.000  H
  C6       1.0000 0.88210  0.47720  0.21646  Biso   1.000  C
  C7       1.0000 0.85774  0.42604  0.20616  Biso   1.000  C
  H32      1.0000 0.84820  0.40340  0.22290  Biso   1.000  H
  C8       1.0000 0.89550  0.39480  0.18759  Biso   1.000  C
  C9       1.0000 0.89870  0.51310  0.19060  Biso   1.000  C
  H33      1.0000 0.91480  0.54670  0.19750  Biso   1.000  H
  H34      1.0000 0.86680  0.52140  0.17920  Biso   1.000  H
  H35      1.0000 0.92500  0.49380  0.17900  Biso   1.000  H
  C10      1.0000 0.92630  0.47130  0.23958  Biso   1.000  C
  H36      1.0000 0.94030  0.50700  0.24450  Biso   1.000  H
  H37      1.0000 0.95570  0.44890  0.23230  Biso   1.000  H
  H38      1.0000 0.91080  0.45440  0.25640  Biso   1.000  H
  C11      1.0000 0.83100  0.68100  0.18156  Biso   1.000  C
  C12      1.0000 0.81440  0.73460  0.16920  Biso   1.000  C
  H39      1.0000 0.77440  0.73870  0.17010  Biso   1.000  H
  C13      1.0000 0.83520  0.74380  0.13736  Biso   1.000  C
  C14      1.0000 0.89265  0.67140  0.18016  Biso   1.000  C
  H40      1.0000 0.91140  0.70190  0.18890  Biso   1.000  H
  H41      1.0000 0.90380  0.66800  0.16030  Biso   1.000  H
  H42      1.0000 0.90170  0.63830  0.19040  Biso   1.000  H
  C15      1.0000 0.80150  0.63650  0.16932  Biso   1.000  C
  H43      1.0000 0.81400  0.60260  0.17760  Biso   1.000  H
  H44      1.0000 0.80740  0.63580  0.14880  Biso   1.000  H
  H45      1.0000 0.76300  0.64100  0.17320  Biso   1.000  H
  C16      1.0000 0.82460  0.84500  0.28246  Biso   1.000  C
  C17      1.0000 0.87390  0.86060  0.26621  Biso   1.000  C
  H46      1.0000 0.90700  0.84320  0.27410  Biso   1.000  H
  C18      1.0000 0.87890  0.92590  0.26606  Biso   1.000  C
  C19      1.0000 0.76850  0.87110  0.27204  Biso   1.000  C
  H47      1.0000 0.76490  0.86640  0.25150  Biso   1.000  H
  H48      1.0000 0.76810  0.90950  0.27660  Biso   1.000  H
  H49      1.0000 0.73850  0.85310  0.28160  Biso   1.000  H
  C20      1.0000 0.82900  0.85280  0.31160  Biso   1.000  C
  H50      1.0000 0.79560  0.84130  0.32080  Biso   1.000  H
  H51      1.0000 0.83530  0.89100  0.31550  Biso   1.000  H
  H52      1.0000 0.85920  0.83150  0.31890  Biso   1.000  H
  C21      1.0000 0.98270  0.65880  0.26672  Biso   1.000  C
  C22      1.0000 0.02378  0.65920  0.29030  Biso   1.000  C
  H53      1.0000 0.01380  0.68710  0.30460  Biso   1.000  H
  C23      1.0000 0.07700  0.67220  0.27813  Biso   1.000  C
  C24      1.0000 0.99410  0.61780  0.24404  Biso   1.000  C
  H54      1.0000 0.00270  0.58320  0.25290  Biso   1.000  H
  H55      1.0000 0.02470  0.62980  0.23260  Biso   1.000  H
  H56      1.0000 0.96230  0.61380  0.23190  Biso   1.000  H
  C25      1.0000 0.96760  0.71250  0.25249  Biso   1.000  C
  H57      1.0000 0.95820  0.73900  0.26700  Biso   1.000  H
  H58      1.0000 0.93680  0.70700  0.23990  Biso   1.000  H
  H59      1.0000 0.99830  0.72570  0.24150  Biso   1.000  H
  C26      1.0000 0.89980  0.47600  0.34849  Biso   1.000  C
  C27      1.0000 0.95661  0.46070  0.33713  Biso   1.000  C
  H60      1.0000 0.95320  0.44470  0.31780  Biso   1.000  H
  C28      1.0000 0.92030  0.51150  0.10712  Biso   1.000  C
  C29      1.0000 0.90270  0.49680  0.37928  Biso   1.000  C
  H61      1.0000 0.86640  0.50580  0.38590  Biso   1.000  H
  H62      1.0000 0.92540  0.52900  0.38000  Biso   1.000  H
  H63      1.0000 0.91820  0.46880  0.39150  Biso   1.000  H
  C30      1.0000 0.85550  0.43540  0.34716  Biso   1.000  C
  H64      1.0000 0.82270  0.45070  0.35540  Biso   1.000  H
  H65      1.0000 0.86600  0.40320  0.35780  Biso   1.000  H
  H66      1.0000 0.84880  0.42560  0.32740  Biso   1.000  H
  C31      1.0000 0.69480  0.41120  0.28722  Biso   1.000  C
  C32      1.0000 0.70230  0.37360  0.31232  Biso   1.000  C
  H67      1.0000 0.74150  0.37140  0.31700  Biso   1.000  H
  C33      1.0000 0.68220  0.31890  0.30561  Biso   1.000  C
  C34      1.0000 0.63246  0.41850  0.27989  Biso   1.000  C
  H68      1.0000 0.61270  0.42770  0.29720  Biso   1.000  H
  H69      1.0000 0.61830  0.38480  0.27210  Biso   1.000  H
  H70      1.0000 0.62820  0.44740  0.26600  Biso   1.000  H
  C35      1.0000 0.72450  0.39800  0.26160  Biso   1.000  C
  H71      1.0000 0.71600  0.42430  0.24680  Biso   1.000  H
  H72      1.0000 0.71450  0.36190  0.25520  Biso   1.000  H
  H73      1.0000 0.76320  0.39900  0.26560  Biso   1.000  H
  C36      1.0000 0.70850  0.55190  0.39841  Biso   1.000  C
  C37      1.0000 0.66140  0.51670  0.40296  Biso   1.000  C
  H74      1.0000 0.62770  0.53680  0.39810  Biso   1.000  H
  C38      1.0000 0.65660  0.49210  0.43467  Biso   1.000  C
  C39      1.0000 0.76250  0.52100  0.40787  Biso   1.000  C
  H75      1.0000 0.76240  0.48460  0.39990  Biso   1.000  H
  H76      1.0000 0.76390  0.51880  0.42860  Biso   1.000  H
  H77      1.0000 0.79400  0.54070  0.40090  Biso   1.000  H
  C40      1.0000 0.70420  0.60559  0.41046  Biso   1.000  C
  H78      1.0000 0.73720  0.62580  0.40650  Biso   1.000  H
  H79      1.0000 0.69890  0.60280  0.43100  Biso   1.000  H
  H80      1.0000 0.67340  0.62430  0.40200  Biso   1.000  H
  C41      1.0000 0.54190  0.57850  0.30341  Biso   1.000  C
  C42      1.0000 0.50040  0.62010  0.31009  Biso   1.000  C
  H81      1.0000 0.51290  0.64080  0.32700  Biso   1.000  H
  C43      1.0000 0.44770  0.59880  0.31619  Biso   1.000  C
  C44      1.0000 0.52890  0.54340  0.27777  Biso   1.000  C
  H82      1.0000 0.55760  0.51700  0.27500  Biso   1.000  H
  H83      1.0000 0.52590  0.56620  0.26090  Biso   1.000  H
  H84      1.0000 0.49470  0.52470  0.28100  Biso   1.000  H
  C45      1.0000 0.55140  0.54280  0.33043  Biso   1.000  C
  H85      1.0000 0.57790  0.51470  0.32610  Biso   1.000  H
  H86      1.0000 0.51740  0.52600  0.33610  Biso   1.000  H
  H87      1.0000 0.56490  0.56530  0.34590  Biso   1.000  H
  C46      1.0000 0.63273  0.77460  0.23286  Biso   1.000  C
  C47      1.0000 0.57980  0.75690  0.21911  Biso   1.000  C
  H88      1.0000 0.58820  0.72510  0.20690  Biso   1.000  H
  C48      1.0000 0.94610  0.29850  0.04958  Biso   1.000  C
  C49      1.0000 0.62530  0.82200  0.25126  Biso   1.000  C
  H89      1.0000 0.59660  0.81480  0.26490  Biso   1.000  H
  H90      1.0000 0.61560  0.85320  0.23970  Biso   1.000  H
  H91      1.0000 0.65890  0.82950  0.26140  Biso   1.000  H
  C50      1.0000 0.67390  0.78090  0.21169  Biso   1.000  C
  H92      1.0000 0.67660  0.74780  0.20050  Biso   1.000  H
  H93      1.0000 0.70850  0.78800  0.22090  Biso   1.000  H
  H94      1.0000 0.66470  0.81110  0.19930  Biso   1.000  H
  C51      1.0000 0.65487  0.78730  0.34878  Biso   1.000  C
  C52      1.0000 0.65250  0.79500  0.38020  Biso   1.000  C
  H95      1.0000 0.63680  0.76090  0.38790  Biso   1.000  H
  C53      1.0000 0.61550  0.83820  0.38930  Biso   1.000  C
  C54      1.0000 0.67750  0.84090  0.33454  Biso   1.000  C
  H96      1.0000 0.67890  0.83620  0.31400  Biso   1.000  H
  H97      1.0000 0.71370  0.84820  0.34170  Biso   1.000  H
  H98      1.0000 0.65370  0.87110  0.33920  Biso   1.000  H
  C55      1.0000 0.59830  0.77390  0.33577  Biso   1.000  C
  H99      1.0000 0.60170  0.77000  0.31520  Biso   1.000  H
  H100     1.0000 0.57310  0.80320  0.34010  Biso   1.000  H
  H101     1.0000 0.58480  0.74030  0.34390  Biso   1.000  H
  C56      1.0000 0.87510  0.68845  0.38650  Biso   1.000  C
  C57      1.0000 0.88030  0.74540  0.39597  Biso   1.000  C
  H102     1.0000 0.89440  0.76580  0.37930  Biso   1.000  H
  C58      1.0000 0.91950  0.75850  0.42118  Biso   1.000  C
  C59      1.0000 0.85630  0.65450  0.40908  Biso   1.000  C
  H103     1.0000 0.85490  0.61710  0.40250  Biso   1.000  H
  H104     1.0000 0.82020  0.66610  0.41490  Biso   1.000  H
  H105     1.0000 0.88100  0.65730  0.42520  Biso   1.000  H
  C60      1.0000 0.93560  0.67300  0.37461  Biso   1.000  C
  H106     1.0000 0.94550  0.69770  0.35930  Biso   1.000  H
  H107     1.0000 0.93540  0.63600  0.36740  Biso   1.000  H
  H108     1.0000 0.96180  0.67600  0.39000  Biso   1.000  H
  O25      1.0000 0.91877  0.42999  0.06318  Biso   1.000  O
  O26      1.0000 0.84090  0.40910  0.08476  Biso   1.000  O
  C61      1.0000 0.86919  0.43340  0.06382  Biso   1.000  C
  C62      1.0000 0.83650  0.45370  0.03574  Biso   1.000  C
  H109     1.0000 0.79770  0.45350  0.03970  Biso   1.000  H
  H110     1.0000 0.84420  0.42940  0.01990  Biso   1.000  H
  H111     1.0000 0.84790  0.49020  0.03080  Biso   1.000  H
  La2      1.0000 0.84061  0.77451  0.48970  Biso   1.000  La
  La3      1.0000 0.89085  0.04752  0.27127  Biso   1.000  La
  La4      1.0000 0.93322  0.03006  0.29173  Biso   1.000  La
  O27      1.0000 0.94610  0.12800  0.26850  Biso   1.000  O
  O28      1.0000 0.85400  0.01030  0.32674  Biso   1.000  O
  Ag9      1.0000 0.28280  0.34450  0.72789  Biso   1.000  Ag
  Ag10     1.0000 0.14918  0.39041  0.74873  Biso   1.000  Ag
  Ag11     1.0000 0.18546  0.50297  0.78683  Biso   1.000  Ag
  Ag12     1.0000 0.32463  0.44357  0.77239  Biso   1.000  Ag
  Ag13     1.0000 0.27137  0.26420  0.78925  Biso   1.000  Ag
  Ag14     1.0000 0.12494  0.28477  0.81008  Biso   1.000  Ag
  Ag15     1.0000 0.19757  0.40778  0.84406  Biso   1.000  Ag
  Ag16     1.0000 0.34657  0.36021  0.84365  Biso   1.000  Ag
  Pd7      1.0000 0.24126  0.50399  0.70444  Biso   1.000  Pd
  Pd8      1.0000 0.16501  0.22765  0.72866  Biso   1.000  Pd
  Pd9      1.0000 0.04492  0.42993  0.81237  Biso   1.000  Pd
  Pd10     1.0000 0.31152  0.52421  0.84586  Biso   1.000  Pd
  Pd11     1.0000 0.42629  0.31654  0.76938  Biso   1.000  Pd
  Pd12     1.0000 0.23517  0.25291  0.87290  Biso   1.000  Pd
  Br2      1.0000 0.23555  0.37565  0.78905  Biso   1.000  Br
  La5      1.0000 0.07663  0.62262  0.61276  Biso   1.000  La
  S13      1.0000 0.30116  0.44208  0.71961  Biso   1.000  S
  S14      1.0000 0.17334  0.48543  0.73504  Biso   1.000  S
  S15      1.0000 0.18898  0.31335  0.72005  Biso   1.000  S
  S16      1.0000 0.18016  0.22821  0.77609  Biso   1.000  S
  S17      1.0000 0.08017  0.36340  0.78442  Biso   1.000  S
  S18      1.0000 0.12462  0.46861  0.82450  Biso   1.000  S
  S19      1.0000 0.28248  0.51993  0.80061  Biso   1.000  S
  S20      1.0000 0.28950  0.43998  0.85898  Biso   1.000  S
  S21      1.0000 0.39309  0.38437  0.79694  Biso   1.000  S
  S22      1.0000 0.34610  0.28484  0.75406  Biso   1.000  S
  S23      1.0000 0.30055  0.26957  0.84033  Biso   1.000  S
  S24      1.0000 0.17287  0.31166  0.85653  Biso   1.000  S
  O29      1.0000 0.39085  0.54853  0.64951  Biso   1.000  O
  O30      1.0000 0.40623  0.46440  0.63321  Biso   1.000  O
  O31      1.0000 0.11275  0.60727  0.66169  Biso   1.000  O
  O32      1.0000 0.06430  0.62590  0.69827  Biso   1.000  O
  O33      1.0000 0.12503  0.23752  0.63081  Biso   1.000  O
  O34      1.0000 0.20210  0.27720  0.62279  Biso   1.000  O
  O35      1.0000 0.14090  0.04370  0.74383  Biso   1.000  O
  O36      1.0000 0.09770  0.05800  0.78835  Biso   1.000  O
  O37      1.0000 0.88657  0.36100  0.77443  Biso   1.000  O
  O38      1.0000 0.91090  0.27960  0.77661  Biso   1.000  O
  O39      1.0000 0.06628  0.52505  0.61867  Biso   1.000  O
  O40      1.0000 0.12764  0.46393  0.60655  Biso   1.000  O
  O41      1.0000 0.36248  0.69785  0.81473  Biso   1.000  O
  O42      1.0000 0.28654  0.70956  0.79289  Biso   1.000  O
  O43      1.0000 0.32814  0.54785  0.94223  Biso   1.000  O
  O44      1.0000 0.36410  0.46929  0.95142  Biso   1.000  O
  O45      1.0000 0.58456  0.41090  0.79581  Biso   1.000  O
  O46      1.0000 0.56190  0.41420  0.84010  Biso   1.000  O
  O47      1.0000 0.01106  0.67816  0.54124  Biso   1.000  O
  O48      1.0000 0.07721  0.68994  0.57270  Biso   1.000  O
  O49      1.0000 0.35721  0.11812  0.89687  Biso   1.000  O
  O50      1.0000 0.43220  0.16156  0.88992  Biso   1.000  O
  O51      1.0000 0.10539  0.23500  0.94436  Biso   1.000  O
  O52      1.0000 0.03434  0.24411  0.91880  Biso   1.000  O
  N13      1.0000 0.29524  0.51850  0.67427  Biso   1.000  N
  H112     1.0000 0.27710  0.52450  0.65760  Biso   1.000  H
  H113     1.0000 0.31320  0.54980  0.67880  Biso   1.000  H
  N14      1.0000 0.19121  0.56432  0.68961  Biso   1.000  N
  H114     1.0000 0.21060  0.59580  0.68890  Biso   1.000  H
  H115     1.0000 0.18130  0.55590  0.67140  Biso   1.000  H
  N15      1.0000 0.15890  0.21992  0.68453  Biso   1.000  N
  H116     1.0000 0.17440  0.18800  0.67900  Biso   1.000  H
  H117     1.0000 0.12310  0.21880  0.67950  Biso   1.000  H
  N16      1.0000 0.13220  0.15060  0.73499  Biso   1.000  N
  H118     1.0000 0.09920  0.14840  0.72630  Biso   1.000  H
  H119     1.0000 0.15440  0.12510  0.72700  Biso   1.000  H
  N17      1.0000 0.97353  0.39478  0.80435  Biso   1.000  N
  H120     1.0000 0.95530  0.39110  0.82120  Biso   1.000  H
  H121     1.0000 0.95370  0.41750  0.79300  Biso   1.000  H
  N18      1.0000 0.01171  0.49062  0.83561  Biso   1.000  N
  H122     1.0000 0.97870  0.49900  0.82800  Biso   1.000  H
  H123     1.0000 0.00600  0.47830  0.85370  Biso   1.000  H
  N19      1.0000 0.32770  0.60277  0.83746  Biso   1.000  N
  H124     1.0000 0.31950  0.62280  0.85330  Biso   1.000  H
  H125     1.0000 0.36410  0.60620  0.83430  Biso   1.000  H
  N20      1.0000 0.33700  0.53265  0.88764  Biso   1.000  N
  H126     1.0000 0.37090  0.54770  0.88770  Biso   1.000  H
  H127     1.0000 0.31420  0.55610  0.89680  Biso   1.000  H
  N21      1.0000 0.50256  0.34032  0.78462  Biso   1.000  N
  H128     1.0000 0.52140  0.31020  0.79000  Biso   1.000  H
  H129     1.0000 0.52130  0.35650  0.77010  Biso   1.000  H
  N22      1.0000 0.46038  0.26107  0.74009  Biso   1.000  N
  H130     1.0000 0.48880  0.27710  0.73090  Biso   1.000  H
  H131     1.0000 0.47340  0.23170  0.74980  Biso   1.000  H
  N23      1.0000 0.29014  0.20399  0.89037  Biso   1.000  N
  H132     1.0000 0.29070  0.21110  0.90950  Biso   1.000  H
  H133     1.0000 0.27780  0.16930  0.88830  Biso   1.000  H
  N24      1.0000 0.17987  0.23174  0.90166  Biso   1.000  N
  H134     1.0000 0.17830  0.19480  0.90240  Biso   1.000  H
  H135     1.0000 0.19110  0.24360  0.91910  Biso   1.000  H
  C63      1.0000 0.36180  0.45780  0.69667  Biso   1.000  C
  C64      1.0000 0.33610  0.47520  0.66932  Biso   1.000  C
  H136     1.0000 0.31880  0.44360  0.65990  Biso   1.000  H
  C65      1.0000 0.38330  0.50120  0.64822  Biso   1.000  C
  C66      1.0000 0.39570  0.49600  0.70967  Biso   1.000  C
  H137     1.0000 0.41080  0.48070  0.72710  Biso   1.000  H
  H138     1.0000 0.37490  0.52830  0.71430  Biso   1.000  H
  H139     1.0000 0.42500  0.50540  0.69670  Biso   1.000  H
  C67      1.0000 0.39210  0.40460  0.69044  Biso   1.000  C
  H140     1.0000 0.36750  0.37890  0.68150  Biso   1.000  H
  H141     1.0000 0.40580  0.38950  0.70820  Biso   1.000  H
  H142     1.0000 0.42230  0.41190  0.67760  Biso   1.000  H
  C68      1.0000 0.11790  0.52280  0.71646  Biso   1.000  C
  C69      1.0000 0.14226  0.57396  0.70616  Biso   1.000  C
  H143     1.0000 0.15180  0.59660  0.72290  Biso   1.000  H
  C70      1.0000 0.10450  0.60520  0.68759  Biso   1.000  C
  C71      1.0000 0.10130  0.48690  0.69060  Biso   1.000  C
  H144     1.0000 0.08520  0.45330  0.69750  Biso   1.000  H
  H145     1.0000 0.13320  0.47860  0.67920  Biso   1.000  H
  H146     1.0000 0.07500  0.50620  0.67900  Biso   1.000  H
  C72      1.0000 0.07370  0.52870  0.73958  Biso   1.000  C
  H147     1.0000 0.05970  0.49300  0.74450  Biso   1.000  H
  H148     1.0000 0.04430  0.55110  0.73230  Biso   1.000  H
  H149     1.0000 0.08920  0.54560  0.75640  Biso   1.000  H
  C73      1.0000 0.16900  0.31900  0.68156  Biso   1.000  C
  C74      1.0000 0.18560  0.26540  0.66920  Biso   1.000  C
  H150     1.0000 0.22560  0.26130  0.67010  Biso   1.000  H
  C75      1.0000 0.16480  0.25620  0.63736  Biso   1.000  C
  C76      1.0000 0.10735  0.32860  0.68016  Biso   1.000  C
  H151     1.0000 0.08860  0.29810  0.68890  Biso   1.000  H
  H152     1.0000 0.09620  0.33200  0.66030  Biso   1.000  H
  H153     1.0000 0.09830  0.36170  0.69040  Biso   1.000  H
  C77      1.0000 0.19850  0.36350  0.66932  Biso   1.000  C
  H154     1.0000 0.18600  0.39740  0.67760  Biso   1.000  H
  H155     1.0000 0.19260  0.36420  0.64880  Biso   1.000  H
  H156     1.0000 0.23700  0.35900  0.67320  Biso   1.000  H
  C78      1.0000 0.17540  0.15500  0.78246  Biso   1.000  C
  C79      1.0000 0.12610  0.13940  0.76621  Biso   1.000  C
  H157     1.0000 0.09300  0.15680  0.77410  Biso   1.000  H
  C80      1.0000 0.12110  0.07410  0.76606  Biso   1.000  C
  C81      1.0000 0.23150  0.12890  0.77204  Biso   1.000  C
  H158     1.0000 0.23510  0.13360  0.75150  Biso   1.000  H
  H159     1.0000 0.23190  0.09050  0.77660  Biso   1.000  H
  H160     1.0000 0.26150  0.14690  0.78160  Biso   1.000  H
  C82      1.0000 0.17100  0.14720  0.81160  Biso   1.000  C
  H161     1.0000 0.20440  0.15870  0.82080  Biso   1.000  H
  H162     1.0000 0.16470  0.10900  0.81550  Biso   1.000  H
  H163     1.0000 0.14080  0.16850  0.81890  Biso   1.000  H
  C83      1.0000 0.01730  0.34120  0.76672  Biso   1.000  C
  C84      1.0000 0.97622  0.34080  0.79030  Biso   1.000  C
  H164     1.0000 0.98620  0.31290  0.80460  Biso   1.000  H
  C85      1.0000 0.92300  0.32780  0.77813  Biso   1.000  C
  C86      1.0000 0.00590  0.38220  0.74404  Biso   1.000  C
  H165     1.0000 0.99730  0.41680  0.75290  Biso   1.000  H
  H166     1.0000 0.97530  0.37020  0.73260  Biso   1.000  H
  H167     1.0000 0.03770  0.38620  0.73190  Biso   1.000  H
  C87      1.0000 0.03240  0.28750  0.75249  Biso   1.000  C
  H168     1.0000 0.04180  0.26100  0.76700  Biso   1.000  H
  H169     1.0000 0.06320  0.29300  0.73990  Biso   1.000  H
  H170     1.0000 0.00170  0.27430  0.74150  Biso   1.000  H
  C88      1.0000 0.10020  0.52400  0.84849  Biso   1.000  C
  C89      1.0000 0.04339  0.53930  0.83713  Biso   1.000  C
  H171     1.0000 0.04680  0.55530  0.81780  Biso   1.000  H
  C90      1.0000 0.07970  0.48850  0.60712  Biso   1.000  C
  C91      1.0000 0.09730  0.50320  0.87928  Biso   1.000  C
  H172     1.0000 0.13360  0.49420  0.88590  Biso   1.000  H
  H173     1.0000 0.07460  0.47100  0.88000  Biso   1.000  H
  H174     1.0000 0.08180  0.53120  0.89150  Biso   1.000  H
  C92      1.0000 0.14450  0.56460  0.84716  Biso   1.000  C
  H175     1.0000 0.17730  0.54930  0.85540  Biso   1.000  H
  H176     1.0000 0.13400  0.59680  0.85780  Biso   1.000  H
  H177     1.0000 0.15120  0.57440  0.82740  Biso   1.000  H
  C93      1.0000 0.30520  0.58880  0.78722  Biso   1.000  C
  C94      1.0000 0.29770  0.62640  0.81232  Biso   1.000  C
  H178     1.0000 0.25850  0.62860  0.81700  Biso   1.000  H
  C95      1.0000 0.31780  0.68110  0.80561  Biso   1.000  C
  C96      1.0000 0.36754  0.58150  0.77989  Biso   1.000  C
  H179     1.0000 0.38730  0.57230  0.79720  Biso   1.000  H
  H180     1.0000 0.38170  0.61520  0.77210  Biso   1.000  H
  H181     1.0000 0.37180  0.55260  0.76600  Biso   1.000  H
  C97      1.0000 0.27550  0.60200  0.76160  Biso   1.000  C
  H182     1.0000 0.28400  0.57570  0.74680  Biso   1.000  H
  H183     1.0000 0.28550  0.63810  0.75520  Biso   1.000  H
  H184     1.0000 0.23680  0.60100  0.76560  Biso   1.000  H
  C98      1.0000 0.29150  0.44810  0.89841  Biso   1.000  C
  C99      1.0000 0.33860  0.48330  0.90296  Biso   1.000  C
  H185     1.0000 0.37230  0.46320  0.89810  Biso   1.000  H
  C100     1.0000 0.34340  0.50790  0.93467  Biso   1.000  C
  C101     1.0000 0.23750  0.47900  0.90787  Biso   1.000  C
  H186     1.0000 0.23760  0.51540  0.89990  Biso   1.000  H
  H187     1.0000 0.23610  0.48120  0.92860  Biso   1.000  H
  H188     1.0000 0.20600  0.45930  0.90090  Biso   1.000  H
  C102     1.0000 0.29580  0.39441  0.91046  Biso   1.000  C
  H189     1.0000 0.26280  0.37420  0.90650  Biso   1.000  H
  H190     1.0000 0.30110  0.39720  0.93100  Biso   1.000  H
  H191     1.0000 0.32660  0.37570  0.90200  Biso   1.000  H
  C103     1.0000 0.45810  0.42150  0.80341  Biso   1.000  C
  C104     1.0000 0.49960  0.37990  0.81009  Biso   1.000  C
  H192     1.0000 0.48710  0.35920  0.82700  Biso   1.000  H
  C105     1.0000 0.55230  0.40120  0.81619  Biso   1.000  C
  C106     1.0000 0.47110  0.45660  0.77777  Biso   1.000  C
  H193     1.0000 0.44240  0.48300  0.77500  Biso   1.000  H
  H194     1.0000 0.47410  0.43380  0.76090  Biso   1.000  H
  H195     1.0000 0.50530  0.47530  0.78100  Biso   1.000  H
  C107     1.0000 0.44860  0.45720  0.83043  Biso   1.000  C
  H196     1.0000 0.42210  0.48530  0.82610  Biso   1.000  H
  H197     1.0000 0.48260  0.47400  0.83610  Biso   1.000  H
  H198     1.0000 0.43510  0.43470  0.84590  Biso   1.000  H
  C108     1.0000 0.36727  0.22540  0.73286  Biso   1.000  C
  C109     1.0000 0.42020  0.24310  0.71911  Biso   1.000  C
  H199     1.0000 0.41180  0.27490  0.70690  Biso   1.000  H
  C110     1.0000 0.05390  0.70150  0.54958  Biso   1.000  C
  C111     1.0000 0.37470  0.17800  0.75126  Biso   1.000  C
  H200     1.0000 0.40340  0.18520  0.76490  Biso   1.000  H
  H201     1.0000 0.38440  0.14680  0.73970  Biso   1.000  H
  H202     1.0000 0.34110  0.17050  0.76140  Biso   1.000  H
  C112     1.0000 0.32610  0.21910  0.71169  Biso   1.000  C
  H203     1.0000 0.32340  0.25220  0.70050  Biso   1.000  H
  H204     1.0000 0.29150  0.21200  0.72090  Biso   1.000  H
  H205     1.0000 0.33530  0.18890  0.69930  Biso   1.000  H
  C113     1.0000 0.34513  0.21270  0.84878  Biso   1.000  C
  C114     1.0000 0.34750  0.20500  0.88020  Biso   1.000  C
  H206     1.0000 0.36320  0.23910  0.88790  Biso   1.000  H
  C115     1.0000 0.38450  0.16180  0.88930  Biso   1.000  C
  C116     1.0000 0.32250  0.15910  0.83454  Biso   1.000  C
  H207     1.0000 0.32110  0.16380  0.81400  Biso   1.000  H
  H208     1.0000 0.28630  0.15180  0.84170  Biso   1.000  H
  H209     1.0000 0.34630  0.12890  0.83920  Biso   1.000  H
  C117     1.0000 0.40170  0.22610  0.83577  Biso   1.000  C
  H210     1.0000 0.39830  0.23000  0.81520  Biso   1.000  H
  H211     1.0000 0.42690  0.19680  0.84010  Biso   1.000  H
  H212     1.0000 0.41520  0.25970  0.84390  Biso   1.000  H
  C118     1.0000 0.12490  0.31155  0.88650  Biso   1.000  C
  C119     1.0000 0.11970  0.25460  0.89597  Biso   1.000  C
  H213     1.0000 0.10560  0.23420  0.87930  Biso   1.000  H
  C120     1.0000 0.08050  0.24150  0.92118  Biso   1.000  C
  C121     1.0000 0.14370  0.34550  0.90908  Biso   1.000  C
  H214     1.0000 0.14510  0.38290  0.90250  Biso   1.000  H
  H215     1.0000 0.17980  0.33390  0.91490  Biso   1.000  H
  H216     1.0000 0.11900  0.34270  0.92520  Biso   1.000  H
  C122     1.0000 0.06440  0.32700  0.87461  Biso   1.000  C
  H217     1.0000 0.05450  0.30230  0.85930  Biso   1.000  H
  H218     1.0000 0.06460  0.36400  0.86740  Biso   1.000  H
  H219     1.0000 0.03820  0.32400  0.89000  Biso   1.000  H
  O53      1.0000 0.08123  0.57001  0.56318  Biso   1.000  O
  O54      1.0000 0.15910  0.59090  0.58476  Biso   1.000  O
  C123     1.0000 0.13081  0.56660  0.56382  Biso   1.000  C
  C124     1.0000 0.16350  0.54630  0.53574  Biso   1.000  C
  H220     1.0000 0.20230  0.54650  0.53970  Biso   1.000  H
  H221     1.0000 0.15580  0.57060  0.51990  Biso   1.000  H
  H222     1.0000 0.15210  0.50980  0.53080  Biso   1.000  H
  La6      1.0000 0.15939  0.22549  0.98970  Biso   1.000  La
  La7      1.0000 0.10915  0.95248  0.77127  Biso   1.000  La
  La8      1.0000 0.06678  0.96994  0.79173  Biso   1.000  La
  O55      1.0000 0.05390  0.87200  0.76850  Biso   1.000  O
  O56      1.0000 0.14600  0.98970  0.82674  Biso   1.000  O
  Ag17     1.0000 0.84450  0.21720  0.47789  Biso   1.000  Ag
  Ag18     1.0000 0.89041  0.35082  0.49873  Biso   1.000  Ag
  Ag19     1.0000 0.00297  0.31454  0.53683  Biso   1.000  Ag
  Ag20     1.0000 0.94357  0.17537  0.52239  Biso   1.000  Ag
  Ag21     1.0000 0.76420  0.22863  0.53925  Biso   1.000  Ag
  Ag22     1.0000 0.78477  0.37506  0.56008  Biso   1.000  Ag
  Ag23     1.0000 0.90778  0.30243  0.59406  Biso   1.000  Ag
  Ag24     1.0000 0.86021  0.15343  0.59365  Biso   1.000  Ag
  Pd13     1.0000 0.00399  0.25874  0.45444  Biso   1.000  Pd
  Pd14     1.0000 0.72765  0.33499  0.47866  Biso   1.000  Pd
  Pd15     1.0000 0.92993  0.45508  0.56237  Biso   1.000  Pd
  Pd16     1.0000 0.02421  0.18848  0.59586  Biso   1.000  Pd
  Pd17     1.0000 0.81654  0.07371  0.51938  Biso   1.000  Pd
  Pd18     1.0000 0.75291  0.26483  0.62290  Biso   1.000  Pd
  Br3      1.0000 0.87565  0.26445  0.53905  Biso   1.000  Br
  La9      1.0000 0.12262  0.42337  0.36276  Biso   1.000  La
  S25      1.0000 0.94208  0.19884  0.46961  Biso   1.000  S
  S26      1.0000 0.98543  0.32666  0.48504  Biso   1.000  S
  S27      1.0000 0.81335  0.31102  0.47005  Biso   1.000  S
  S28      1.0000 0.72821  0.31984  0.52609  Biso   1.000  S
  S29      1.0000 0.86340  0.41983  0.53442  Biso   1.000  S
  S30      1.0000 0.96861  0.37538  0.57450  Biso   1.000  S
  S31      1.0000 0.01993  0.21752  0.55061  Biso   1.000  S
  S32      1.0000 0.93998  0.21050  0.60898  Biso   1.000  S
  S33      1.0000 0.88437  0.10691  0.54694  Biso   1.000  S
  S34      1.0000 0.78484  0.15390  0.50406  Biso   1.000  S
  S35      1.0000 0.76957  0.19945  0.59033  Biso   1.000  S
  S36      1.0000 0.81166  0.32713  0.60653  Biso   1.000  S
  O57      1.0000 0.04853  0.10915  0.39951  Biso   1.000  O
  O58      1.0000 0.96440  0.09377  0.38321  Biso   1.000  O
  O59      1.0000 0.10727  0.38725  0.41169  Biso   1.000  O
  O60      1.0000 0.12590  0.43570  0.44827  Biso   1.000  O
  O61      1.0000 0.73752  0.37497  0.38081  Biso   1.000  O
  O62      1.0000 0.77720  0.29790  0.37279  Biso   1.000  O
  O63      1.0000 0.54370  0.35910  0.49383  Biso   1.000  O
  O64      1.0000 0.55800  0.40230  0.53835  Biso   1.000  O
  O65      1.0000 0.86100  0.61343  0.52443  Biso   1.000  O
  O66      1.0000 0.77960  0.58910  0.52661  Biso   1.000  O
  O67      1.0000 0.02505  0.43372  0.36867  Biso   1.000  O
  O68      1.0000 0.96393  0.37236  0.35655  Biso   1.000  O
  O69      1.0000 0.19785  0.13752  0.56473  Biso   1.000  O
  O70      1.0000 0.20956  0.21346  0.54289  Biso   1.000  O
  O71      1.0000 0.04785  0.17186  0.69223  Biso   1.000  O
  O72      1.0000 0.96929  0.13590  0.70142  Biso   1.000  O
  O73      1.0000 0.91090  0.91544  0.54581  Biso   1.000  O
  O74      1.0000 0.91420  0.93810  0.59010  Biso   1.000  O
  O75      1.0000 0.17816  0.48894  0.29124  Biso   1.000  O
  O76      1.0000 0.18994  0.42279  0.32270  Biso   1.000  O
  O77      1.0000 0.61812  0.14279  0.64687  Biso   1.000  O
  O78      1.0000 0.66156  0.06780  0.63992  Biso   1.000  O
  O79      1.0000 0.73500  0.39461  0.69436  Biso   1.000  O
  O80      1.0000 0.74411  0.46566  0.66880  Biso   1.000  O
  N25      1.0000 0.01850  0.20476  0.42427  Biso   1.000  N
  H223     1.0000 0.02450  0.22290  0.40760  Biso   1.000  H
  H224     1.0000 0.04980  0.18680  0.42880  Biso   1.000  H
  N26      1.0000 0.06432  0.30879  0.43961  Biso   1.000  N
  H225     1.0000 0.09580  0.28940  0.43890  Biso   1.000  H
  H226     1.0000 0.05590  0.31870  0.42140  Biso   1.000  H
  N27      1.0000 0.71992  0.34110  0.43453  Biso   1.000  N
  H227     1.0000 0.68800  0.32560  0.42900  Biso   1.000  H
  H228     1.0000 0.71880  0.37690  0.42950  Biso   1.000  H
  N28      1.0000 0.65060  0.36780  0.48499  Biso   1.000  N
  H229     1.0000 0.64840  0.40080  0.47630  Biso   1.000  H
  H230     1.0000 0.62510  0.34560  0.47700  Biso   1.000  H
  N29      1.0000 0.89478  0.52647  0.55435  Biso   1.000  N
  H231     1.0000 0.89110  0.54470  0.57120  Biso   1.000  H
  H232     1.0000 0.91750  0.54630  0.54300  Biso   1.000  H
  N30      1.0000 0.99062  0.48829  0.58561  Biso   1.000  N
  H233     1.0000 0.99900  0.52130  0.57800  Biso   1.000  H
  H234     1.0000 0.97830  0.49400  0.60370  Biso   1.000  H
  N31      1.0000 0.10277  0.17230  0.58746  Biso   1.000  N
  H235     1.0000 0.12280  0.18050  0.60330  Biso   1.000  H
  H236     1.0000 0.10620  0.13590  0.58430  Biso   1.000  H
  N32      1.0000 0.03265  0.16300  0.63764  Biso   1.000  N
  H237     1.0000 0.04770  0.12910  0.63770  Biso   1.000  H
  H238     1.0000 0.05610  0.18580  0.64680  Biso   1.000  H
  N33      1.0000 0.84032  0.99744  0.53462  Biso   1.000  N
  H239     1.0000 0.81020  0.97860  0.54000  Biso   1.000  H
  H240     1.0000 0.85650  0.97870  0.52010  Biso   1.000  H
  N34      1.0000 0.76107  0.03962  0.49009  Biso   1.000  N
  H241     1.0000 0.77710  0.01120  0.48090  Biso   1.000  H
  H242     1.0000 0.73170  0.02660  0.49980  Biso   1.000  H
  N35      1.0000 0.70399  0.20986  0.64037  Biso   1.000  N
  H243     1.0000 0.71110  0.20930  0.65950  Biso   1.000  H
  H244     1.0000 0.66930  0.22220  0.63830  Biso   1.000  H
  N36      1.0000 0.73174  0.32013  0.65166  Biso   1.000  N
  H245     1.0000 0.69480  0.32170  0.65240  Biso   1.000  H
  H246     1.0000 0.74360  0.30890  0.66910  Biso   1.000  H
  C125     1.0000 0.95780  0.13820  0.44667  Biso   1.000  C
  C126     1.0000 0.97520  0.16390  0.41932  Biso   1.000  C
  H247     1.0000 0.94360  0.18120  0.40990  Biso   1.000  H
  C127     1.0000 0.00120  0.11670  0.39822  Biso   1.000  C
  C128     1.0000 0.99600  0.10430  0.45967  Biso   1.000  C
  H248     1.0000 0.98070  0.08920  0.47710  Biso   1.000  H
  H249     1.0000 0.02830  0.12510  0.46430  Biso   1.000  H
  H250     1.0000 0.00540  0.07500  0.44670  Biso   1.000  H
  C129     1.0000 0.90460  0.10790  0.44044  Biso   1.000  C
  H251     1.0000 0.87890  0.13250  0.43150  Biso   1.000  H
  H252     1.0000 0.88950  0.09420  0.45820  Biso   1.000  H
  H253     1.0000 0.91190  0.07770  0.42760  Biso   1.000  H
  C130     1.0000 0.02280  0.38210  0.46646  Biso   1.000  C
  C131     1.0000 0.07396  0.35774  0.45616  Biso   1.000  C
  H254     1.0000 0.09660  0.34820  0.47290  Biso   1.000  H
  C132     1.0000 0.10520  0.39550  0.43759  Biso   1.000  C
  C133     1.0000 0.98690  0.39870  0.44060  Biso   1.000  C
  H255     1.0000 0.95330  0.41480  0.44750  Biso   1.000  H
  H256     1.0000 0.97860  0.36680  0.42920  Biso   1.000  H
  H257     1.0000 0.00620  0.42500  0.42900  Biso   1.000  H
  C134     1.0000 0.02870  0.42630  0.48958  Biso   1.000  C
  H258     1.0000 0.99300  0.44030  0.49450  Biso   1.000  H
  H259     1.0000 0.05110  0.45570  0.48230  Biso   1.000  H
  H260     1.0000 0.04560  0.41080  0.50640  Biso   1.000  H
  C135     1.0000 0.81900  0.33100  0.43156  Biso   1.000  C
  C136     1.0000 0.76540  0.31440  0.41920  Biso   1.000  C
  H261     1.0000 0.76130  0.27440  0.42010  Biso   1.000  H
  C137     1.0000 0.75620  0.33520  0.38736  Biso   1.000  C
  C138     1.0000 0.82860  0.39265  0.43016  Biso   1.000  C
  H262     1.0000 0.79810  0.41140  0.43890  Biso   1.000  H
  H263     1.0000 0.83200  0.40380  0.41030  Biso   1.000  H
  H264     1.0000 0.86170  0.40170  0.44040  Biso   1.000  H
  C139     1.0000 0.86350  0.30150  0.41932  Biso   1.000  C
  H265     1.0000 0.89740  0.31400  0.42760  Biso   1.000  H
  H266     1.0000 0.86420  0.30740  0.39880  Biso   1.000  H
  H267     1.0000 0.85900  0.26300  0.42320  Biso   1.000  H
  C140     1.0000 0.65500  0.32460  0.53246  Biso   1.000  C
  C141     1.0000 0.63940  0.37390  0.51621  Biso   1.000  C
  H268     1.0000 0.65680  0.40700  0.52410  Biso   1.000  H
  C142     1.0000 0.57410  0.37890  0.51606  Biso   1.000  C
  C143     1.0000 0.62890  0.26850  0.52204  Biso   1.000  C
  H269     1.0000 0.63360  0.26490  0.50150  Biso   1.000  H
  H270     1.0000 0.59050  0.26810  0.52660  Biso   1.000  H
  H271     1.0000 0.64690  0.23850  0.53160  Biso   1.000  H
  C144     1.0000 0.64720  0.32900  0.56160  Biso   1.000  C
  H272     1.0000 0.65870  0.29560  0.57080  Biso   1.000  H
  H273     1.0000 0.60900  0.33530  0.56550  Biso   1.000  H
  H274     1.0000 0.66850  0.35920  0.56890  Biso   1.000  H
  C145     1.0000 0.84120  0.48270  0.51672  Biso   1.000  C
  C146     1.0000 0.84080  0.52378  0.54030  Biso   1.000  C
  H275     1.0000 0.81290  0.51380  0.55460  Biso   1.000  H
  C147     1.0000 0.82780  0.57700  0.52813  Biso   1.000  C
  C148     1.0000 0.88220  0.49410  0.49404  Biso   1.000  C
  H276     1.0000 0.91680  0.50270  0.50290  Biso   1.000  H
  H277     1.0000 0.87020  0.52470  0.48260  Biso   1.000  H
  H278     1.0000 0.88620  0.46230  0.48190  Biso   1.000  H
  C149     1.0000 0.78750  0.46760  0.50249  Biso   1.000  C
  H279     1.0000 0.76100  0.45820  0.51700  Biso   1.000  H
  H280     1.0000 0.79300  0.43680  0.48990  Biso   1.000  H
  H281     1.0000 0.77430  0.49830  0.49150  Biso   1.000  H
  C150     1.0000 0.02400  0.39980  0.59849  Biso   1.000  C
  C151     1.0000 0.03930  0.45661  0.58713  Biso   1.000  C
  H282     1.0000 0.05530  0.45320  0.56780  Biso   1.000  H
  C152     1.0000 0.98850  0.42030  0.35712  Biso   1.000  C
  C153     1.0000 0.00320  0.40270  0.62928  Biso   1.000  C
  H283     1.0000 0.99420  0.36640  0.63590  Biso   1.000  H
  H284     1.0000 0.97100  0.42540  0.63000  Biso   1.000  H
  H285     1.0000 0.03120  0.41820  0.64150  Biso   1.000  H
  C154     1.0000 0.06460  0.35550  0.59716  Biso   1.000  C
  H286     1.0000 0.04930  0.32270  0.60540  Biso   1.000  H
  H287     1.0000 0.09680  0.36600  0.60780  Biso   1.000  H
  H288     1.0000 0.07440  0.34880  0.57740  Biso   1.000  H
  C155     1.0000 0.08880  0.19480  0.53722  Biso   1.000  C
  C156     1.0000 0.12640  0.20230  0.56232  Biso   1.000  C
  H289     1.0000 0.12860  0.24150  0.56700  Biso   1.000  H
  C157     1.0000 0.18110  0.18220  0.55561  Biso   1.000  C
  C158     1.0000 0.08150  0.13246  0.52989  Biso   1.000  C
  H290     1.0000 0.07230  0.11270  0.54720  Biso   1.000  H
  H291     1.0000 0.11520  0.11830  0.52210  Biso   1.000  H
  H292     1.0000 0.05260  0.12820  0.51600  Biso   1.000  H
  C159     1.0000 0.10200  0.22450  0.51160  Biso   1.000  C
  H293     1.0000 0.07570  0.21600  0.49680  Biso   1.000  H
  H294     1.0000 0.13810  0.21450  0.50520  Biso   1.000  H
  H295     1.0000 0.10100  0.26320  0.51560  Biso   1.000  H
  C160     1.0000 0.94810  0.20850  0.64841  Biso   1.000  C
  C161     1.0000 0.98330  0.16140  0.65296  Biso   1.000  C
  H296     1.0000 0.96320  0.12770  0.64810  Biso   1.000  H
  C162     1.0000 0.00790  0.15660  0.68467  Biso   1.000  C
  C163     1.0000 0.97900  0.26250  0.65787  Biso   1.000  C
  H297     1.0000 0.01540  0.26240  0.64990  Biso   1.000  H
  H298     1.0000 0.98120  0.26390  0.67860  Biso   1.000  H
  H299     1.0000 0.95930  0.29400  0.65090  Biso   1.000  H
  C164     1.0000 0.89441  0.20420  0.66046  Biso   1.000  C
  H300     1.0000 0.87420  0.23720  0.65650  Biso   1.000  H
  H301     1.0000 0.89720  0.19890  0.68100  Biso   1.000  H
  H302     1.0000 0.87570  0.17340  0.65200  Biso   1.000  H
  C165     1.0000 0.92150  0.04190  0.55341  Biso   1.000  C
  C166     1.0000 0.87990  0.00040  0.56009  Biso   1.000  C
  H303     1.0000 0.85920  0.01290  0.57700  Biso   1.000  H
  C167     1.0000 0.90120  0.94770  0.56619  Biso   1.000  C
  C168     1.0000 0.95660  0.02890  0.52777  Biso   1.000  C
  H304     1.0000 0.98300  0.05760  0.52500  Biso   1.000  H
  H305     1.0000 0.93380  0.02590  0.51090  Biso   1.000  H
  H306     1.0000 0.97530  0.99470  0.53100  Biso   1.000  H
  C169     1.0000 0.95720  0.05140  0.58043  Biso   1.000  C
  H307     1.0000 0.98530  0.07790  0.57610  Biso   1.000  H
  H308     1.0000 0.97400  0.01740  0.58610  Biso   1.000  H
  H309     1.0000 0.93470  0.06490  0.59590  Biso   1.000  H
  C170     1.0000 0.72540  0.13273  0.48286  Biso   1.000  C
  C171     1.0000 0.74310  0.07980  0.46911  Biso   1.000  C
  H310     1.0000 0.77490  0.08820  0.45690  Biso   1.000  H
  C172     1.0000 0.20150  0.44610  0.29958  Biso   1.000  C
  C173     1.0000 0.67800  0.12530  0.50126  Biso   1.000  C
  H311     1.0000 0.68520  0.09660  0.51490  Biso   1.000  H
  H312     1.0000 0.64680  0.11560  0.48970  Biso   1.000  H
  H313     1.0000 0.67050  0.15890  0.51140  Biso   1.000  H
  C174     1.0000 0.71910  0.17390  0.46169  Biso   1.000  C
  H314     1.0000 0.75220  0.17660  0.45050  Biso   1.000  H
  H315     1.0000 0.71200  0.20850  0.47090  Biso   1.000  H
  H316     1.0000 0.68890  0.16470  0.44930  Biso   1.000  H
  C175     1.0000 0.71270  0.15487  0.59878  Biso   1.000  C
  C176     1.0000 0.70500  0.15250  0.63020  Biso   1.000  C
  H317     1.0000 0.73910  0.13680  0.63790  Biso   1.000  H
  C177     1.0000 0.66180  0.11550  0.63930  Biso   1.000  C
  C178     1.0000 0.65910  0.17750  0.58454  Biso   1.000  C
  H318     1.0000 0.66380  0.17890  0.56400  Biso   1.000  H
  H319     1.0000 0.65180  0.21370  0.59170  Biso   1.000  H
  H320     1.0000 0.62890  0.15370  0.58920  Biso   1.000  H
  C179     1.0000 0.72610  0.09830  0.58577  Biso   1.000  C
  H321     1.0000 0.73000  0.10170  0.56520  Biso   1.000  H
  H322     1.0000 0.69680  0.07310  0.59010  Biso   1.000  H
  H323     1.0000 0.75970  0.08480  0.59390  Biso   1.000  H
  C180     1.0000 0.81155  0.37510  0.63650  Biso   1.000  C
  C181     1.0000 0.75460  0.38030  0.64597  Biso   1.000  C
  H324     1.0000 0.73420  0.39440  0.62930  Biso   1.000  H
  C182     1.0000 0.74150  0.41950  0.67118  Biso   1.000  C
  C183     1.0000 0.84550  0.35630  0.65908  Biso   1.000  C
  H325     1.0000 0.88290  0.35490  0.65250  Biso   1.000  H
  H326     1.0000 0.83390  0.32020  0.66490  Biso   1.000  H
  H327     1.0000 0.84270  0.38100  0.67520  Biso   1.000  H
  C184     1.0000 0.82700  0.43560  0.62461  Biso   1.000  C
  H328     1.0000 0.80230  0.44550  0.60930  Biso   1.000  H
  H329     1.0000 0.86400  0.43540  0.61740  Biso   1.000  H
  H330     1.0000 0.82400  0.46180  0.64000  Biso   1.000  H
  O81      1.0000 0.07001  0.41877  0.31318  Biso   1.000  O
  O82      1.0000 0.09090  0.34090  0.33476  Biso   1.000  O
  C185     1.0000 0.06660  0.36919  0.31382  Biso   1.000  C
  C186     1.0000 0.04630  0.33650  0.28574  Biso   1.000  C
  H331     1.0000 0.04650  0.29770  0.28970  Biso   1.000  H
  H332     1.0000 0.07060  0.34420  0.26990  Biso   1.000  H
  H333     1.0000 0.00980  0.34790  0.28080  Biso   1.000  H
  La10     1.0000 0.72549  0.34061  0.73970  Biso   1.000  La
  La11     1.0000 0.45248  0.39085  0.52127  Biso   1.000  La
  La12     1.0000 0.46994  0.43322  0.54173  Biso   1.000  La
  O83      1.0000 0.37200  0.44610  0.51850  Biso   1.000  O
  O84      1.0000 0.48970  0.35400  0.57674  Biso   1.000  O
  Ag25     1.0000 0.15550  0.78280  0.97789  Biso   1.000  Ag
  Ag26     1.0000 0.10959  0.64918  0.99873  Biso   1.000  Ag
  Ag27     1.0000 0.99703  0.68546  0.03683  Biso   1.000  Ag
  Ag28     1.0000 0.05643  0.82463  0.02239  Biso   1.000  Ag
  Ag29     1.0000 0.23580  0.77137  0.03925  Biso   1.000  Ag
  Ag30     1.0000 0.21523  0.62494  0.06008  Biso   1.000  Ag
  Ag31     1.0000 0.09222  0.69757  0.09406  Biso   1.000  Ag
  Ag32     1.0000 0.13979  0.84657  0.09365  Biso   1.000  Ag
  Pd19     1.0000 0.99601  0.74126  0.95444  Biso   1.000  Pd
  Pd20     1.0000 0.27235  0.66501  0.97866  Biso   1.000  Pd
  Pd21     1.0000 0.07007  0.54492  0.06237  Biso   1.000  Pd
  Pd22     1.0000 0.97579  0.81152  0.09586  Biso   1.000  Pd
  Pd23     1.0000 0.18346  0.92629  0.01938  Biso   1.000  Pd
  Pd24     1.0000 0.24709  0.73517  0.12290  Biso   1.000  Pd
  Br4      1.0000 0.12435  0.73555  0.03905  Biso   1.000  Br
  La13     1.0000 0.87738  0.57663  0.86276  Biso   1.000  La
  S37      1.0000 0.05792  0.80116  0.96961  Biso   1.000  S
  S38      1.0000 0.01457  0.67334  0.98504  Biso   1.000  S
  S39      1.0000 0.18665  0.68898  0.97005  Biso   1.000  S
  S40      1.0000 0.27179  0.68016  0.02609  Biso   1.000  S
  S41      1.0000 0.13660  0.58017  0.03442  Biso   1.000  S
  S42      1.0000 0.03139  0.62462  0.07450  Biso   1.000  S
  S43      1.0000 0.98007  0.78248  0.05061  Biso   1.000  S
  S44      1.0000 0.06002  0.78950  0.10898  Biso   1.000  S
  S45      1.0000 0.11563  0.89309  0.04694  Biso   1.000  S
  S46      1.0000 0.21516  0.84610  0.00406  Biso   1.000  S
  S47      1.0000 0.23043  0.80055  0.09033  Biso   1.000  S
  S48      1.0000 0.18834  0.67287  0.10653  Biso   1.000  S
  O85      1.0000 0.95147  0.89085  0.89951  Biso   1.000  O
  O86      1.0000 0.03560  0.90623  0.88321  Biso   1.000  O
  O87      1.0000 0.89273  0.61275  0.91169  Biso   1.000  O
  O88      1.0000 0.87410  0.56430  0.94827  Biso   1.000  O
  O89      1.0000 0.26248  0.62503  0.88081  Biso   1.000  O
  O90      1.0000 0.22280  0.70210  0.87279  Biso   1.000  O
  O91      1.0000 0.45630  0.64090  0.99383  Biso   1.000  O
  O92      1.0000 0.44200  0.59770  0.03835  Biso   1.000  O
  O93      1.0000 0.13900  0.38657  0.02443  Biso   1.000  O
  O94      1.0000 0.22040  0.41090  0.02661  Biso   1.000  O
  O95      1.0000 0.97495  0.56628  0.86867  Biso   1.000  O
  O96      1.0000 0.03607  0.62764  0.85655  Biso   1.000  O
  O97      1.0000 0.80215  0.86248  0.06473  Biso   1.000  O
  O98      1.0000 0.79044  0.78654  0.04289  Biso   1.000  O
  O99      1.0000 0.95215  0.82814  0.19223  Biso   1.000  O
  O100     1.0000 0.03071  0.86410  0.20142  Biso   1.000  O
  O101     1.0000 0.08910  0.08456  0.04581  Biso   1.000  O
  O102     1.0000 0.08580  0.06190  0.09010  Biso   1.000  O
  O103     1.0000 0.82184  0.51106  0.79124  Biso   1.000  O
  O104     1.0000 0.81006  0.57721  0.82270  Biso   1.000  O
  O105     1.0000 0.38188  0.85721  0.14687  Biso   1.000  O
  O106     1.0000 0.33844  0.93220  0.13992  Biso   1.000  O
  O107     1.0000 0.26500  0.60539  0.19436  Biso   1.000  O
  O108     1.0000 0.25589  0.53434  0.16880  Biso   1.000  O
  N37      1.0000 0.98150  0.79524  0.92427  Biso   1.000  N
  H334     1.0000 0.97550  0.77710  0.90760  Biso   1.000  H
  H335     1.0000 0.95020  0.81320  0.92880  Biso   1.000  H
  N38      1.0000 0.93568  0.69121  0.93961  Biso   1.000  N
  H336     1.0000 0.90420  0.71060  0.93890  Biso   1.000  H
  H337     1.0000 0.94410  0.68130  0.92140  Biso   1.000  H
  N39      1.0000 0.28008  0.65890  0.93453  Biso   1.000  N
  H338     1.0000 0.31200  0.67440  0.92900  Biso   1.000  H
  H339     1.0000 0.28120  0.62310  0.92950  Biso   1.000  H
  N40      1.0000 0.34940  0.63220  0.98499  Biso   1.000  N
  H340     1.0000 0.35160  0.59920  0.97630  Biso   1.000  H
  H341     1.0000 0.37490  0.65440  0.97700  Biso   1.000  H
  N41      1.0000 0.10522  0.47353  0.05435  Biso   1.000  N
  H342     1.0000 0.10890  0.45530  0.07120  Biso   1.000  H
  H343     1.0000 0.08250  0.45370  0.04300  Biso   1.000  H
  N42      1.0000 0.00938  0.51171  0.08561  Biso   1.000  N
  H344     1.0000 0.00100  0.47870  0.07800  Biso   1.000  H
  H345     1.0000 0.02170  0.50600  0.10370  Biso   1.000  H
  N43      1.0000 0.89723  0.82770  0.08746  Biso   1.000  N
  H346     1.0000 0.87720  0.81950  0.10330  Biso   1.000  H
  H347     1.0000 0.89380  0.86410  0.08430  Biso   1.000  H
  N44      1.0000 0.96735  0.83700  0.13764  Biso   1.000  N
  H348     1.0000 0.95230  0.87090  0.13770  Biso   1.000  H
  H349     1.0000 0.94390  0.81420  0.14680  Biso   1.000  H
  N45      1.0000 0.15968  0.00256  0.03462  Biso   1.000  N
  H350     1.0000 0.18980  0.02140  0.04000  Biso   1.000  H
  H351     1.0000 0.14350  0.02130  0.02010  Biso   1.000  H
  N46      1.0000 0.23893  0.96038  0.99009  Biso   1.000  N
  H352     1.0000 0.22290  0.98880  0.98090  Biso   1.000  H
  H353     1.0000 0.26830  0.97340  0.99980  Biso   1.000  H
  N47      1.0000 0.29601  0.79014  0.14037  Biso   1.000  N
  H354     1.0000 0.28890  0.79070  0.15950  Biso   1.000  H
  H355     1.0000 0.33070  0.77780  0.13830  Biso   1.000  H
  N48      1.0000 0.26826  0.67987  0.15166  Biso   1.000  N
  H356     1.0000 0.30520  0.67830  0.15240  Biso   1.000  H
  H357     1.0000 0.25640  0.69110  0.16910  Biso   1.000  H
  C187     1.0000 0.04220  0.86180  0.94667  Biso   1.000  C
  C188     1.0000 0.02480  0.83610  0.91932  Biso   1.000  C
  H358     1.0000 0.05640  0.81880  0.90990  Biso   1.000  H
  C189     1.0000 0.99880  0.88330  0.89822  Biso   1.000  C
  C190     1.0000 0.00400  0.89570  0.95967  Biso   1.000  C
  H359     1.0000 0.01930  0.91080  0.97710  Biso   1.000  H
  H360     1.0000 0.97170  0.87490  0.96430  Biso   1.000  H
  H361     1.0000 0.99460  0.92500  0.94670  Biso   1.000  H
  C191     1.0000 0.09540  0.89210  0.94044  Biso   1.000  C
  H362     1.0000 0.12110  0.86750  0.93150  Biso   1.000  H
  H363     1.0000 0.11050  0.90580  0.95820  Biso   1.000  H
  H364     1.0000 0.08810  0.92230  0.92760  Biso   1.000  H
  C192     1.0000 0.97720  0.61790  0.96646  Biso   1.000  C
  C193     1.0000 0.92604  0.64226  0.95616  Biso   1.000  C
  H365     1.0000 0.90340  0.65180  0.97290  Biso   1.000  H
  C194     1.0000 0.89480  0.60450  0.93759  Biso   1.000  C
  C195     1.0000 0.01310  0.60130  0.94060  Biso   1.000  C
  H366     1.0000 0.04670  0.58520  0.94750  Biso   1.000  H
  H367     1.0000 0.02140  0.63320  0.92920  Biso   1.000  H
  H368     1.0000 0.99380  0.57500  0.92900  Biso   1.000  H
  C196     1.0000 0.97130  0.57370  0.98958  Biso   1.000  C
  H369     1.0000 0.00700  0.55970  0.99450  Biso   1.000  H
  H370     1.0000 0.94890  0.54430  0.98230  Biso   1.000  H
  H371     1.0000 0.95440  0.58920  0.00640  Biso   1.000  H
  C197     1.0000 0.18100  0.66900  0.93156  Biso   1.000  C
  C198     1.0000 0.23460  0.68560  0.91920  Biso   1.000  C
  H372     1.0000 0.23870  0.72560  0.92010  Biso   1.000  H
  C199     1.0000 0.24380  0.66480  0.88736  Biso   1.000  C
  C200     1.0000 0.17140  0.60735  0.93016  Biso   1.000  C
  H373     1.0000 0.20190  0.58860  0.93890  Biso   1.000  H
  H374     1.0000 0.16800  0.59620  0.91030  Biso   1.000  H
  H375     1.0000 0.13830  0.59830  0.94040  Biso   1.000  H
  C201     1.0000 0.13650  0.69850  0.91932  Biso   1.000  C
  H376     1.0000 0.10260  0.68600  0.92760  Biso   1.000  H
  H377     1.0000 0.13580  0.69260  0.89880  Biso   1.000  H
  H378     1.0000 0.14100  0.73700  0.92320  Biso   1.000  H
  C202     1.0000 0.34500  0.67540  0.03246  Biso   1.000  C
  C203     1.0000 0.36060  0.62610  0.01621  Biso   1.000  C
  H379     1.0000 0.34320  0.59300  0.02410  Biso   1.000  H
  C204     1.0000 0.42590  0.62110  0.01606  Biso   1.000  C
  C205     1.0000 0.37110  0.73150  0.02204  Biso   1.000  C
  H380     1.0000 0.36640  0.73510  0.00150  Biso   1.000  H
  H381     1.0000 0.40950  0.73190  0.02660  Biso   1.000  H
  H382     1.0000 0.35310  0.76150  0.03160  Biso   1.000  H
  C206     1.0000 0.35280  0.67100  0.06160  Biso   1.000  C
  H383     1.0000 0.34130  0.70440  0.07080  Biso   1.000  H
  H384     1.0000 0.39100  0.66470  0.06550  Biso   1.000  H
  H385     1.0000 0.33150  0.64080  0.06890  Biso   1.000  H
  C207     1.0000 0.15880  0.51730  0.01672  Biso   1.000  C
  C208     1.0000 0.15920  0.47622  0.04030  Biso   1.000  C
  H386     1.0000 0.18710  0.48620  0.05460  Biso   1.000  H
  C209     1.0000 0.17220  0.42300  0.02813  Biso   1.000  C
  C210     1.0000 0.11780  0.50590  0.99404  Biso   1.000  C
  H387     1.0000 0.08320  0.49730  0.00290  Biso   1.000  H
  H388     1.0000 0.12980  0.47530  0.98260  Biso   1.000  H
  H389     1.0000 0.11380  0.53770  0.98190  Biso   1.000  H
  C211     1.0000 0.21250  0.53240  0.00249  Biso   1.000  C
  H390     1.0000 0.23900  0.54180  0.01700  Biso   1.000  H
  H391     1.0000 0.20700  0.56320  0.98990  Biso   1.000  H
  H392     1.0000 0.22570  0.50170  0.99150  Biso   1.000  H
  C212     1.0000 0.97600  0.60020  0.09849  Biso   1.000  C
  C213     1.0000 0.96070  0.54339  0.08713  Biso   1.000  C
  H393     1.0000 0.94470  0.54680  0.06780  Biso   1.000  H
  C214     1.0000 0.01150  0.57970  0.85712  Biso   1.000  C
  C215     1.0000 0.99680  0.59730  0.12928  Biso   1.000  C
  H394     1.0000 0.00580  0.63360  0.13590  Biso   1.000  H
  H395     1.0000 0.02900  0.57460  0.13000  Biso   1.000  H
  H396     1.0000 0.96880  0.58180  0.14150  Biso   1.000  H
  C216     1.0000 0.93540  0.64450  0.09716  Biso   1.000  C
  H397     1.0000 0.95070  0.67730  0.10540  Biso   1.000  H
  H398     1.0000 0.90320  0.63400  0.10780  Biso   1.000  H
  H399     1.0000 0.92560  0.65120  0.07740  Biso   1.000  H
  C217     1.0000 0.91120  0.80520  0.03722  Biso   1.000  C
  C218     1.0000 0.87360  0.79770  0.06232  Biso   1.000  C
  H400     1.0000 0.87140  0.75850  0.06700  Biso   1.000  H
  C219     1.0000 0.81890  0.81780  0.05561  Biso   1.000  C
  C220     1.0000 0.91850  0.86754  0.02989  Biso   1.000  C
  H401     1.0000 0.92770  0.88730  0.04720  Biso   1.000  H
  H402     1.0000 0.88480  0.88170  0.02210  Biso   1.000  H
  H403     1.0000 0.94740  0.87180  0.01600  Biso   1.000  H
  C221     1.0000 0.89800  0.77550  0.01160  Biso   1.000  C
  H404     1.0000 0.92430  0.78400  0.99680  Biso   1.000  H
  H405     1.0000 0.86190  0.78550  0.00520  Biso   1.000  H
  H406     1.0000 0.89900  0.73680  0.01560  Biso   1.000  H
  C222     1.0000 0.05190  0.79150  0.14841  Biso   1.000  C
  C223     1.0000 0.01670  0.83860  0.15296  Biso   1.000  C
  H407     1.0000 0.03680  0.87230  0.14810  Biso   1.000  H
  C224     1.0000 0.99210  0.84340  0.18467  Biso   1.000  C
  C225     1.0000 0.02100  0.73750  0.15787  Biso   1.000  C
  H408     1.0000 0.98460  0.73760  0.14990  Biso   1.000  H
  H409     1.0000 0.01880  0.73610  0.17860  Biso   1.000  H
  H410     1.0000 0.04070  0.70600  0.15090  Biso   1.000  H
  C226     1.0000 0.10559  0.79580  0.16046  Biso   1.000  C
  H411     1.0000 0.12580  0.76280  0.15650  Biso   1.000  H
  H412     1.0000 0.10280  0.80110  0.18100  Biso   1.000  H
  H413     1.0000 0.12430  0.82660  0.15200  Biso   1.000  H
  C227     1.0000 0.07850  0.95810  0.05341  Biso   1.000  C
  C228     1.0000 0.12010  0.99960  0.06009  Biso   1.000  C
  H414     1.0000 0.14080  0.98710  0.07700  Biso   1.000  H
  C229     1.0000 0.09880  0.05230  0.06619  Biso   1.000  C
  C230     1.0000 0.04340  0.97110  0.02777  Biso   1.000  C
  H415     1.0000 0.01700  0.94240  0.02500  Biso   1.000  H
  H416     1.0000 0.06620  0.97410  0.01090  Biso   1.000  H
  H417     1.0000 0.02470  0.00530  0.03100  Biso   1.000  H
  C231     1.0000 0.04280  0.94860  0.08043  Biso   1.000  C
  H418     1.0000 0.01470  0.92210  0.07610  Biso   1.000  H
  H419     1.0000 0.02600  0.98260  0.08610  Biso   1.000  H
  H420     1.0000 0.06530  0.93510  0.09590  Biso   1.000  H
  C232     1.0000 0.27460  0.86727  0.98286  Biso   1.000  C
  C233     1.0000 0.25690  0.92020  0.96911  Biso   1.000  C
  H421     1.0000 0.22510  0.91180  0.95690  Biso   1.000  H
  C234     1.0000 0.79850  0.55390  0.79958  Biso   1.000  C
  C235     1.0000 0.32200  0.87470  0.00126  Biso   1.000  C
  H422     1.0000 0.31480  0.90340  0.01490  Biso   1.000  H
  H423     1.0000 0.35320  0.88440  0.98970  Biso   1.000  H
  H424     1.0000 0.32950  0.84110  0.01140  Biso   1.000  H
  C236     1.0000 0.28090  0.82610  0.96169  Biso   1.000  C
  H425     1.0000 0.24780  0.82340  0.95050  Biso   1.000  H
  H426     1.0000 0.28800  0.79150  0.97090  Biso   1.000  H
  H427     1.0000 0.31110  0.83530  0.94930  Biso   1.000  H
  C237     1.0000 0.28730  0.84513  0.09878  Biso   1.000  C
  C238     1.0000 0.29500  0.84750  0.13020  Biso   1.000  C
  H428     1.0000 0.26090  0.86320  0.13790  Biso   1.000  H
  C239     1.0000 0.33820  0.88450  0.13930  Biso   1.000  C
  C240     1.0000 0.34090  0.82250  0.08454  Biso   1.000  C
  H429     1.0000 0.33620  0.82110  0.06400  Biso   1.000  H
  H430     1.0000 0.34820  0.78630  0.09170  Biso   1.000  H
  H431     1.0000 0.37110  0.84630  0.08920  Biso   1.000  H
  C241     1.0000 0.27390  0.90170  0.08577  Biso   1.000  C
  H432     1.0000 0.27000  0.89830  0.06520  Biso   1.000  H
  H433     1.0000 0.30320  0.92690  0.09010  Biso   1.000  H
  H434     1.0000 0.24030  0.91520  0.09390  Biso   1.000  H
  C242     1.0000 0.18845  0.62490  0.13650  Biso   1.000  C
  C243     1.0000 0.24540  0.61970  0.14597  Biso   1.000  C
  H435     1.0000 0.26580  0.60560  0.12930  Biso   1.000  H
  C244     1.0000 0.25850  0.58050  0.17118  Biso   1.000  C
  C245     1.0000 0.15450  0.64370  0.15908  Biso   1.000  C
  H436     1.0000 0.11710  0.64510  0.15250  Biso   1.000  H
  H437     1.0000 0.16610  0.67980  0.16490  Biso   1.000  H
  H438     1.0000 0.15730  0.61900  0.17520  Biso   1.000  H
  C246     1.0000 0.17300  0.56440  0.12461  Biso   1.000  C
  H439     1.0000 0.19770  0.55450  0.10930  Biso   1.000  H
  H440     1.0000 0.13600  0.56460  0.11740  Biso   1.000  H
  H441     1.0000 0.17600  0.53820  0.14000  Biso   1.000  H
  O109     1.0000 0.92999  0.58123  0.81318  Biso   1.000  O
  O110     1.0000 0.90910  0.65910  0.83476  Biso   1.000  O
  C247     1.0000 0.93340  0.63081  0.81382  Biso   1.000  C
  C248     1.0000 0.95370  0.66350  0.78574  Biso   1.000  C
  H442     1.0000 0.95350  0.70230  0.78970  Biso   1.000  H
  H443     1.0000 0.92940  0.65580  0.76990  Biso   1.000  H
  H444     1.0000 0.99020  0.65210  0.78080  Biso   1.000  H
  La14     1.0000 0.27451  0.65939  0.23970  Biso   1.000  La
  La15     1.0000 0.54752  0.60915  0.02127  Biso   1.000  La
  La16     1.0000 0.53006  0.56678  0.04173  Biso   1.000  La
  O111     1.0000 0.62800  0.55390  0.01850  Biso   1.000  O
  O112     1.0000 0.51030  0.64600  0.07674  Biso   1.000  O
  Ag33     1.0000 0.78280  0.15550  0.02211  Biso   1.000  Ag
  Ag34     1.0000 0.64918  0.10959  0.00127  Biso   1.000  Ag
  Ag35     1.0000 0.68546  0.99703  0.96317  Biso   1.000  Ag
  Ag36     1.0000 0.82463  0.05643  0.97761  Biso   1.000  Ag
  Ag37     1.0000 0.77137  0.23580  0.96075  Biso   1.000  Ag
  Ag38     1.0000 0.62494  0.21523  0.93992  Biso   1.000  Ag
  Ag39     1.0000 0.69757  0.09222  0.90594  Biso   1.000  Ag
  Ag40     1.0000 0.84657  0.13979  0.90635  Biso   1.000  Ag
  Pd25     1.0000 0.74126  0.99601  0.04556  Biso   1.000  Pd
  Pd26     1.0000 0.66501  0.27235  0.02134  Biso   1.000  Pd
  Pd27     1.0000 0.54492  0.07007  0.93763  Biso   1.000  Pd
  Pd28     1.0000 0.81152  0.97579  0.90414  Biso   1.000  Pd
  Pd29     1.0000 0.92629  0.18346  0.98062  Biso   1.000  Pd
  Pd30     1.0000 0.73517  0.24709  0.87710  Biso   1.000  Pd
  Br5      1.0000 0.73555  0.12435  0.96095  Biso   1.000  Br
  La17     1.0000 0.57663  0.87738  0.13724  Biso   1.000  La
  S49      1.0000 0.80116  0.05792  0.03039  Biso   1.000  S
  S50      1.0000 0.67334  0.01457  0.01496  Biso   1.000  S
  S51      1.0000 0.68898  0.18665  0.02995  Biso   1.000  S
  S52      1.0000 0.68016  0.27179  0.97391  Biso   1.000  S
  S53      1.0000 0.58017  0.13660  0.96558  Biso   1.000  S
  S54      1.0000 0.62462  0.03139  0.92550  Biso   1.000  S
  S55      1.0000 0.78248  0.98007  0.94939  Biso   1.000  S
  S56      1.0000 0.78950  0.06002  0.89102  Biso   1.000  S
  S57      1.0000 0.89309  0.11563  0.95306  Biso   1.000  S
  S58      1.0000 0.84610  0.21516  0.99594  Biso   1.000  S
  S59      1.0000 0.80055  0.23043  0.90967  Biso   1.000  S
  S60      1.0000 0.67287  0.18834  0.89347  Biso   1.000  S
  O113     1.0000 0.89085  0.95147  0.10049  Biso   1.000  O
  O114     1.0000 0.90623  0.03560  0.11679  Biso   1.000  O
  O115     1.0000 0.61275  0.89273  0.08831  Biso   1.000  O
  O116     1.0000 0.56430  0.87410  0.05173  Biso   1.000  O
  O117     1.0000 0.62503  0.26248  0.11919  Biso   1.000  O
  O118     1.0000 0.70210  0.22280  0.12721  Biso   1.000  O
  O119     1.0000 0.64090  0.45630  0.00617  Biso   1.000  O
  O120     1.0000 0.59770  0.44200  0.96165  Biso   1.000  O
  O121     1.0000 0.38657  0.13900  0.97557  Biso   1.000  O
  O122     1.0000 0.41090  0.22040  0.97339  Biso   1.000  O
  O123     1.0000 0.56628  0.97495  0.13133  Biso   1.000  O
  O124     1.0000 0.62764  0.03607  0.14345  Biso   1.000  O
  O125     1.0000 0.86248  0.80215  0.93527  Biso   1.000  O
  O126     1.0000 0.78654  0.79044  0.95711  Biso   1.000  O
  O127     1.0000 0.82814  0.95215  0.80777  Biso   1.000  O
  O128     1.0000 0.86410  0.03071  0.79858  Biso   1.000  O
  O129     1.0000 0.08456  0.08910  0.95419  Biso   1.000  O
  O130     1.0000 0.06190  0.08580  0.90990  Biso   1.000  O
  O131     1.0000 0.51106  0.82184  0.20876  Biso   1.000  O
  O132     1.0000 0.57721  0.81006  0.17730  Biso   1.000  O
  O133     1.0000 0.85721  0.38188  0.85313  Biso   1.000  O
  O134     1.0000 0.93220  0.33844  0.86008  Biso   1.000  O
  O135     1.0000 0.60539  0.26500  0.80564  Biso   1.000  O
  O136     1.0000 0.53434  0.25589  0.83120  Biso   1.000  O
  N49      1.0000 0.79524  0.98150  0.07573  Biso   1.000  N
  H445     1.0000 0.77710  0.97550  0.09240  Biso   1.000  H
  H446     1.0000 0.81320  0.95020  0.07120  Biso   1.000  H
  N50      1.0000 0.69121  0.93568  0.06039  Biso   1.000  N
  H447     1.0000 0.71060  0.90420  0.06110  Biso   1.000  H
  H448     1.0000 0.68130  0.94410  0.07860  Biso   1.000  H
  N51      1.0000 0.65890  0.28008  0.06547  Biso   1.000  N
  H449     1.0000 0.67440  0.31200  0.07100  Biso   1.000  H
  H450     1.0000 0.62310  0.28120  0.07050  Biso   1.000  H
  N52      1.0000 0.63220  0.34940  0.01501  Biso   1.000  N
  H451     1.0000 0.59920  0.35160  0.02370  Biso   1.000  H
  H452     1.0000 0.65440  0.37490  0.02300  Biso   1.000  H
  N53      1.0000 0.47353  0.10522  0.94565  Biso   1.000  N
  H453     1.0000 0.45530  0.10890  0.92880  Biso   1.000  H
  H454     1.0000 0.45370  0.08250  0.95700  Biso   1.000  H
  N54      1.0000 0.51171  0.00938  0.91439  Biso   1.000  N
  H455     1.0000 0.47870  0.00100  0.92200  Biso   1.000  H
  H456     1.0000 0.50600  0.02170  0.89630  Biso   1.000  H
  N55      1.0000 0.82770  0.89723  0.91254  Biso   1.000  N
  H457     1.0000 0.81950  0.87720  0.89670  Biso   1.000  H
  H458     1.0000 0.86410  0.89380  0.91570  Biso   1.000  H
  N56      1.0000 0.83700  0.96735  0.86236  Biso   1.000  N
  H459     1.0000 0.87090  0.95230  0.86230  Biso   1.000  H
  H460     1.0000 0.81420  0.94390  0.85320  Biso   1.000  H
  N57      1.0000 0.00256  0.15968  0.96538  Biso   1.000  N
  H461     1.0000 0.02140  0.18980  0.96000  Biso   1.000  H
  H462     1.0000 0.02130  0.14350  0.97990  Biso   1.000  H
  N58      1.0000 0.96038  0.23893  0.00991  Biso   1.000  N
  H463     1.0000 0.98880  0.22290  0.01910  Biso   1.000  H
  H464     1.0000 0.97340  0.26830  0.00020  Biso   1.000  H
  N59      1.0000 0.79014  0.29601  0.85963  Biso   1.000  N
  H465     1.0000 0.79070  0.28890  0.84050  Biso   1.000  H
  H466     1.0000 0.77780  0.33070  0.86170  Biso   1.000  H
  N60      1.0000 0.67987  0.26826  0.84834  Biso   1.000  N
  H467     1.0000 0.67830  0.30520  0.84760  Biso   1.000  H
  H468     1.0000 0.69110  0.25640  0.83090  Biso   1.000  H
  C249     1.0000 0.86180  0.04220  0.05333  Biso   1.000  C
  C250     1.0000 0.83610  0.02480  0.08068  Biso   1.000  C
  H469     1.0000 0.81880  0.05640  0.09010  Biso   1.000  H
  C251     1.0000 0.88330  0.99880  0.10178  Biso   1.000  C
  C252     1.0000 0.89570  0.00400  0.04033  Biso   1.000  C
  H470     1.0000 0.91080  0.01930  0.02290  Biso   1.000  H
  H471     1.0000 0.87490  0.97170  0.03570  Biso   1.000  H
  H472     1.0000 0.92500  0.99460  0.05330  Biso   1.000  H
  C253     1.0000 0.89210  0.09540  0.05956  Biso   1.000  C
  H473     1.0000 0.86750  0.12110  0.06850  Biso   1.000  H
  H474     1.0000 0.90580  0.11050  0.04180  Biso   1.000  H
  H475     1.0000 0.92230  0.08810  0.07240  Biso   1.000  H
  C254     1.0000 0.61790  0.97720  0.03354  Biso   1.000  C
  C255     1.0000 0.64226  0.92604  0.04384  Biso   1.000  C
  H476     1.0000 0.65180  0.90340  0.02710  Biso   1.000  H
  C256     1.0000 0.60450  0.89480  0.06241  Biso   1.000  C
  C257     1.0000 0.60130  0.01310  0.05940  Biso   1.000  C
  H477     1.0000 0.58520  0.04670  0.05250  Biso   1.000  H
  H478     1.0000 0.63320  0.02140  0.07080  Biso   1.000  H
  H479     1.0000 0.57500  0.99380  0.07100  Biso   1.000  H
  C258     1.0000 0.57370  0.97130  0.01042  Biso   1.000  C
  H480     1.0000 0.55970  0.00700  0.00550  Biso   1.000  H
  H481     1.0000 0.54430  0.94890  0.01770  Biso   1.000  H
  H482     1.0000 0.58920  0.95440  0.99360  Biso   1.000  H
  C259     1.0000 0.66900  0.18100  0.06844  Biso   1.000  C
  C260     1.0000 0.68560  0.23460  0.08080  Biso   1.000  C
  H483     1.0000 0.72560  0.23870  0.07990  Biso   1.000  H
  C261     1.0000 0.66480  0.24380  0.11264  Biso   1.000  C
  C262     1.0000 0.60735  0.17140  0.06984  Biso   1.000  C
  H484     1.0000 0.58860  0.20190  0.06110  Biso   1.000  H
  H485     1.0000 0.59620  0.16800  0.08970  Biso   1.000  H
  H486     1.0000 0.59830  0.13830  0.05960  Biso   1.000  H
  C263     1.0000 0.69850  0.13650  0.08068  Biso   1.000  C
  H487     1.0000 0.68600  0.10260  0.07240  Biso   1.000  H
  H488     1.0000 0.69260  0.13580  0.10120  Biso   1.000  H
  H489     1.0000 0.73700  0.14100  0.07680  Biso   1.000  H
  C264     1.0000 0.67540  0.34500  0.96754  Biso   1.000  C
  C265     1.0000 0.62610  0.36060  0.98379  Biso   1.000  C
  H490     1.0000 0.59300  0.34320  0.97590  Biso   1.000  H
  C266     1.0000 0.62110  0.42590  0.98394  Biso   1.000  C
  C267     1.0000 0.73150  0.37110  0.97796  Biso   1.000  C
  H491     1.0000 0.73510  0.36640  0.99850  Biso   1.000  H
  H492     1.0000 0.73190  0.40950  0.97340  Biso   1.000  H
  H493     1.0000 0.76150  0.35310  0.96840  Biso   1.000  H
  C268     1.0000 0.67100  0.35280  0.93840  Biso   1.000  C
  H494     1.0000 0.70440  0.34130  0.92920  Biso   1.000  H
  H495     1.0000 0.66470  0.39100  0.93450  Biso   1.000  H
  H496     1.0000 0.64080  0.33150  0.93110  Biso   1.000  H
  C269     1.0000 0.51730  0.15880  0.98328  Biso   1.000  C
  C270     1.0000 0.47622  0.15920  0.95970  Biso   1.000  C
  H497     1.0000 0.48620  0.18710  0.94540  Biso   1.000  H
  C271     1.0000 0.42300  0.17220  0.97187  Biso   1.000  C
  C272     1.0000 0.50590  0.11780  0.00596  Biso   1.000  C
  H498     1.0000 0.49730  0.08320  0.99710  Biso   1.000  H
  H499     1.0000 0.47530  0.12980  0.01740  Biso   1.000  H
  H500     1.0000 0.53770  0.11380  0.01810  Biso   1.000  H
  C273     1.0000 0.53240  0.21250  0.99751  Biso   1.000  C
  H501     1.0000 0.54180  0.23900  0.98300  Biso   1.000  H
  H502     1.0000 0.56320  0.20700  0.01010  Biso   1.000  H
  H503     1.0000 0.50170  0.22570  0.00850  Biso   1.000  H
  C274     1.0000 0.60020  0.97600  0.90151  Biso   1.000  C
  C275     1.0000 0.54339  0.96070  0.91287  Biso   1.000  C
  H504     1.0000 0.54680  0.94470  0.93220  Biso   1.000  H
  C276     1.0000 0.57970  0.01150  0.14288  Biso   1.000  C
  C277     1.0000 0.59730  0.99680  0.87072  Biso   1.000  C
  H505     1.0000 0.63360  0.00580  0.86410  Biso   1.000  H
  H506     1.0000 0.57460  0.02900  0.87000  Biso   1.000  H
  H507     1.0000 0.58180  0.96880  0.85850  Biso   1.000  H
  C278     1.0000 0.64450  0.93540  0.90284  Biso   1.000  C
  H508     1.0000 0.67730  0.95070  0.89460  Biso   1.000  H
  H509     1.0000 0.63400  0.90320  0.89220  Biso   1.000  H
  H510     1.0000 0.65120  0.92560  0.92260  Biso   1.000  H
  C279     1.0000 0.80520  0.91120  0.96278  Biso   1.000  C
  C280     1.0000 0.79770  0.87360  0.93768  Biso   1.000  C
  H511     1.0000 0.75850  0.87140  0.93300  Biso   1.000  H
  C281     1.0000 0.81780  0.81890  0.94439  Biso   1.000  C
  C282     1.0000 0.86754  0.91850  0.97011  Biso   1.000  C
  H512     1.0000 0.88730  0.92770  0.95280  Biso   1.000  H
  H513     1.0000 0.88170  0.88480  0.97790  Biso   1.000  H
  H514     1.0000 0.87180  0.94740  0.98400  Biso   1.000  H
  C283     1.0000 0.77550  0.89800  0.98840  Biso   1.000  C
  H515     1.0000 0.78400  0.92430  0.00320  Biso   1.000  H
  H516     1.0000 0.78550  0.86190  0.99480  Biso   1.000  H
  H517     1.0000 0.73680  0.89900  0.98440  Biso   1.000  H
  C284     1.0000 0.79150  0.05190  0.85159  Biso   1.000  C
  C285     1.0000 0.83860  0.01670  0.84704  Biso   1.000  C
  H518     1.0000 0.87230  0.03680  0.85190  Biso   1.000  H
  C286     1.0000 0.84340  0.99210  0.81533  Biso   1.000  C
  C287     1.0000 0.73750  0.02100  0.84213  Biso   1.000  C
  H519     1.0000 0.73760  0.98460  0.85010  Biso   1.000  H
  H520     1.0000 0.73610  0.01880  0.82140  Biso   1.000  H
  H521     1.0000 0.70600  0.04070  0.84910  Biso   1.000  H
  C288     1.0000 0.79580  0.10559  0.83954  Biso   1.000  C
  H522     1.0000 0.76280  0.12580  0.84350  Biso   1.000  H
  H523     1.0000 0.80110  0.10280  0.81900  Biso   1.000  H
  H524     1.0000 0.82660  0.12430  0.84800  Biso   1.000  H
  C289     1.0000 0.95810  0.07850  0.94659  Biso   1.000  C
  C290     1.0000 0.99960  0.12010  0.93991  Biso   1.000  C
  H525     1.0000 0.98710  0.14080  0.92300  Biso   1.000  H
  C291     1.0000 0.05230  0.09880  0.93381  Biso   1.000  C
  C292     1.0000 0.97110  0.04340  0.97223  Biso   1.000  C
  H526     1.0000 0.94240  0.01700  0.97500  Biso   1.000  H
  H527     1.0000 0.97410  0.06620  0.98910  Biso   1.000  H
  H528     1.0000 0.00530  0.02470  0.96900  Biso   1.000  H
  C293     1.0000 0.94860  0.04280  0.91957  Biso   1.000  C
  H529     1.0000 0.92210  0.01470  0.92390  Biso   1.000  H
  H530     1.0000 0.98260  0.02600  0.91390  Biso   1.000  H
  H531     1.0000 0.93510  0.06530  0.90410  Biso   1.000  H
  C294     1.0000 0.86727  0.27460  0.01714  Biso   1.000  C
  C295     1.0000 0.92020  0.25690  0.03089  Biso   1.000  C
  H532     1.0000 0.91180  0.22510  0.04310  Biso   1.000  H
  C296     1.0000 0.55390  0.79850  0.20042  Biso   1.000  C
  C297     1.0000 0.87470  0.32200  0.99874  Biso   1.000  C
  H533     1.0000 0.90340  0.31480  0.98510  Biso   1.000  H
  H534     1.0000 0.88440  0.35320  0.01030  Biso   1.000  H
  H535     1.0000 0.84110  0.32950  0.98860  Biso   1.000  H
  C298     1.0000 0.82610  0.28090  0.03831  Biso   1.000  C
  H536     1.0000 0.82340  0.24780  0.04950  Biso   1.000  H
  H537     1.0000 0.79150  0.28800  0.02910  Biso   1.000  H
  H538     1.0000 0.83530  0.31110  0.05070  Biso   1.000  H
  C299     1.0000 0.84513  0.28730  0.90122  Biso   1.000  C
  C300     1.0000 0.84750  0.29500  0.86980  Biso   1.000  C
  H539     1.0000 0.86320  0.26090  0.86210  Biso   1.000  H
  C301     1.0000 0.88450  0.33820  0.86070  Biso   1.000  C
  C302     1.0000 0.82250  0.34090  0.91546  Biso   1.000  C
  H540     1.0000 0.82110  0.33620  0.93600  Biso   1.000  H
  H541     1.0000 0.78630  0.34820  0.90830  Biso   1.000  H
  H542     1.0000 0.84630  0.37110  0.91080  Biso   1.000  H
  C303     1.0000 0.90170  0.27390  0.91423  Biso   1.000  C
  H543     1.0000 0.89830  0.27000  0.93480  Biso   1.000  H
  H544     1.0000 0.92690  0.30320  0.90990  Biso   1.000  H
  H545     1.0000 0.91520  0.24030  0.90610  Biso   1.000  H
  C304     1.0000 0.62490  0.18845  0.86350  Biso   1.000  C
  C305     1.0000 0.61970  0.24540  0.85403  Biso   1.000  C
  H546     1.0000 0.60560  0.26580  0.87070  Biso   1.000  H
  C306     1.0000 0.58050  0.25850  0.82882  Biso   1.000  C
  C307     1.0000 0.64370  0.15450  0.84092  Biso   1.000  C
  H547     1.0000 0.64510  0.11710  0.84750  Biso   1.000  H
  H548     1.0000 0.67980  0.16610  0.83510  Biso   1.000  H
  H549     1.0000 0.61900  0.15730  0.82480  Biso   1.000  H
  C308     1.0000 0.56440  0.17300  0.87539  Biso   1.000  C
  H550     1.0000 0.55450  0.19770  0.89070  Biso   1.000  H
  H551     1.0000 0.56460  0.13600  0.88260  Biso   1.000  H
  H552     1.0000 0.53820  0.17600  0.86000  Biso   1.000  H
  O137     1.0000 0.58123  0.92999  0.18682  Biso   1.000  O
  O138     1.0000 0.65910  0.90910  0.16524  Biso   1.000  O
  C309     1.0000 0.63081  0.93340  0.18618  Biso   1.000  C
  C310     1.0000 0.66350  0.95370  0.21426  Biso   1.000  C
  H553     1.0000 0.70230  0.95350  0.21030  Biso   1.000  H
  H554     1.0000 0.65580  0.92940  0.23010  Biso   1.000  H
  H555     1.0000 0.65210  0.99020  0.21920  Biso   1.000  H
  La18     1.0000 0.65939  0.27451  0.76030  Biso   1.000  La
  La19     1.0000 0.60915  0.54752  0.97873  Biso   1.000  La
  La20     1.0000 0.56678  0.53006  0.95827  Biso   1.000  La
  O139     1.0000 0.55390  0.62800  0.98150  Biso   1.000  O
  O140     1.0000 0.64600  0.51030  0.92326  Biso   1.000  O
  Ag41     1.0000 0.21720  0.84450  0.52211  Biso   1.000  Ag
  Ag42     1.0000 0.35082  0.89041  0.50127  Biso   1.000  Ag
  Ag43     1.0000 0.31454  0.00297  0.46317  Biso   1.000  Ag
  Ag44     1.0000 0.17537  0.94357  0.47761  Biso   1.000  Ag
  Ag45     1.0000 0.22863  0.76420  0.46075  Biso   1.000  Ag
  Ag46     1.0000 0.37506  0.78477  0.43992  Biso   1.000  Ag
  Ag47     1.0000 0.30243  0.90778  0.40594  Biso   1.000  Ag
  Ag48     1.0000 0.15343  0.86021  0.40635  Biso   1.000  Ag
  Pd31     1.0000 0.25874  0.00399  0.54556  Biso   1.000  Pd
  Pd32     1.0000 0.33499  0.72765  0.52134  Biso   1.000  Pd
  Pd33     1.0000 0.45508  0.92993  0.43763  Biso   1.000  Pd
  Pd34     1.0000 0.18848  0.02421  0.40414  Biso   1.000  Pd
  Pd35     1.0000 0.07371  0.81654  0.48062  Biso   1.000  Pd
  Pd36     1.0000 0.26483  0.75291  0.37710  Biso   1.000  Pd
  Br6      1.0000 0.26445  0.87565  0.46095  Biso   1.000  Br
  La21     1.0000 0.42337  0.12262  0.63724  Biso   1.000  La
  S61      1.0000 0.19884  0.94208  0.53039  Biso   1.000  S
  S62      1.0000 0.32666  0.98543  0.51496  Biso   1.000  S
  S63      1.0000 0.31102  0.81335  0.52995  Biso   1.000  S
  S64      1.0000 0.31984  0.72821  0.47391  Biso   1.000  S
  S65      1.0000 0.41983  0.86340  0.46558  Biso   1.000  S
  S66      1.0000 0.37538  0.96861  0.42550  Biso   1.000  S
  S67      1.0000 0.21752  0.01993  0.44939  Biso   1.000  S
  S68      1.0000 0.21050  0.93998  0.39102  Biso   1.000  S
  S69      1.0000 0.10691  0.88437  0.45306  Biso   1.000  S
  S70      1.0000 0.15390  0.78484  0.49594  Biso   1.000  S
  S71      1.0000 0.19945  0.76957  0.40967  Biso   1.000  S
  S72      1.0000 0.32713  0.81166  0.39347  Biso   1.000  S
  O141     1.0000 0.10915  0.04853  0.60049  Biso   1.000  O
  O142     1.0000 0.09377  0.96440  0.61679  Biso   1.000  O
  O143     1.0000 0.38725  0.10727  0.58831  Biso   1.000  O
  O144     1.0000 0.43570  0.12590  0.55173  Biso   1.000  O
  O145     1.0000 0.37497  0.73752  0.61919  Biso   1.000  O
  O146     1.0000 0.29790  0.77720  0.62721  Biso   1.000  O
  O147     1.0000 0.35910  0.54370  0.50617  Biso   1.000  O
  O148     1.0000 0.40230  0.55800  0.46165  Biso   1.000  O
  O149     1.0000 0.61343  0.86100  0.47557  Biso   1.000  O
  O150     1.0000 0.58910  0.77960  0.47339  Biso   1.000  O
  O151     1.0000 0.43372  0.02505  0.63133  Biso   1.000  O
  O152     1.0000 0.37236  0.96393  0.64345  Biso   1.000  O
  O153     1.0000 0.13752  0.19785  0.43527  Biso   1.000  O
  O154     1.0000 0.21346  0.20956  0.45711  Biso   1.000  O
  O155     1.0000 0.17186  0.04785  0.30777  Biso   1.000  O
  O156     1.0000 0.13590  0.96929  0.29858  Biso   1.000  O
  O157     1.0000 0.91544  0.91090  0.45419  Biso   1.000  O
  O158     1.0000 0.93810  0.91420  0.40990  Biso   1.000  O
  O159     1.0000 0.48894  0.17816  0.70876  Biso   1.000  O
  O160     1.0000 0.42279  0.18994  0.67730  Biso   1.000  O
  O161     1.0000 0.14279  0.61812  0.35313  Biso   1.000  O
  O162     1.0000 0.06780  0.66156  0.36008  Biso   1.000  O
  O163     1.0000 0.39461  0.73500  0.30564  Biso   1.000  O
  O164     1.0000 0.46566  0.74411  0.33120  Biso   1.000  O
  N61      1.0000 0.20476  0.01850  0.57573  Biso   1.000  N
  H556     1.0000 0.22290  0.02450  0.59240  Biso   1.000  H
  H557     1.0000 0.18680  0.04980  0.57120  Biso   1.000  H
  N62      1.0000 0.30879  0.06432  0.56039  Biso   1.000  N
  H558     1.0000 0.28940  0.09580  0.56110  Biso   1.000  H
  H559     1.0000 0.31870  0.05590  0.57860  Biso   1.000  H
  N63      1.0000 0.34110  0.71992  0.56547  Biso   1.000  N
  H560     1.0000 0.32560  0.68800  0.57100  Biso   1.000  H
  H561     1.0000 0.37690  0.71880  0.57050  Biso   1.000  H
  N64      1.0000 0.36780  0.65060  0.51501  Biso   1.000  N
  H562     1.0000 0.40080  0.64840  0.52370  Biso   1.000  H
  H563     1.0000 0.34560  0.62510  0.52300  Biso   1.000  H
  N65      1.0000 0.52647  0.89478  0.44565  Biso   1.000  N
  H564     1.0000 0.54470  0.89110  0.42880  Biso   1.000  H
  H565     1.0000 0.54630  0.91750  0.45700  Biso   1.000  H
  N66      1.0000 0.48829  0.99062  0.41439  Biso   1.000  N
  H566     1.0000 0.52130  0.99900  0.42200  Biso   1.000  H
  H567     1.0000 0.49400  0.97830  0.39630  Biso   1.000  H
  N67      1.0000 0.17230  0.10277  0.41254  Biso   1.000  N
  H568     1.0000 0.18050  0.12280  0.39670  Biso   1.000  H
  H569     1.0000 0.13590  0.10620  0.41570  Biso   1.000  H
  N68      1.0000 0.16300  0.03265  0.36236  Biso   1.000  N
  H570     1.0000 0.12910  0.04770  0.36230  Biso   1.000  H
  H571     1.0000 0.18580  0.05610  0.35320  Biso   1.000  H
  N69      1.0000 0.99744  0.84032  0.46538  Biso   1.000  N
  H572     1.0000 0.97860  0.81020  0.46000  Biso   1.000  H
  H573     1.0000 0.97870  0.85650  0.47990  Biso   1.000  H
  N70      1.0000 0.03962  0.76107  0.50991  Biso   1.000  N
  H574     1.0000 0.01120  0.77710  0.51910  Biso   1.000  H
  H575     1.0000 0.02660  0.73170  0.50020  Biso   1.000  H
  N71      1.0000 0.20986  0.70399  0.35963  Biso   1.000  N
  H576     1.0000 0.20930  0.71110  0.34050  Biso   1.000  H
  H577     1.0000 0.22220  0.66930  0.36170  Biso   1.000  H
  N72      1.0000 0.32013  0.73174  0.34834  Biso   1.000  N
  H578     1.0000 0.32170  0.69480  0.34760  Biso   1.000  H
  H579     1.0000 0.30890  0.74360  0.33090  Biso   1.000  H
  C311     1.0000 0.13820  0.95780  0.55333  Biso   1.000  C
  C312     1.0000 0.16390  0.97520  0.58068  Biso   1.000  C
  H580     1.0000 0.18120  0.94360  0.59010  Biso   1.000  H
  C313     1.0000 0.11670  0.00120  0.60178  Biso   1.000  C
  C314     1.0000 0.10430  0.99600  0.54033  Biso   1.000  C
  H581     1.0000 0.08920  0.98070  0.52290  Biso   1.000  H
  H582     1.0000 0.12510  0.02830  0.53570  Biso   1.000  H
  H583     1.0000 0.07500  0.00540  0.55330  Biso   1.000  H
  C315     1.0000 0.10790  0.90460  0.55956  Biso   1.000  C
  H584     1.0000 0.13250  0.87890  0.56850  Biso   1.000  H
  H585     1.0000 0.09420  0.88950  0.54180  Biso   1.000  H
  H586     1.0000 0.07770  0.91190  0.57240  Biso   1.000  H
  C316     1.0000 0.38210  0.02280  0.53354  Biso   1.000  C
  C317     1.0000 0.35774  0.07396  0.54384  Biso   1.000  C
  H587     1.0000 0.34820  0.09660  0.52710  Biso   1.000  H
  C318     1.0000 0.39550  0.10520  0.56241  Biso   1.000  C
  C319     1.0000 0.39870  0.98690  0.55940  Biso   1.000  C
  H588     1.0000 0.41480  0.95330  0.55250  Biso   1.000  H
  H589     1.0000 0.36680  0.97860  0.57080  Biso   1.000  H
  H590     1.0000 0.42500  0.00620  0.57100  Biso   1.000  H
  C320     1.0000 0.42630  0.02870  0.51042  Biso   1.000  C
  H591     1.0000 0.44030  0.99300  0.50550  Biso   1.000  H
  H592     1.0000 0.45570  0.05110  0.51770  Biso   1.000  H
  H593     1.0000 0.41080  0.04560  0.49360  Biso   1.000  H
  C321     1.0000 0.33100  0.81900  0.56844  Biso   1.000  C
  C322     1.0000 0.31440  0.76540  0.58080  Biso   1.000  C
  H594     1.0000 0.27440  0.76130  0.57990  Biso   1.000  H
  C323     1.0000 0.33520  0.75620  0.61264  Biso   1.000  C
  C324     1.0000 0.39265  0.82860  0.56984  Biso   1.000  C
  H595     1.0000 0.41140  0.79810  0.56110  Biso   1.000  H
  H596     1.0000 0.40380  0.83200  0.58970  Biso   1.000  H
  H597     1.0000 0.40170  0.86170  0.55960  Biso   1.000  H
  C325     1.0000 0.30150  0.86350  0.58068  Biso   1.000  C
  H598     1.0000 0.31400  0.89740  0.57240  Biso   1.000  H
  H599     1.0000 0.30740  0.86420  0.60120  Biso   1.000  H
  H600     1.0000 0.26300  0.85900  0.57680  Biso   1.000  H
  C326     1.0000 0.32460  0.65500  0.46754  Biso   1.000  C
  C327     1.0000 0.37390  0.63940  0.48379  Biso   1.000  C
  H601     1.0000 0.40700  0.65680  0.47590  Biso   1.000  H
  C328     1.0000 0.37890  0.57410  0.48394  Biso   1.000  C
  C329     1.0000 0.26850  0.62890  0.47796  Biso   1.000  C
  H602     1.0000 0.26490  0.63360  0.49850  Biso   1.000  H
  H603     1.0000 0.26810  0.59050  0.47340  Biso   1.000  H
  H604     1.0000 0.23850  0.64690  0.46840  Biso   1.000  H
  C330     1.0000 0.32900  0.64720  0.43840  Biso   1.000  C
  H605     1.0000 0.29560  0.65870  0.42920  Biso   1.000  H
  H606     1.0000 0.33530  0.60900  0.43450  Biso   1.000  H
  H607     1.0000 0.35920  0.66850  0.43110  Biso   1.000  H
  C331     1.0000 0.48270  0.84120  0.48328  Biso   1.000  C
  C332     1.0000 0.52378  0.84080  0.45970  Biso   1.000  C
  H608     1.0000 0.51380  0.81290  0.44540  Biso   1.000  H
  C333     1.0000 0.57700  0.82780  0.47187  Biso   1.000  C
  C334     1.0000 0.49410  0.88220  0.50596  Biso   1.000  C
  H609     1.0000 0.50270  0.91680  0.49710  Biso   1.000  H
  H610     1.0000 0.52470  0.87020  0.51740  Biso   1.000  H
  H611     1.0000 0.46230  0.88620  0.51810  Biso   1.000  H
  C335     1.0000 0.46760  0.78750  0.49751  Biso   1.000  C
  H612     1.0000 0.45820  0.76100  0.48300  Biso   1.000  H
  H613     1.0000 0.43680  0.79300  0.51010  Biso   1.000  H
  H614     1.0000 0.49830  0.77430  0.50850  Biso   1.000  H
  C336     1.0000 0.39980  0.02400  0.40151  Biso   1.000  C
  C337     1.0000 0.45661  0.03930  0.41287  Biso   1.000  C
  H615     1.0000 0.45320  0.05530  0.43220  Biso   1.000  H
  C338     1.0000 0.42030  0.98850  0.64288  Biso   1.000  C
  C339     1.0000 0.40270  0.00320  0.37072  Biso   1.000  C
  H616     1.0000 0.36640  0.99420  0.36410  Biso   1.000  H
  H617     1.0000 0.42540  0.97100  0.37000  Biso   1.000  H
  H618     1.0000 0.41820  0.03120  0.35850  Biso   1.000  H
  C340     1.0000 0.35550  0.06460  0.40284  Biso   1.000  C
  H619     1.0000 0.32270  0.04930  0.39460  Biso   1.000  H
  H620     1.0000 0.36600  0.09680  0.39220  Biso   1.000  H
  H621     1.0000 0.34880  0.07440  0.42260  Biso   1.000  H
  C341     1.0000 0.19480  0.08880  0.46278  Biso   1.000  C
  C342     1.0000 0.20230  0.12640  0.43768  Biso   1.000  C
  H622     1.0000 0.24150  0.12860  0.43300  Biso   1.000  H
  C343     1.0000 0.18220  0.18110  0.44439  Biso   1.000  C
  C344     1.0000 0.13246  0.08150  0.47011  Biso   1.000  C
  H623     1.0000 0.11270  0.07230  0.45280  Biso   1.000  H
  H624     1.0000 0.11830  0.11520  0.47790  Biso   1.000  H
  H625     1.0000 0.12820  0.05260  0.48400  Biso   1.000  H
  C345     1.0000 0.22450  0.10200  0.48840  Biso   1.000  C
  H626     1.0000 0.21600  0.07570  0.50320  Biso   1.000  H
  H627     1.0000 0.21450  0.13810  0.49480  Biso   1.000  H
  H628     1.0000 0.26320  0.10100  0.48440  Biso   1.000  H
  C346     1.0000 0.20850  0.94810  0.35159  Biso   1.000  C
  C347     1.0000 0.16140  0.98330  0.34704  Biso   1.000  C
  H629     1.0000 0.12770  0.96320  0.35190  Biso   1.000  H
  C348     1.0000 0.15660  0.00790  0.31533  Biso   1.000  C
  C349     1.0000 0.26250  0.97900  0.34213  Biso   1.000  C
  H630     1.0000 0.26240  0.01540  0.35010  Biso   1.000  H
  H631     1.0000 0.26390  0.98120  0.32140  Biso   1.000  H
  H632     1.0000 0.29400  0.95930  0.34910  Biso   1.000  H
  C350     1.0000 0.20420  0.89441  0.33954  Biso   1.000  C
  H633     1.0000 0.23720  0.87420  0.34350  Biso   1.000  H
  H634     1.0000 0.19890  0.89720  0.31900  Biso   1.000  H
  H635     1.0000 0.17340  0.87570  0.34800  Biso   1.000  H
  C351     1.0000 0.04190  0.92150  0.44659  Biso   1.000  C
  C352     1.0000 0.00040  0.87990  0.43991  Biso   1.000  C
  H636     1.0000 0.01290  0.85920  0.42300  Biso   1.000  H
  C353     1.0000 0.94770  0.90120  0.43381  Biso   1.000  C
  C354     1.0000 0.02890  0.95660  0.47223  Biso   1.000  C
  H637     1.0000 0.05760  0.98300  0.47500  Biso   1.000  H
  H638     1.0000 0.02590  0.93380  0.48910  Biso   1.000  H
  H639     1.0000 0.99470  0.97530  0.46900  Biso   1.000  H
  C355     1.0000 0.05140  0.95720  0.41957  Biso   1.000  C
  H640     1.0000 0.07790  0.98530  0.42390  Biso   1.000  H
  H641     1.0000 0.01740  0.97400  0.41390  Biso   1.000  H
  H642     1.0000 0.06490  0.93470  0.40410  Biso   1.000  H
  C356     1.0000 0.13273  0.72540  0.51714  Biso   1.000  C
  C357     1.0000 0.07980  0.74310  0.53089  Biso   1.000  C
  H643     1.0000 0.08820  0.77490  0.54310  Biso   1.000  H
  C358     1.0000 0.44610  0.20150  0.70042  Biso   1.000  C
  C359     1.0000 0.12530  0.67800  0.49874  Biso   1.000  C
  H644     1.0000 0.09660  0.68520  0.48510  Biso   1.000  H
  H645     1.0000 0.11560  0.64680  0.51030  Biso   1.000  H
  H646     1.0000 0.15890  0.67050  0.48860  Biso   1.000  H
  C360     1.0000 0.17390  0.71910  0.53831  Biso   1.000  C
  H647     1.0000 0.17660  0.75220  0.54950  Biso   1.000  H
  H648     1.0000 0.20850  0.71200  0.52910  Biso   1.000  H
  H649     1.0000 0.16470  0.68890  0.55070  Biso   1.000  H
  C361     1.0000 0.15487  0.71270  0.40122  Biso   1.000  C
  C362     1.0000 0.15250  0.70500  0.36980  Biso   1.000  C
  H650     1.0000 0.13680  0.73910  0.36210  Biso   1.000  H
  C363     1.0000 0.11550  0.66180  0.36070  Biso   1.000  C
  C364     1.0000 0.17750  0.65910  0.41546  Biso   1.000  C
  H651     1.0000 0.17890  0.66380  0.43600  Biso   1.000  H
  H652     1.0000 0.21370  0.65180  0.40830  Biso   1.000  H
  H653     1.0000 0.15370  0.62890  0.41080  Biso   1.000  H
  C365     1.0000 0.09830  0.72610  0.41423  Biso   1.000  C
  H654     1.0000 0.10170  0.73000  0.43480  Biso   1.000  H
  H655     1.0000 0.07310  0.69680  0.40990  Biso   1.000  H
  H656     1.0000 0.08480  0.75970  0.40610  Biso   1.000  H
  C366     1.0000 0.37510  0.81155  0.36350  Biso   1.000  C
  C367     1.0000 0.38030  0.75460  0.35403  Biso   1.000  C
  H657     1.0000 0.39440  0.73420  0.37070  Biso   1.000  H
  C368     1.0000 0.41950  0.74150  0.32882  Biso   1.000  C
  C369     1.0000 0.35630  0.84550  0.34092  Biso   1.000  C
  H658     1.0000 0.35490  0.88290  0.34750  Biso   1.000  H
  H659     1.0000 0.32020  0.83390  0.33510  Biso   1.000  H
  H660     1.0000 0.38100  0.84270  0.32480  Biso   1.000  H
  C370     1.0000 0.43560  0.82700  0.37539  Biso   1.000  C
  H661     1.0000 0.44550  0.80230  0.39070  Biso   1.000  H
  H662     1.0000 0.43540  0.86400  0.38260  Biso   1.000  H
  H663     1.0000 0.46180  0.82400  0.36000  Biso   1.000  H
  O165     1.0000 0.41877  0.07001  0.68682  Biso   1.000  O
  O166     1.0000 0.34090  0.09090  0.66524  Biso   1.000  O
  C371     1.0000 0.36919  0.06660  0.68618  Biso   1.000  C
  C372     1.0000 0.33650  0.04630  0.71426  Biso   1.000  C
  H664     1.0000 0.29770  0.04650  0.71030  Biso   1.000  H
  H665     1.0000 0.34420  0.07060  0.73010  Biso   1.000  H
  H666     1.0000 0.34790  0.00980  0.71920  Biso   1.000  H
  La22     1.0000 0.34061  0.72549  0.26030  Biso   1.000  La
  La23     1.0000 0.39085  0.45248  0.47873  Biso   1.000  La
  La24     1.0000 0.43322  0.46994  0.45827  Biso   1.000  La
  O167     1.0000 0.44610  0.37200  0.48150  Biso   1.000  O
  O168     1.0000 0.35400  0.48970  0.42326  Biso   1.000  O
  Ag49     1.0000 0.65550  0.71720  0.77211  Biso   1.000  Ag
  Ag50     1.0000 0.60959  0.85082  0.75127  Biso   1.000  Ag
  Ag51     1.0000 0.49703  0.81454  0.71317  Biso   1.000  Ag
  Ag52     1.0000 0.55643  0.67537  0.72761  Biso   1.000  Ag
  Ag53     1.0000 0.73580  0.72863  0.71075  Biso   1.000  Ag
  Ag54     1.0000 0.71523  0.87506  0.68992  Biso   1.000  Ag
  Ag55     1.0000 0.59222  0.80243  0.65594  Biso   1.000  Ag
  Ag56     1.0000 0.63979  0.65343  0.65635  Biso   1.000  Ag
  Pd37     1.0000 0.49601  0.75874  0.79556  Biso   1.000  Pd
  Pd38     1.0000 0.77235  0.83499  0.77134  Biso   1.000  Pd
  Pd39     1.0000 0.57007  0.95508  0.68763  Biso   1.000  Pd
  Pd40     1.0000 0.47579  0.68848  0.65414  Biso   1.000  Pd
  Pd41     1.0000 0.68346  0.57371  0.73062  Biso   1.000  Pd
  Pd42     1.0000 0.74709  0.76483  0.62710  Biso   1.000  Pd
  Br7      1.0000 0.62435  0.76445  0.71095  Biso   1.000  Br
  La25     1.0000 0.37738  0.92337  0.88724  Biso   1.000  La
  S73      1.0000 0.55792  0.69884  0.78039  Biso   1.000  S
  S74      1.0000 0.51457  0.82666  0.76496  Biso   1.000  S
  S75      1.0000 0.68665  0.81102  0.77995  Biso   1.000  S
  S76      1.0000 0.77179  0.81984  0.72391  Biso   1.000  S
  S77      1.0000 0.63660  0.91983  0.71558  Biso   1.000  S
  S78      1.0000 0.53139  0.87538  0.67550  Biso   1.000  S
  S79      1.0000 0.48007  0.71752  0.69939  Biso   1.000  S
  S80      1.0000 0.56002  0.71050  0.64102  Biso   1.000  S
  S81      1.0000 0.61563  0.60691  0.70306  Biso   1.000  S
  S82      1.0000 0.71516  0.65390  0.74594  Biso   1.000  S
  S83      1.0000 0.73043  0.69945  0.65967  Biso   1.000  S
  S84      1.0000 0.68834  0.82713  0.64347  Biso   1.000  S
  O169     1.0000 0.45147  0.60915  0.85049  Biso   1.000  O
  O170     1.0000 0.53560  0.59377  0.86679  Biso   1.000  O
  O171     1.0000 0.39273  0.88725  0.83831  Biso   1.000  O
  O172     1.0000 0.37410  0.93570  0.80173  Biso   1.000  O
  O173     1.0000 0.76248  0.87497  0.86919  Biso   1.000  O
  O174     1.0000 0.72280  0.79790  0.87721  Biso   1.000  O
  O175     1.0000 0.95630  0.85910  0.75617  Biso   1.000  O
  O176     1.0000 0.94200  0.90230  0.71165  Biso   1.000  O
  O177     1.0000 0.63900  0.11343  0.72557  Biso   1.000  O
  O178     1.0000 0.72040  0.08910  0.72339  Biso   1.000  O
  O179     1.0000 0.47495  0.93372  0.88133  Biso   1.000  O
  O180     1.0000 0.53607  0.87236  0.89345  Biso   1.000  O
  O181     1.0000 0.30215  0.63752  0.68527  Biso   1.000  O
  O182     1.0000 0.29044  0.71346  0.70711  Biso   1.000  O
  O183     1.0000 0.45215  0.67186  0.55777  Biso   1.000  O
  O184     1.0000 0.53071  0.63590  0.54858  Biso   1.000  O
  O185     1.0000 0.58910  0.41544  0.70419  Biso   1.000  O
  O186     1.0000 0.58580  0.43810  0.65990  Biso   1.000  O
  O187     1.0000 0.32184  0.98894  0.95876  Biso   1.000  O
  O188     1.0000 0.31006  0.92279  0.92730  Biso   1.000  O
  O189     1.0000 0.88188  0.64279  0.60313  Biso   1.000  O
  O190     1.0000 0.83844  0.56780  0.61008  Biso   1.000  O
  O191     1.0000 0.76500  0.89461  0.55564  Biso   1.000  O
  O192     1.0000 0.75589  0.96566  0.58120  Biso   1.000  O
  N73      1.0000 0.48150  0.70476  0.82573  Biso   1.000  N
  H667     1.0000 0.47550  0.72290  0.84240  Biso   1.000  H
  H668     1.0000 0.45020  0.68680  0.82120  Biso   1.000  H
  N74      1.0000 0.43568  0.80879  0.81039  Biso   1.000  N
  H669     1.0000 0.40420  0.78940  0.81110  Biso   1.000  H
  H670     1.0000 0.44410  0.81870  0.82860  Biso   1.000  H
  N75      1.0000 0.78008  0.84110  0.81547  Biso   1.000  N
  H671     1.0000 0.81200  0.82560  0.82100  Biso   1.000  H
  H672     1.0000 0.78120  0.87690  0.82050  Biso   1.000  H
  N76      1.0000 0.84940  0.86780  0.76501  Biso   1.000  N
  H673     1.0000 0.85160  0.90080  0.77370  Biso   1.000  H
  H674     1.0000 0.87490  0.84560  0.77300  Biso   1.000  H
  N77      1.0000 0.60522  0.02647  0.69565  Biso   1.000  N
  H675     1.0000 0.60890  0.04470  0.67880  Biso   1.000  H
  H676     1.0000 0.58250  0.04630  0.70700  Biso   1.000  H
  N78      1.0000 0.50938  0.98829  0.66439  Biso   1.000  N
  H677     1.0000 0.50100  0.02130  0.67200  Biso   1.000  H
  H678     1.0000 0.52170  0.99400  0.64630  Biso   1.000  H
  N79      1.0000 0.39723  0.67230  0.66254  Biso   1.000  N
  H679     1.0000 0.37720  0.68050  0.64670  Biso   1.000  H
  H680     1.0000 0.39380  0.63590  0.66570  Biso   1.000  H
  N80      1.0000 0.46735  0.66300  0.61236  Biso   1.000  N
  H681     1.0000 0.45230  0.62910  0.61230  Biso   1.000  H
  H682     1.0000 0.44390  0.68580  0.60320  Biso   1.000  H
  N81      1.0000 0.65968  0.49744  0.71538  Biso   1.000  N
  H683     1.0000 0.68980  0.47860  0.71000  Biso   1.000  H
  H684     1.0000 0.64350  0.47870  0.72990  Biso   1.000  H
  N82      1.0000 0.73893  0.53962  0.75991  Biso   1.000  N
  H685     1.0000 0.72290  0.51120  0.76910  Biso   1.000  H
  H686     1.0000 0.76830  0.52660  0.75020  Biso   1.000  H
  N83      1.0000 0.79601  0.70986  0.60963  Biso   1.000  N
  H687     1.0000 0.78890  0.70930  0.59050  Biso   1.000  H
  H688     1.0000 0.83070  0.72220  0.61170  Biso   1.000  H
  N84      1.0000 0.76826  0.82013  0.59834  Biso   1.000  N
  H689     1.0000 0.80520  0.82170  0.59760  Biso   1.000  H
  H690     1.0000 0.75640  0.80890  0.58090  Biso   1.000  H
  C373     1.0000 0.54220  0.63820  0.80333  Biso   1.000  C
  C374     1.0000 0.52480  0.66390  0.83068  Biso   1.000  C
  H691     1.0000 0.55640  0.68120  0.84010  Biso   1.000  H
  C375     1.0000 0.49880  0.61670  0.85178  Biso   1.000  C
  C376     1.0000 0.50400  0.60430  0.79033  Biso   1.000  C
  H692     1.0000 0.51930  0.58920  0.77290  Biso   1.000  H
  H693     1.0000 0.47170  0.62510  0.78570  Biso   1.000  H
  H694     1.0000 0.49460  0.57500  0.80330  Biso   1.000  H
  C377     1.0000 0.59540  0.60790  0.80956  Biso   1.000  C
  H695     1.0000 0.62110  0.63250  0.81850  Biso   1.000  H
  H696     1.0000 0.61050  0.59420  0.79180  Biso   1.000  H
  H697     1.0000 0.58810  0.57770  0.82240  Biso   1.000  H
  C378     1.0000 0.47720  0.88210  0.78354  Biso   1.000  C
  C379     1.0000 0.42604  0.85774  0.79384  Biso   1.000  C
  H698     1.0000 0.40340  0.84820  0.77710  Biso   1.000  H
  C380     1.0000 0.39480  0.89550  0.81241  Biso   1.000  C
  C381     1.0000 0.51310  0.89870  0.80940  Biso   1.000  C
  H699     1.0000 0.54670  0.91480  0.80250  Biso   1.000  H
  H700     1.0000 0.52140  0.86680  0.82080  Biso   1.000  H
  H701     1.0000 0.49380  0.92500  0.82100  Biso   1.000  H
  C382     1.0000 0.47130  0.92630  0.76042  Biso   1.000  C
  H702     1.0000 0.50700  0.94030  0.75550  Biso   1.000  H
  H703     1.0000 0.44890  0.95570  0.76770  Biso   1.000  H
  H704     1.0000 0.45440  0.91080  0.74360  Biso   1.000  H
  C383     1.0000 0.68100  0.83100  0.81844  Biso   1.000  C
  C384     1.0000 0.73460  0.81440  0.83080  Biso   1.000  C
  H705     1.0000 0.73870  0.77440  0.82990  Biso   1.000  H
  C385     1.0000 0.74380  0.83520  0.86264  Biso   1.000  C
  C386     1.0000 0.67140  0.89265  0.81984  Biso   1.000  C
  H706     1.0000 0.70190  0.91140  0.81110  Biso   1.000  H
  H707     1.0000 0.66800  0.90380  0.83970  Biso   1.000  H
  H708     1.0000 0.63830  0.90170  0.80960  Biso   1.000  H
  C387     1.0000 0.63650  0.80150  0.83068  Biso   1.000  C
  H709     1.0000 0.60260  0.81400  0.82240  Biso   1.000  H
  H710     1.0000 0.63580  0.80740  0.85120  Biso   1.000  H
  H711     1.0000 0.64100  0.76300  0.82680  Biso   1.000  H
  C388     1.0000 0.84500  0.82460  0.71754  Biso   1.000  C
  C389     1.0000 0.86060  0.87390  0.73379  Biso   1.000  C
  H712     1.0000 0.84320  0.90700  0.72590  Biso   1.000  H
  C390     1.0000 0.92590  0.87890  0.73394  Biso   1.000  C
  C391     1.0000 0.87110  0.76850  0.72796  Biso   1.000  C
  H713     1.0000 0.86640  0.76490  0.74850  Biso   1.000  H
  H714     1.0000 0.90950  0.76810  0.72340  Biso   1.000  H
  H715     1.0000 0.85310  0.73850  0.71840  Biso   1.000  H
  C392     1.0000 0.85280  0.82900  0.68840  Biso   1.000  C
  H716     1.0000 0.84130  0.79560  0.67920  Biso   1.000  H
  H717     1.0000 0.89100  0.83530  0.68450  Biso   1.000  H
  H718     1.0000 0.83150  0.85920  0.68110  Biso   1.000  H
  C393     1.0000 0.65880  0.98270  0.73328  Biso   1.000  C
  C394     1.0000 0.65920  0.02378  0.70970  Biso   1.000  C
  H719     1.0000 0.68710  0.01380  0.69540  Biso   1.000  H
  C395     1.0000 0.67220  0.07700  0.72187  Biso   1.000  C
  C396     1.0000 0.61780  0.99410  0.75596  Biso   1.000  C
  H720     1.0000 0.58320  0.00270  0.74710  Biso   1.000  H
  H721     1.0000 0.62980  0.02470  0.76740  Biso   1.000  H
  H722     1.0000 0.61380  0.96230  0.76810  Biso   1.000  H
  C397     1.0000 0.71250  0.96760  0.74751  Biso   1.000  C
  H723     1.0000 0.73900  0.95820  0.73300  Biso   1.000  H
  H724     1.0000 0.70700  0.93680  0.76010  Biso   1.000  H
  H725     1.0000 0.72570  0.99830  0.75850  Biso   1.000  H
  C398     1.0000 0.47600  0.89980  0.65151  Biso   1.000  C
  C399     1.0000 0.46070  0.95661  0.66287  Biso   1.000  C
  H726     1.0000 0.44470  0.95320  0.68220  Biso   1.000  H
  C400     1.0000 0.51150  0.92030  0.89288  Biso   1.000  C
  C401     1.0000 0.49680  0.90270  0.62072  Biso   1.000  C
  H727     1.0000 0.50580  0.86640  0.61410  Biso   1.000  H
  H728     1.0000 0.52900  0.92540  0.62000  Biso   1.000  H
  H729     1.0000 0.46880  0.91820  0.60850  Biso   1.000  H
  C402     1.0000 0.43540  0.85550  0.65284  Biso   1.000  C
  H730     1.0000 0.45070  0.82270  0.64460  Biso   1.000  H
  H731     1.0000 0.40320  0.86600  0.64220  Biso   1.000  H
  H732     1.0000 0.42560  0.84880  0.67260  Biso   1.000  H
  C403     1.0000 0.41120  0.69480  0.71278  Biso   1.000  C
  C404     1.0000 0.37360  0.70230  0.68768  Biso   1.000  C
  H733     1.0000 0.37140  0.74150  0.68300  Biso   1.000  H
  C405     1.0000 0.31890  0.68220  0.69439  Biso   1.000  C
  C406     1.0000 0.41850  0.63246  0.72011  Biso   1.000  C
  H734     1.0000 0.42770  0.61270  0.70280  Biso   1.000  H
  H735     1.0000 0.38480  0.61830  0.72790  Biso   1.000  H
  H736     1.0000 0.44740  0.62820  0.73400  Biso   1.000  H
  C407     1.0000 0.39800  0.72450  0.73840  Biso   1.000  C
  H737     1.0000 0.42430  0.71600  0.75320  Biso   1.000  H
  H738     1.0000 0.36190  0.71450  0.74480  Biso   1.000  H
  H739     1.0000 0.39900  0.76320  0.73440  Biso   1.000  H
  C408     1.0000 0.55190  0.70850  0.60159  Biso   1.000  C
  C409     1.0000 0.51670  0.66140  0.59704  Biso   1.000  C
  H740     1.0000 0.53680  0.62770  0.60190  Biso   1.000  H
  C410     1.0000 0.49210  0.65660  0.56533  Biso   1.000  C
  C411     1.0000 0.52100  0.76250  0.59213  Biso   1.000  C
  H741     1.0000 0.48460  0.76240  0.60010  Biso   1.000  H
  H742     1.0000 0.51880  0.76390  0.57140  Biso   1.000  H
  H743     1.0000 0.54070  0.79400  0.59910  Biso   1.000  H
  C412     1.0000 0.60559  0.70420  0.58954  Biso   1.000  C
  H744     1.0000 0.62580  0.73720  0.59350  Biso   1.000  H
  H745     1.0000 0.60280  0.69890  0.56900  Biso   1.000  H
  H746     1.0000 0.62430  0.67340  0.59800  Biso   1.000  H
  C413     1.0000 0.57850  0.54190  0.69659  Biso   1.000  C
  C414     1.0000 0.62010  0.50040  0.68991  Biso   1.000  C
  H747     1.0000 0.64080  0.51290  0.67300  Biso   1.000  H
  C415     1.0000 0.59880  0.44770  0.68381  Biso   1.000  C
  C416     1.0000 0.54340  0.52890  0.72223  Biso   1.000  C
  H748     1.0000 0.51700  0.55760  0.72500  Biso   1.000  H
  H749     1.0000 0.56620  0.52590  0.73910  Biso   1.000  H
  H750     1.0000 0.52470  0.49470  0.71900  Biso   1.000  H
  C417     1.0000 0.54280  0.55140  0.66957  Biso   1.000  C
  H751     1.0000 0.51470  0.57790  0.67390  Biso   1.000  H
  H752     1.0000 0.52600  0.51740  0.66390  Biso   1.000  H
  H753     1.0000 0.56530  0.56490  0.65410  Biso   1.000  H
  C418     1.0000 0.77460  0.63273  0.76714  Biso   1.000  C
  C419     1.0000 0.75690  0.57980  0.78089  Biso   1.000  C
  H754     1.0000 0.72510  0.58820  0.79310  Biso   1.000  H
  C420     1.0000 0.29850  0.94610  0.95042  Biso   1.000  C
  C421     1.0000 0.82200  0.62530  0.74874  Biso   1.000  C
  H755     1.0000 0.81480  0.59660  0.73510  Biso   1.000  H
  H756     1.0000 0.85320  0.61560  0.76030  Biso   1.000  H
  H757     1.0000 0.82950  0.65890  0.73860  Biso   1.000  H
  C422     1.0000 0.78090  0.67390  0.78831  Biso   1.000  C
  H758     1.0000 0.74780  0.67660  0.79950  Biso   1.000  H
  H759     1.0000 0.78800  0.70850  0.77910  Biso   1.000  H
  H760     1.0000 0.81110  0.66470  0.80070  Biso   1.000  H
  C423     1.0000 0.78730  0.65487  0.65122  Biso   1.000  C
  C424     1.0000 0.79500  0.65250  0.61980  Biso   1.000  C
  H761     1.0000 0.76090  0.63680  0.61210  Biso   1.000  H
  C425     1.0000 0.83820  0.61550  0.61070  Biso   1.000  C
  C426     1.0000 0.84090  0.67750  0.66546  Biso   1.000  C
  H762     1.0000 0.83620  0.67890  0.68600  Biso   1.000  H
  H763     1.0000 0.84820  0.71370  0.65830  Biso   1.000  H
  H764     1.0000 0.87110  0.65370  0.66080  Biso   1.000  H
  C427     1.0000 0.77390  0.59830  0.66423  Biso   1.000  C
  H765     1.0000 0.77000  0.60170  0.68480  Biso   1.000  H
  H766     1.0000 0.80320  0.57310  0.65990  Biso   1.000  H
  H767     1.0000 0.74030  0.58480  0.65610  Biso   1.000  H
  C428     1.0000 0.68845  0.87510  0.61350  Biso   1.000  C
  C429     1.0000 0.74540  0.88030  0.60403  Biso   1.000  C
  H768     1.0000 0.76580  0.89440  0.62070  Biso   1.000  H
  C430     1.0000 0.75850  0.91950  0.57882  Biso   1.000  C
  C431     1.0000 0.65450  0.85630  0.59092  Biso   1.000  C
  H769     1.0000 0.61710  0.85490  0.59750  Biso   1.000  H
  H770     1.0000 0.66610  0.82020  0.58510  Biso   1.000  H
  H771     1.0000 0.65730  0.88100  0.57480  Biso   1.000  H
  C432     1.0000 0.67300  0.93560  0.62539  Biso   1.000  C
  H772     1.0000 0.69770  0.94550  0.64070  Biso   1.000  H
  H773     1.0000 0.63600  0.93540  0.63260  Biso   1.000  H
  H774     1.0000 0.67600  0.96180  0.61000  Biso   1.000  H
  O193     1.0000 0.42999  0.91877  0.93682  Biso   1.000  O
  O194     1.0000 0.40910  0.84090  0.91524  Biso   1.000  O
  C433     1.0000 0.43340  0.86919  0.93618  Biso   1.000  C
  C434     1.0000 0.45370  0.83650  0.96426  Biso   1.000  C
  H775     1.0000 0.45350  0.79770  0.96030  Biso   1.000  H
  H776     1.0000 0.42940  0.84420  0.98010  Biso   1.000  H
  H777     1.0000 0.49020  0.84790  0.96920  Biso   1.000  H
  La26     1.0000 0.77451  0.84061  0.51030  Biso   1.000  La
  La27     1.0000 0.04752  0.89085  0.72873  Biso   1.000  La
  La28     1.0000 0.03006  0.93322  0.70827  Biso   1.000  La
  O195     1.0000 0.12800  0.94610  0.73150  Biso   1.000  O
  O196     1.0000 0.01030  0.85400  0.67326  Biso   1.000  O
  Ag57     1.0000 0.34450  0.28280  0.27211  Biso   1.000  Ag
  Ag58     1.0000 0.39041  0.14918  0.25127  Biso   1.000  Ag
  Ag59     1.0000 0.50297  0.18546  0.21317  Biso   1.000  Ag
  Ag60     1.0000 0.44357  0.32463  0.22761  Biso   1.000  Ag
  Ag61     1.0000 0.26420  0.27137  0.21075  Biso   1.000  Ag
  Ag62     1.0000 0.28477  0.12494  0.18992  Biso   1.000  Ag
  Ag63     1.0000 0.40778  0.19757  0.15594  Biso   1.000  Ag
  Ag64     1.0000 0.36021  0.34657  0.15635  Biso   1.000  Ag
  Pd43     1.0000 0.50399  0.24126  0.29556  Biso   1.000  Pd
  Pd44     1.0000 0.22765  0.16501  0.27134  Biso   1.000  Pd
  Pd45     1.0000 0.42993  0.04492  0.18763  Biso   1.000  Pd
  Pd46     1.0000 0.52421  0.31152  0.15414  Biso   1.000  Pd
  Pd47     1.0000 0.31654  0.42629  0.23062  Biso   1.000  Pd
  Pd48     1.0000 0.25291  0.23517  0.12710  Biso   1.000  Pd
  Br8      1.0000 0.37565  0.23555  0.21095  Biso   1.000  Br
  La29     1.0000 0.62262  0.07663  0.38724  Biso   1.000  La
  S85      1.0000 0.44208  0.30116  0.28039  Biso   1.000  S
  S86      1.0000 0.48543  0.17334  0.26496  Biso   1.000  S
  S87      1.0000 0.31335  0.18898  0.27995  Biso   1.000  S
  S88      1.0000 0.22821  0.18016  0.22391  Biso   1.000  S
  S89      1.0000 0.36340  0.08017  0.21558  Biso   1.000  S
  S90      1.0000 0.46861  0.12462  0.17550  Biso   1.000  S
  S91      1.0000 0.51993  0.28248  0.19939  Biso   1.000  S
  S92      1.0000 0.43998  0.28950  0.14102  Biso   1.000  S
  S93      1.0000 0.38437  0.39309  0.20306  Biso   1.000  S
  S94      1.0000 0.28484  0.34610  0.24594  Biso   1.000  S
  S95      1.0000 0.26957  0.30055  0.15967  Biso   1.000  S
  S96      1.0000 0.31166  0.17287  0.14347  Biso   1.000  S
  O197     1.0000 0.54853  0.39085  0.35049  Biso   1.000  O
  O198     1.0000 0.46440  0.40623  0.36679  Biso   1.000  O
  O199     1.0000 0.60727  0.11275  0.33831  Biso   1.000  O
  O200     1.0000 0.62590  0.06430  0.30173  Biso   1.000  O
  O201     1.0000 0.23752  0.12503  0.36919  Biso   1.000  O
  O202     1.0000 0.27720  0.20210  0.37721  Biso   1.000  O
  O203     1.0000 0.04370  0.14090  0.25617  Biso   1.000  O
  O204     1.0000 0.05800  0.09770  0.21165  Biso   1.000  O
  O205     1.0000 0.36100  0.88657  0.22557  Biso   1.000  O
  O206     1.0000 0.27960  0.91090  0.22339  Biso   1.000  O
  O207     1.0000 0.52505  0.06628  0.38133  Biso   1.000  O
  O208     1.0000 0.46393  0.12764  0.39345  Biso   1.000  O
  O209     1.0000 0.69785  0.36248  0.18527  Biso   1.000  O
  O210     1.0000 0.70956  0.28654  0.20711  Biso   1.000  O
  O211     1.0000 0.54785  0.32814  0.05777  Biso   1.000  O
  O212     1.0000 0.46929  0.36410  0.04858  Biso   1.000  O
  O213     1.0000 0.41090  0.58456  0.20419  Biso   1.000  O
  O214     1.0000 0.41420  0.56190  0.15990  Biso   1.000  O
  O215     1.0000 0.67816  0.01106  0.45876  Biso   1.000  O
  O216     1.0000 0.68994  0.07721  0.42730  Biso   1.000  O
  O217     1.0000 0.11812  0.35721  0.10313  Biso   1.000  O
  O218     1.0000 0.16156  0.43220  0.11008  Biso   1.000  O
  O219     1.0000 0.23500  0.10539  0.05564  Biso   1.000  O
  O220     1.0000 0.24411  0.03434  0.08120  Biso   1.000  O
  N85      1.0000 0.51850  0.29524  0.32573  Biso   1.000  N
  H778     1.0000 0.52450  0.27710  0.34240  Biso   1.000  H
  H779     1.0000 0.54980  0.31320  0.32120  Biso   1.000  H
  N86      1.0000 0.56432  0.19121  0.31039  Biso   1.000  N
  H780     1.0000 0.59580  0.21060  0.31110  Biso   1.000  H
  H781     1.0000 0.55590  0.18130  0.32860  Biso   1.000  H
  N87      1.0000 0.21992  0.15890  0.31547  Biso   1.000  N
  H782     1.0000 0.18800  0.17440  0.32100  Biso   1.000  H
  H783     1.0000 0.21880  0.12310  0.32050  Biso   1.000  H
  N88      1.0000 0.15060  0.13220  0.26501  Biso   1.000  N
  H784     1.0000 0.14840  0.09920  0.27370  Biso   1.000  H
  H785     1.0000 0.12510  0.15440  0.27300  Biso   1.000  H
  N89      1.0000 0.39478  0.97353  0.19565  Biso   1.000  N
  H786     1.0000 0.39110  0.95530  0.17880  Biso   1.000  H
  H787     1.0000 0.41750  0.95370  0.20700  Biso   1.000  H
  N90      1.0000 0.49062  0.01171  0.16439  Biso   1.000  N
  H788     1.0000 0.49900  0.97870  0.17200  Biso   1.000  H
  H789     1.0000 0.47830  0.00600  0.14630  Biso   1.000  H
  N91      1.0000 0.60277  0.32770  0.16254  Biso   1.000  N
  H790     1.0000 0.62280  0.31950  0.14670  Biso   1.000  H
  H791     1.0000 0.60620  0.36410  0.16570  Biso   1.000  H
  N92      1.0000 0.53265  0.33700  0.11236  Biso   1.000  N
  H792     1.0000 0.54770  0.37090  0.11230  Biso   1.000  H
  H793     1.0000 0.55610  0.31420  0.10320  Biso   1.000  H
  N93      1.0000 0.34032  0.50256  0.21538  Biso   1.000  N
  H794     1.0000 0.31020  0.52140  0.21000  Biso   1.000  H
  H795     1.0000 0.35650  0.52130  0.22990  Biso   1.000  H
  N94      1.0000 0.26107  0.46038  0.25991  Biso   1.000  N
  H796     1.0000 0.27710  0.48880  0.26910  Biso   1.000  H
  H797     1.0000 0.23170  0.47340  0.25020  Biso   1.000  H
  N95      1.0000 0.20399  0.29014  0.10963  Biso   1.000  N
  H798     1.0000 0.21110  0.29070  0.09050  Biso   1.000  H
  H799     1.0000 0.16930  0.27780  0.11170  Biso   1.000  H
  N96      1.0000 0.23174  0.17987  0.09834  Biso   1.000  N
  H800     1.0000 0.19480  0.17830  0.09760  Biso   1.000  H
  H801     1.0000 0.24360  0.19110  0.08090  Biso   1.000  H
  C435     1.0000 0.45780  0.36180  0.30333  Biso   1.000  C
  C436     1.0000 0.47520  0.33610  0.33068  Biso   1.000  C
  H802     1.0000 0.44360  0.31880  0.34010  Biso   1.000  H
  C437     1.0000 0.50120  0.38330  0.35178  Biso   1.000  C
  C438     1.0000 0.49600  0.39570  0.29033  Biso   1.000  C
  H803     1.0000 0.48070  0.41080  0.27290  Biso   1.000  H
  H804     1.0000 0.52830  0.37490  0.28570  Biso   1.000  H
  H805     1.0000 0.50540  0.42500  0.30330  Biso   1.000  H
  C439     1.0000 0.40460  0.39210  0.30956  Biso   1.000  C
  H806     1.0000 0.37890  0.36750  0.31850  Biso   1.000  H
  H807     1.0000 0.38950  0.40580  0.29180  Biso   1.000  H
  H808     1.0000 0.41190  0.42230  0.32240  Biso   1.000  H
  C440     1.0000 0.52280  0.11790  0.28354  Biso   1.000  C
  C441     1.0000 0.57396  0.14226  0.29384  Biso   1.000  C
  H809     1.0000 0.59660  0.15180  0.27710  Biso   1.000  H
  C442     1.0000 0.60520  0.10450  0.31241  Biso   1.000  C
  C443     1.0000 0.48690  0.10130  0.30940  Biso   1.000  C
  H810     1.0000 0.45330  0.08520  0.30250  Biso   1.000  H
  H811     1.0000 0.47860  0.13320  0.32080  Biso   1.000  H
  H812     1.0000 0.50620  0.07500  0.32100  Biso   1.000  H
  C444     1.0000 0.52870  0.07370  0.26042  Biso   1.000  C
  H813     1.0000 0.49300  0.05970  0.25550  Biso   1.000  H
  H814     1.0000 0.55110  0.04430  0.26770  Biso   1.000  H
  H815     1.0000 0.54560  0.08920  0.24360  Biso   1.000  H
  C445     1.0000 0.31900  0.16900  0.31844  Biso   1.000  C
  C446     1.0000 0.26540  0.18560  0.33080  Biso   1.000  C
  H816     1.0000 0.26130  0.22560  0.32990  Biso   1.000  H
  C447     1.0000 0.25620  0.16480  0.36264  Biso   1.000  C
  C448     1.0000 0.32860  0.10735  0.31984  Biso   1.000  C
  H817     1.0000 0.29810  0.08860  0.31110  Biso   1.000  H
  H818     1.0000 0.33200  0.09620  0.33970  Biso   1.000  H
  H819     1.0000 0.36170  0.09830  0.30960  Biso   1.000  H
  C449     1.0000 0.36350  0.19850  0.33068  Biso   1.000  C
  H820     1.0000 0.39740  0.18600  0.32240  Biso   1.000  H
  H821     1.0000 0.36420  0.19260  0.35120  Biso   1.000  H
  H822     1.0000 0.35900  0.23700  0.32680  Biso   1.000  H
  C450     1.0000 0.15500  0.17540  0.21754  Biso   1.000  C
  C451     1.0000 0.13940  0.12610  0.23379  Biso   1.000  C
  H823     1.0000 0.15680  0.09300  0.22590  Biso   1.000  H
  C452     1.0000 0.07410  0.12110  0.23394  Biso   1.000  C
  C453     1.0000 0.12890  0.23150  0.22796  Biso   1.000  C
  H824     1.0000 0.13360  0.23510  0.24850  Biso   1.000  H
  H825     1.0000 0.09050  0.23190  0.22340  Biso   1.000  H
  H826     1.0000 0.14690  0.26150  0.21840  Biso   1.000  H
  C454     1.0000 0.14720  0.17100  0.18840  Biso   1.000  C
  H827     1.0000 0.15870  0.20440  0.17920  Biso   1.000  H
  H828     1.0000 0.10900  0.16470  0.18450  Biso   1.000  H
  H829     1.0000 0.16850  0.14080  0.18110  Biso   1.000  H
  C455     1.0000 0.34120  0.01730  0.23328  Biso   1.000  C
  C456     1.0000 0.34080  0.97622  0.20970  Biso   1.000  C
  H830     1.0000 0.31290  0.98620  0.19540  Biso   1.000  H
  C457     1.0000 0.32780  0.92300  0.22187  Biso   1.000  C
  C458     1.0000 0.38220  0.00590  0.25596  Biso   1.000  C
  H831     1.0000 0.41680  0.99730  0.24710  Biso   1.000  H
  H832     1.0000 0.37020  0.97530  0.26740  Biso   1.000  H
  H833     1.0000 0.38620  0.03770  0.26810  Biso   1.000  H
  C459     1.0000 0.28750  0.03240  0.24751  Biso   1.000  C
  H834     1.0000 0.26100  0.04180  0.23300  Biso   1.000  H
  H835     1.0000 0.29300  0.06320  0.26010  Biso   1.000  H
  H836     1.0000 0.27430  0.00170  0.25850  Biso   1.000  H
  C460     1.0000 0.52400  0.10020  0.15151  Biso   1.000  C
  C461     1.0000 0.53930  0.04339  0.16287  Biso   1.000  C
  H837     1.0000 0.55530  0.04680  0.18220  Biso   1.000  H
  C462     1.0000 0.48850  0.07970  0.39288  Biso   1.000  C
  C463     1.0000 0.50320  0.09730  0.12072  Biso   1.000  C
  H838     1.0000 0.49420  0.13360  0.11410  Biso   1.000  H
  H839     1.0000 0.47100  0.07460  0.12000  Biso   1.000  H
  H840     1.0000 0.53120  0.08180  0.10850  Biso   1.000  H
  C464     1.0000 0.56460  0.14450  0.15284  Biso   1.000  C
  H841     1.0000 0.54930  0.17730  0.14460  Biso   1.000  H
  H842     1.0000 0.59680  0.13400  0.14220  Biso   1.000  H
  H843     1.0000 0.57440  0.15120  0.17260  Biso   1.000  H
  C465     1.0000 0.58880  0.30520  0.21278  Biso   1.000  C
  C466     1.0000 0.62640  0.29770  0.18768  Biso   1.000  C
  H844     1.0000 0.62860  0.25850  0.18300  Biso   1.000  H
  C467     1.0000 0.68110  0.31780  0.19439  Biso   1.000  C
  C468     1.0000 0.58150  0.36754  0.22011  Biso   1.000  C
  H845     1.0000 0.57230  0.38730  0.20280  Biso   1.000  H
  H846     1.0000 0.61520  0.38170  0.22790  Biso   1.000  H
  H847     1.0000 0.55260  0.37180  0.23400  Biso   1.000  H
  C469     1.0000 0.60200  0.27550  0.23840  Biso   1.000  C
  H848     1.0000 0.57570  0.28400  0.25320  Biso   1.000  H
  H849     1.0000 0.63810  0.28550  0.24480  Biso   1.000  H
  H850     1.0000 0.60100  0.23680  0.23440  Biso   1.000  H
  C470     1.0000 0.44810  0.29150  0.10159  Biso   1.000  C
  C471     1.0000 0.48330  0.33860  0.09704  Biso   1.000  C
  H851     1.0000 0.46320  0.37230  0.10190  Biso   1.000  H
  C472     1.0000 0.50790  0.34340  0.06533  Biso   1.000  C
  C473     1.0000 0.47900  0.23750  0.09213  Biso   1.000  C
  H852     1.0000 0.51540  0.23760  0.10010  Biso   1.000  H
  H853     1.0000 0.48120  0.23610  0.07140  Biso   1.000  H
  H854     1.0000 0.45930  0.20600  0.09910  Biso   1.000  H
  C474     1.0000 0.39441  0.29580  0.08954  Biso   1.000  C
  H855     1.0000 0.37420  0.26280  0.09350  Biso   1.000  H
  H856     1.0000 0.39720  0.30110  0.06900  Biso   1.000  H
  H857     1.0000 0.37570  0.32660  0.09800  Biso   1.000  H
  C475     1.0000 0.42150  0.45810  0.19659  Biso   1.000  C
  C476     1.0000 0.37990  0.49960  0.18991  Biso   1.000  C
  H858     1.0000 0.35920  0.48710  0.17300  Biso   1.000  H
  C477     1.0000 0.40120  0.55230  0.18381  Biso   1.000  C
  C478     1.0000 0.45660  0.47110  0.22223  Biso   1.000  C
  H859     1.0000 0.48300  0.44240  0.22500  Biso   1.000  H
  H860     1.0000 0.43380  0.47410  0.23910  Biso   1.000  H
  H861     1.0000 0.47530  0.50530  0.21900  Biso   1.000  H
  C479     1.0000 0.45720  0.44860  0.16957  Biso   1.000  C
  H862     1.0000 0.48530  0.42210  0.17390  Biso   1.000  H
  H863     1.0000 0.47400  0.48260  0.16390  Biso   1.000  H
  H864     1.0000 0.43470  0.43510  0.15410  Biso   1.000  H
  C480     1.0000 0.22540  0.36727  0.26714  Biso   1.000  C
  C481     1.0000 0.24310  0.42020  0.28089  Biso   1.000  C
  H865     1.0000 0.27490  0.41180  0.29310  Biso   1.000  H
  C482     1.0000 0.70150  0.05390  0.45042  Biso   1.000  C
  C483     1.0000 0.17800  0.37470  0.24874  Biso   1.000  C
  H866     1.0000 0.18520  0.40340  0.23510  Biso   1.000  H
  H867     1.0000 0.14680  0.38440  0.26030  Biso   1.000  H
  H868     1.0000 0.17050  0.34110  0.23860  Biso   1.000  H
  C484     1.0000 0.21910  0.32610  0.28831  Biso   1.000  C
  H869     1.0000 0.25220  0.32340  0.29950  Biso   1.000  H
  H870     1.0000 0.21200  0.29150  0.27910  Biso   1.000  H
  H871     1.0000 0.18890  0.33530  0.30070  Biso   1.000  H
  C485     1.0000 0.21270  0.34513  0.15122  Biso   1.000  C
  C486     1.0000 0.20500  0.34750  0.11980  Biso   1.000  C
  H872     1.0000 0.23910  0.36320  0.11210  Biso   1.000  H
  C487     1.0000 0.16180  0.38450  0.11070  Biso   1.000  C
  C488     1.0000 0.15910  0.32250  0.16546  Biso   1.000  C
  H873     1.0000 0.16380  0.32110  0.18600  Biso   1.000  H
  H874     1.0000 0.15180  0.28630  0.15830  Biso   1.000  H
  H875     1.0000 0.12890  0.34630  0.16080  Biso   1.000  H
  C489     1.0000 0.22610  0.40170  0.16423  Biso   1.000  C
  H876     1.0000 0.23000  0.39830  0.18480  Biso   1.000  H
  H877     1.0000 0.19680  0.42690  0.15990  Biso   1.000  H
  H878     1.0000 0.25970  0.41520  0.15610  Biso   1.000  H
  C490     1.0000 0.31155  0.12490  0.11350  Biso   1.000  C
  C491     1.0000 0.25460  0.11970  0.10403  Biso   1.000  C
  H879     1.0000 0.23420  0.10560  0.12070  Biso   1.000  H
  C492     1.0000 0.24150  0.08050  0.07882  Biso   1.000  C
  C493     1.0000 0.34550  0.14370  0.09092  Biso   1.000  C
  H880     1.0000 0.38290  0.14510  0.09750  Biso   1.000  H
  H881     1.0000 0.33390  0.17980  0.08510  Biso   1.000  H
  H882     1.0000 0.34270  0.11900  0.07480  Biso   1.000  H
  C494     1.0000 0.32700  0.06440  0.12539  Biso   1.000  C
  H883     1.0000 0.30230  0.05450  0.14070  Biso   1.000  H
  H884     1.0000 0.36400  0.06460  0.13260  Biso   1.000  H
  H885     1.0000 0.32400  0.03820  0.11000  Biso   1.000  H
  O221     1.0000 0.57001  0.08123  0.43682  Biso   1.000  O
  O222     1.0000 0.59090  0.15910  0.41524  Biso   1.000  O
  C495     1.0000 0.56660  0.13081  0.43618  Biso   1.000  C
  C496     1.0000 0.54630  0.16350  0.46426  Biso   1.000  C
  H886     1.0000 0.54650  0.20230  0.46030  Biso   1.000  H
  H887     1.0000 0.57060  0.15580  0.48010  Biso   1.000  H
  H888     1.0000 0.50980  0.15210  0.46920  Biso   1.000  H
  La30     1.0000 0.22549  0.15939  0.01030  Biso   1.000  La
  La31     1.0000 0.95248  0.10915  0.22873  Biso   1.000  La
  La32     1.0000 0.96994  0.06678  0.20827  Biso   1.000  La
  O223     1.0000 0.87200  0.05390  0.23150  Biso   1.000  O
  O224     1.0000 0.98970  0.14600  0.17326  Biso   1.000  O
