data_image0
_cell_length_a       24.973
_cell_length_b       19.3506
_cell_length_c       21.3833
_cell_angle_alpha    90
_cell_angle_beta     96.045
_cell_angle_gamma    90

_symmetry_space_group_name_H-M    "P 1"
_symmetry_int_tables_number       1

loop_
  _symmetry_equiv_pos_as_xyz
  'x, y, z'

loop_
  _atom_site_label
  _atom_site_occupancy
  _atom_site_fract_x
  _atom_site_fract_y
  _atom_site_fract_z
  _atom_site_thermal_displace_type
  _atom_site_B_iso_or_equiv
  _atom_site_type_symbol
  Ag1      1.0000 0.69970  0.21057  0.44271  Biso   1.000  Ag
  C1       1.0000 0.96080  0.27660  0.96130  Biso   1.000  C
  N1       1.0000 0.98090  0.40280  0.96490  Biso   1.000  N
  Ag2      1.0000 0.90329  0.21633  0.62967  Biso   1.000  Ag
  N2       1.0000 0.98240  0.45180  0.91960  Biso   1.000  N
  C2       1.0000 0.92130  0.23240  0.93030  Biso   1.000  C
  H1       1.0000 0.90280  0.24470  0.89190  Biso   1.000  H
  N3       1.0000 0.97430  0.42360  0.86370  Biso   1.000  N
  C3       1.0000 0.91120  0.16960  0.95920  Biso   1.000  C
  H2       1.0000 0.88510  0.13990  0.94020  Biso   1.000  H
  N4       1.0000 0.96620  0.35420  0.87120  Biso   1.000  N
  C4       1.0000 0.93900  0.15180  0.01480  Biso   1.000  C
  H3       1.0000 0.93120  0.10990  0.03310  Biso   1.000  H
  Ag3      1.0000 0.00956  0.56798  0.93377  Biso   1.000  Ag
  N5       1.0000 0.84110  0.36080  0.63230  Biso   1.000  N
  C5       1.0000 0.97810  0.19310  0.04520  Biso   1.000  C
  Ag4      1.0000 0.94520  0.48252  0.77003  Biso   1.000  Ag
  C6       1.0000 0.98770  0.25650  0.01820  Biso   1.000  C
  H4       1.0000 0.01290  0.28620  0.03890  Biso   1.000  H
  N6       1.0000 0.87300  0.31650  0.66760  Biso   1.000  N
  Ag5      1.0000 0.96395  0.28734  0.78486  Biso   1.000  Ag
  N7       1.0000 0.90510  0.34890  0.70720  Biso   1.000  N
  C7       1.0000 0.01380  0.16990  0.10430  Biso   1.000  C
  H5       1.0000 0.03840  0.20630  0.11800  Biso   1.000  H
  H6       1.0000 0.99160  0.15930  0.13700  Biso   1.000  H
  H7       1.0000 0.03370  0.12950  0.09470  Biso   1.000  H
  N8       1.0000 0.89700  0.41940  0.69930  Biso   1.000  N
  C8       1.0000 0.97060  0.34360  0.93240  Biso   1.000  C
  Ag6      1.0000 0.58072  0.28974  0.37533  Biso   1.000  Ag
  C9       1.0000 0.83390  0.48910  0.62620  Biso   1.000  C
  Ag7      1.0000 0.76799  0.32634  0.57406  Biso   1.000  Ag
  C10      1.0000 0.81020  0.48940  0.56430  Biso   1.000  C
  H8       1.0000 0.81010  0.44940  0.54020  Biso   1.000  H
  N9       1.0000 0.62320  0.33480  0.45760  Biso   1.000  N
  C11      1.0000 0.78650  0.54960  0.53850  Biso   1.000  C
  H9       1.0000 0.77170  0.55050  0.49670  Biso   1.000  H
  N10      1.0000 0.66470  0.30420  0.48990  Biso   1.000  N
  C12      1.0000 0.78540  0.60930  0.57650  Biso   1.000  C
  H10      1.0000 0.76940  0.64950  0.55970  Biso   1.000  H
  N11      1.0000 0.68290  0.34290  0.53750  Biso   1.000  N
  C13      1.0000 0.80780  0.60830  0.63770  Biso   1.000  C
  C14      1.0000 0.83380  0.54780  0.66140  Biso   1.000  C
  H11      1.0000 0.85130  0.54780  0.70200  Biso   1.000  H
  C15      1.0000 0.80770  0.67050  0.67870  Biso   1.000  C
  H12      1.0000 0.82510  0.65970  0.71970  Biso   1.000  H
  H13      1.0000 0.82670  0.70740  0.66060  Biso   1.000  H
  H14      1.0000 0.77130  0.68460  0.68210  Biso   1.000  H
  C16      1.0000 0.85780  0.42450  0.65240  Biso   1.000  C
  C17      1.0000 0.65650  0.45770  0.57970  Biso   1.000  C
  N12      1.0000 0.78880  0.19470  0.46580  Biso   1.000  N
  C18      1.0000 0.67820  0.44550  0.64120  Biso   1.000  C
  H15      1.0000 0.68950  0.40140  0.65380  Biso   1.000  H
  N13      1.0000 0.80920  0.22470  0.52130  Biso   1.000  N
  N14      1.0000 0.85290  0.19440  0.54200  Biso   1.000  N
  C19      1.0000 0.68290  0.50060  0.68420  Biso   1.000  C
  H16      1.0000 0.69610  0.49280  0.72590  Biso   1.000  H
  N15      1.0000 0.86250  0.14300  0.50280  Biso   1.000  N
  C20      1.0000 0.66840  0.56390  0.66510  Biso   1.000  C
  H17      1.0000 0.67380  0.60020  0.69360  Biso   1.000  H
  N16      1.0000 0.99760  0.11490  0.66510  Biso   1.000  N
  C21      1.0000 0.64550  0.57800  0.60440  Biso   1.000  C
  N17      1.0000 0.01920  0.08580  0.71970  Biso   1.000  N
  C22      1.0000 0.63980  0.52410  0.56260  Biso   1.000  C
  H18      1.0000 0.62440  0.53230  0.52170  Biso   1.000  H
  N18      1.0000 0.99040  0.18940  0.73870  Biso   1.000  N
  C23      1.0000 0.63150  0.65030  0.58530  Biso   1.000  C
  H19      1.0000 0.63820  0.68030  0.62100  Biso   1.000  H
  H20      1.0000 0.65310  0.66450  0.55310  Biso   1.000  H
  H21      1.0000 0.59410  0.65260  0.56950  Biso   1.000  H
  N19      1.0000 0.98030  0.17650  0.67720  Biso   1.000  N
  C24      1.0000 0.65180  0.40030  0.53480  Biso   1.000  C
  N20      1.0000 0.64400  0.15390  0.37350  Biso   1.000  N
  N21      1.0000 0.61290  0.19460  0.33340  Biso   1.000  N
  N22      1.0000 0.60360  0.09070  0.29800  Biso   1.000  N
  N23      1.0000 0.58780  0.15610  0.28940  Biso   1.000  N
  C25      1.0000 0.82800  0.08240  0.41050  Biso   1.000  C
  C26      1.0000 0.80600  0.09390  0.34890  Biso   1.000  C
  H22      1.0000 0.79150  0.13690  0.33740  Biso   1.000  H
  C27      1.0000 0.80560  0.04120  0.30470  Biso   1.000  C
  H23      1.0000 0.79080  0.04890  0.26350  Biso   1.000  H
  C28      1.0000 0.82720  0.97700  0.32200  Biso   1.000  C
  H24      1.0000 0.82690  0.94170  0.29250  Biso   1.000  H
  C29      1.0000 0.84930  0.96550  0.38360  Biso   1.000  C
  C30      1.0000 0.84970  0.01820  0.42780  Biso   1.000  C
  H25      1.0000 0.86440  0.01040  0.46900  Biso   1.000  H
  C31      1.0000 0.87220  0.89690  0.40540  Biso   1.000  C
  H26      1.0000 0.86950  0.86510  0.37070  Biso   1.000  H
  H27      1.0000 0.90930  0.90250  0.42150  Biso   1.000  H
  H28      1.0000 0.85230  0.87910  0.43800  Biso   1.000  H
  C32      1.0000 0.82150  0.14580  0.45560  Biso   1.000  C
  C33      1.0000 0.66770  0.03120  0.37830  Biso   1.000  C
  C34      1.0000 0.69200  0.03700  0.43930  Biso   1.000  C
  H29      1.0000 0.68660  0.07650  0.46250  Biso   1.000  H
  C35      1.0000 0.72460  0.98370  0.46640  Biso   1.000  C
  H30      1.0000 0.74160  0.98790  0.50710  Biso   1.000  H
  C36      1.0000 0.73110  0.92440  0.43110  Biso   1.000  C
  H31      1.0000 0.75300  0.88910  0.44870  Biso   1.000  H
  C37      1.0000 0.70600  0.91640  0.37120  Biso   1.000  C
  C38      1.0000 0.67530  0.97110  0.34500  Biso   1.000  C
  H32      1.0000 0.65940  0.96730  0.30390  Biso   1.000  H
  C39      1.0000 0.71670  0.85350  0.33180  Biso   1.000  C
  H33      1.0000 0.69580  0.85680  0.29160  Biso   1.000  H
  H34      1.0000 0.75430  0.85160  0.32600  Biso   1.000  H
  H35      1.0000 0.70680  0.81240  0.35290  Biso   1.000  H
  C40      1.0000 0.63810  0.09100  0.34980  Biso   1.000  C
  C41      1.0000 0.06000  0.18040  0.86340  Biso   1.000  C
  H36      1.0000 0.06460  0.22190  0.84260  Biso   1.000  H
  C42      1.0000 0.02560  0.06510  0.86290  Biso   1.000  C
  H37      1.0000 0.00800  0.02820  0.84170  Biso   1.000  H
  C43      1.0000 0.04340  0.05860  0.92560  Biso   1.000  C
  H38      1.0000 0.03650  0.01840  0.94730  Biso   1.000  H
  C44      1.0000 0.07090  0.11110  0.95550  Biso   1.000  C
  H39      1.0000 0.08480  0.10500  0.99720  Biso   1.000  H
  C45      1.0000 0.07950  0.17390  0.92630  Biso   1.000  C
  C46      1.0000 0.03340  0.12590  0.83070  Biso   1.000  C
  C47      1.0000 0.11140  0.23220  0.95940  Biso   1.000  C
  H40      1.0000 0.12190  0.21940  0.00240  Biso   1.000  H
  H41      1.0000 0.14300  0.24100  0.93870  Biso   1.000  H
  H42      1.0000 0.08960  0.27310  0.95830  Biso   1.000  H
  C48      1.0000 0.01400  0.13460  0.76370  Biso   1.000  C
  Ag8      1.0000 0.51243  0.20565  0.22265  Biso   1.000  Ag
  Ag9      1.0000 0.55995  0.01670  0.23302  Biso   1.000  Ag
  Ag10     1.0000 0.52318  0.06358  0.93917  Biso   1.000  Ag
  N24      1.0000 0.50210  0.10040  0.03940  Biso   1.000  N
  N25      1.0000 0.50590  0.07330  0.13860  Biso   1.000  N
  N26      1.0000 0.51730  0.14140  0.13590  Biso   1.000  N
  C49      1.0000 0.52850  0.22640  0.05080  Biso   1.000  C
  C50      1.0000 0.56600  0.26620  0.08690  Biso   1.000  C
  H43      1.0000 0.58140  0.24980  0.12560  Biso   1.000  H
  C51      1.0000 0.58070  0.33040  0.06580  Biso   1.000  C
  H44      1.0000 0.60570  0.35750  0.08990  Biso   1.000  H
  N27      1.0000 0.50050  0.31770  0.32840  Biso   1.000  N
  C52      1.0000 0.55760  0.35310  0.00850  Biso   1.000  C
  H45      1.0000 0.56800  0.39590  0.99420  Biso   1.000  H
  N28      1.0000 0.48840  0.38220  0.33810  Biso   1.000  N
  C53      1.0000 0.51910  0.31480  0.97030  Biso   1.000  C
  N29      1.0000 0.46760  0.41040  0.28300  Biso   1.000  N
  C54      1.0000 0.50550  0.24830  0.99310  Biso   1.000  C
  H46      1.0000 0.48120  0.22010  0.96900  Biso   1.000  H
  C55      1.0000 0.49280  0.34290  0.90950  Biso   1.000  C
  H47      1.0000 0.46780  0.30950  0.89030  Biso   1.000  H
  H48      1.0000 0.47390  0.38470  0.91730  Biso   1.000  H
  H49      1.0000 0.51980  0.35250  0.88190  Biso   1.000  H
  N30      1.0000 0.48740  0.30230  0.26710  Biso   1.000  N
  C56      1.0000 0.51550  0.15560  0.07450  Biso   1.000  C
  C57      1.0000 0.45010  0.36870  0.17420  Biso   1.000  C
  C58      1.0000 0.46490  0.42660  0.14060  Biso   1.000  C
  H50      1.0000 0.48770  0.46020  0.15970  Biso   1.000  H
  C59      1.0000 0.44420  0.43230  0.07690  Biso   1.000  C
  H51      1.0000 0.45260  0.47150  0.05470  Biso   1.000  H
  C60      1.0000 0.41400  0.38520  0.04790  Biso   1.000  C
  H52      1.0000 0.40240  0.39070  0.00540  Biso   1.000  H
  C61      1.0000 0.39850  0.32680  0.07910  Biso   1.000  C
  C62      1.0000 0.41820  0.31840  0.14240  Biso   1.000  C
  H53      1.0000 0.40970  0.27850  0.16350  Biso   1.000  H
  C63      1.0000 0.46920  0.35890  0.24010  Biso   1.000  C
  C64      1.0000 0.36280  0.27410  0.04430  Biso   1.000  C
  H54      1.0000 0.35590  0.23720  0.07240  Biso   1.000  H
  H55      1.0000 0.32940  0.29530  0.02840  Biso   1.000  H
  H56      1.0000 0.38030  0.25600  0.01000  Biso   1.000  H
  N31      1.0000 0.61420  0.39570  0.48410  Biso   1.000  N
  N32      1.0000 0.49720  0.04920  0.08150  Biso   1.000  N
  Ag11     1.0000 0.52600  0.58680  0.56410  Biso   1.000  Ag
  Ag12     1.0000 0.66000  0.19070  0.48130  Biso   1.000  Ag
  Ag13     1.0000 0.42900  0.52670  0.55920  Biso   1.000  Ag
  Ag14     1.0000 0.30030  0.71057  0.05729  Biso   1.000  Ag
  C65      1.0000 0.03920  0.77660  0.53870  Biso   1.000  C
  N33      1.0000 0.01910  0.90280  0.53510  Biso   1.000  N
  Ag15     1.0000 0.09671  0.71633  0.87033  Biso   1.000  Ag
  N34      1.0000 0.01760  0.95180  0.58040  Biso   1.000  N
  C66      1.0000 0.07870  0.73240  0.56970  Biso   1.000  C
  H57      1.0000 0.09720  0.74470  0.60810  Biso   1.000  H
  N35      1.0000 0.02570  0.92360  0.63630  Biso   1.000  N
  C67      1.0000 0.08880  0.66960  0.54080  Biso   1.000  C
  H58      1.0000 0.11490  0.63990  0.55980  Biso   1.000  H
  N36      1.0000 0.03380  0.85420  0.62880  Biso   1.000  N
  C68      1.0000 0.06100  0.65180  0.48520  Biso   1.000  C
  H59      1.0000 0.06880  0.60990  0.46690  Biso   1.000  H
  Ag16     1.0000 0.99044  0.06798  0.56623  Biso   1.000  Ag
  N37      1.0000 0.15890  0.86080  0.86770  Biso   1.000  N
  C69      1.0000 0.02190  0.69310  0.45480  Biso   1.000  C
  Ag17     1.0000 0.05480  0.98252  0.72997  Biso   1.000  Ag
  C70      1.0000 0.01230  0.75650  0.48180  Biso   1.000  C
  H60      1.0000 0.98710  0.78620  0.46110  Biso   1.000  H
  N38      1.0000 0.12700  0.81650  0.83240  Biso   1.000  N
  Ag18     1.0000 0.03605  0.78734  0.71514  Biso   1.000  Ag
  N39      1.0000 0.09490  0.84890  0.79280  Biso   1.000  N
  C71      1.0000 0.98620  0.66990  0.39570  Biso   1.000  C
  H61      1.0000 0.96160  0.70630  0.38200  Biso   1.000  H
  H62      1.0000 0.00840  0.65930  0.36300  Biso   1.000  H
  H63      1.0000 0.96630  0.62950  0.40530  Biso   1.000  H
  N40      1.0000 0.10300  0.91940  0.80070  Biso   1.000  N
  C72      1.0000 0.02940  0.84360  0.56760  Biso   1.000  C
  Ag19     1.0000 0.41928  0.78974  0.12467  Biso   1.000  Ag
  C73      1.0000 0.16610  0.98910  0.87380  Biso   1.000  C
  Ag20     1.0000 0.23201  0.82634  0.92594  Biso   1.000  Ag
  C74      1.0000 0.18980  0.98940  0.93570  Biso   1.000  C
  H64      1.0000 0.18990  0.94940  0.95980  Biso   1.000  H
  N41      1.0000 0.37680  0.83480  0.04240  Biso   1.000  N
  C75      1.0000 0.21350  0.04960  0.96150  Biso   1.000  C
  H65      1.0000 0.22830  0.05050  0.00330  Biso   1.000  H
  N42      1.0000 0.33530  0.80420  0.01010  Biso   1.000  N
  C76      1.0000 0.21460  0.10930  0.92350  Biso   1.000  C
  H66      1.0000 0.23060  0.14950  0.94030  Biso   1.000  H
  N43      1.0000 0.31710  0.84290  0.96250  Biso   1.000  N
  C77      1.0000 0.19220  0.10830  0.86230  Biso   1.000  C
  C78      1.0000 0.16620  0.04780  0.83860  Biso   1.000  C
  H67      1.0000 0.14870  0.04780  0.79800  Biso   1.000  H
  C79      1.0000 0.19230  0.17050  0.82130  Biso   1.000  C
  H68      1.0000 0.17490  0.15970  0.78030  Biso   1.000  H
  H69      1.0000 0.17330  0.20740  0.83940  Biso   1.000  H
  H70      1.0000 0.22870  0.18460  0.81790  Biso   1.000  H
  C80      1.0000 0.14220  0.92450  0.84760  Biso   1.000  C
  C81      1.0000 0.34350  0.95770  0.92030  Biso   1.000  C
  N44      1.0000 0.21120  0.69470  0.03420  Biso   1.000  N
  C82      1.0000 0.32180  0.94550  0.85880  Biso   1.000  C
  H71      1.0000 0.31050  0.90140  0.84620  Biso   1.000  H
  N45      1.0000 0.19080  0.72470  0.97870  Biso   1.000  N
  N46      1.0000 0.14710  0.69440  0.95800  Biso   1.000  N
  C83      1.0000 0.31710  0.00060  0.81580  Biso   1.000  C
  H72      1.0000 0.30390  0.99280  0.77410  Biso   1.000  H
  N47      1.0000 0.13750  0.64300  0.99720  Biso   1.000  N
  C84      1.0000 0.33160  0.06390  0.83490  Biso   1.000  C
  H73      1.0000 0.32620  0.10020  0.80640  Biso   1.000  H
  N48      1.0000 0.00240  0.61490  0.83490  Biso   1.000  N
  C85      1.0000 0.35450  0.07800  0.89560  Biso   1.000  C
  N49      1.0000 0.98080  0.58580  0.78030  Biso   1.000  N
  C86      1.0000 0.36020  0.02410  0.93740  Biso   1.000  C
  H74      1.0000 0.37560  0.03230  0.97830  Biso   1.000  H
  N50      1.0000 0.00960  0.68940  0.76130  Biso   1.000  N
  C87      1.0000 0.36850  0.15030  0.91470  Biso   1.000  C
  H75      1.0000 0.36180  0.18030  0.87900  Biso   1.000  H
  H76      1.0000 0.34690  0.16450  0.94690  Biso   1.000  H
  H77      1.0000 0.40590  0.15260  0.93050  Biso   1.000  H
  N51      1.0000 0.01970  0.67650  0.82280  Biso   1.000  N
  C88      1.0000 0.34820  0.90030  0.96520  Biso   1.000  C
  N52      1.0000 0.35600  0.65390  0.12650  Biso   1.000  N
  N53      1.0000 0.38710  0.69460  0.16660  Biso   1.000  N
  N54      1.0000 0.39640  0.59070  0.20200  Biso   1.000  N
  N55      1.0000 0.41220  0.65610  0.21060  Biso   1.000  N
  C89      1.0000 0.17200  0.58240  0.08950  Biso   1.000  C
  C90      1.0000 0.19400  0.59390  0.15110  Biso   1.000  C
  H78      1.0000 0.20850  0.63690  0.16260  Biso   1.000  H
  C91      1.0000 0.19440  0.54120  0.19530  Biso   1.000  C
  H79      1.0000 0.20920  0.54890  0.23650  Biso   1.000  H
  C92      1.0000 0.17280  0.47700  0.17800  Biso   1.000  C
  H80      1.0000 0.17310  0.44170  0.20750  Biso   1.000  H
  C93      1.0000 0.15070  0.46550  0.11640  Biso   1.000  C
  C94      1.0000 0.15030  0.51820  0.07220  Biso   1.000  C
  H81      1.0000 0.13560  0.51040  0.03100  Biso   1.000  H
  C95      1.0000 0.12780  0.39690  0.09460  Biso   1.000  C
  H82      1.0000 0.13050  0.36510  0.12930  Biso   1.000  H
  H83      1.0000 0.09070  0.40250  0.07850  Biso   1.000  H
  H84      1.0000 0.14770  0.37910  0.06200  Biso   1.000  H
  C96      1.0000 0.17850  0.64580  0.04440  Biso   1.000  C
  C97      1.0000 0.33230  0.53120  0.12170  Biso   1.000  C
  C98      1.0000 0.30800  0.53700  0.06070  Biso   1.000  C
  H85      1.0000 0.31340  0.57650  0.03750  Biso   1.000  H
  C99      1.0000 0.27540  0.48370  0.03360  Biso   1.000  C
  H86      1.0000 0.25840  0.48790  0.99290  Biso   1.000  H
  C100     1.0000 0.26890  0.42440  0.06890  Biso   1.000  C
  H87      1.0000 0.24700  0.38910  0.05130  Biso   1.000  H
  C101     1.0000 0.29400  0.41640  0.12880  Biso   1.000  C
  C102     1.0000 0.32470  0.47110  0.15500  Biso   1.000  C
  H88      1.0000 0.34060  0.46730  0.19610  Biso   1.000  H
  C103     1.0000 0.28330  0.35350  0.16820  Biso   1.000  C
  H89      1.0000 0.30420  0.35680  0.20840  Biso   1.000  H
  H90      1.0000 0.24570  0.35160  0.17400  Biso   1.000  H
  H91      1.0000 0.29320  0.31240  0.14710  Biso   1.000  H
  C104     1.0000 0.36190  0.59100  0.15020  Biso   1.000  C
  C105     1.0000 0.94000  0.68040  0.63660  Biso   1.000  C
  H92      1.0000 0.93540  0.72190  0.65740  Biso   1.000  H
  C106     1.0000 0.97440  0.56510  0.63710  Biso   1.000  C
  H93      1.0000 0.99200  0.52820  0.65830  Biso   1.000  H
  C107     1.0000 0.95660  0.55860  0.57440  Biso   1.000  C
  H94      1.0000 0.96350  0.51840  0.55270  Biso   1.000  H
  C108     1.0000 0.92910  0.61110  0.54450  Biso   1.000  C
  H95      1.0000 0.91520  0.60500  0.50280  Biso   1.000  H
  C109     1.0000 0.92050  0.67390  0.57370  Biso   1.000  C
  C110     1.0000 0.96660  0.62590  0.66930  Biso   1.000  C
  C111     1.0000 0.88860  0.73220  0.54060  Biso   1.000  C
  H96      1.0000 0.87810  0.71940  0.49760  Biso   1.000  H
  H97      1.0000 0.85700  0.74100  0.56130  Biso   1.000  H
  H98      1.0000 0.91040  0.77310  0.54170  Biso   1.000  H
  C112     1.0000 0.98600  0.63460  0.73630  Biso   1.000  C
  Ag21     1.0000 0.48757  0.70565  0.27735  Biso   1.000  Ag
  Ag22     1.0000 0.44005  0.51670  0.26698  Biso   1.000  Ag
  Ag23     1.0000 0.47682  0.56358  0.56083  Biso   1.000  Ag
  N56      1.0000 0.49790  0.60040  0.46060  Biso   1.000  N
  N57      1.0000 0.49410  0.57330  0.36140  Biso   1.000  N
  N58      1.0000 0.48270  0.64140  0.36410  Biso   1.000  N
  C113     1.0000 0.47150  0.72640  0.44920  Biso   1.000  C
  C114     1.0000 0.43400  0.76620  0.41310  Biso   1.000  C
  H99      1.0000 0.41860  0.74980  0.37440  Biso   1.000  H
  C115     1.0000 0.41930  0.83040  0.43420  Biso   1.000  C
  H100     1.0000 0.39430  0.85750  0.41010  Biso   1.000  H
  N59      1.0000 0.49950  0.81770  0.17160  Biso   1.000  N
  C116     1.0000 0.44240  0.85310  0.49150  Biso   1.000  C
  H101     1.0000 0.43200  0.89590  0.50580  Biso   1.000  H
  N60      1.0000 0.51160  0.88220  0.16190  Biso   1.000  N
  C117     1.0000 0.48090  0.81480  0.52970  Biso   1.000  C
  N61      1.0000 0.53240  0.91040  0.21700  Biso   1.000  N
  C118     1.0000 0.49450  0.74830  0.50690  Biso   1.000  C
  H102     1.0000 0.51880  0.72010  0.53100  Biso   1.000  H
  C119     1.0000 0.50720  0.84290  0.59050  Biso   1.000  C
  H103     1.0000 0.53220  0.80950  0.60970  Biso   1.000  H
  H104     1.0000 0.52610  0.88470  0.58270  Biso   1.000  H
  H105     1.0000 0.48020  0.85250  0.61810  Biso   1.000  H
  N62      1.0000 0.51260  0.80230  0.23290  Biso   1.000  N
  C120     1.0000 0.48450  0.65560  0.42550  Biso   1.000  C
  C121     1.0000 0.54990  0.86870  0.32580  Biso   1.000  C
  C122     1.0000 0.53510  0.92660  0.35940  Biso   1.000  C
  H106     1.0000 0.51230  0.96020  0.34030  Biso   1.000  H
  C123     1.0000 0.55580  0.93230  0.42310  Biso   1.000  C
  H107     1.0000 0.54740  0.97150  0.44530  Biso   1.000  H
  C124     1.0000 0.58600  0.88520  0.45210  Biso   1.000  C
  H108     1.0000 0.59760  0.89070  0.49460  Biso   1.000  H
  C125     1.0000 0.60150  0.82680  0.42090  Biso   1.000  C
  C126     1.0000 0.58180  0.81840  0.35760  Biso   1.000  C
  H109     1.0000 0.59030  0.77850  0.33650  Biso   1.000  H
  C127     1.0000 0.53080  0.85890  0.25990  Biso   1.000  C
  C128     1.0000 0.63720  0.77410  0.45570  Biso   1.000  C
  H110     1.0000 0.64410  0.73720  0.42760  Biso   1.000  H
  H111     1.0000 0.67060  0.79530  0.47160  Biso   1.000  H
  H112     1.0000 0.61970  0.75600  0.49000  Biso   1.000  H
  N63      1.0000 0.38580  0.89570  0.01590  Biso   1.000  N
  N64      1.0000 0.50280  0.54920  0.41850  Biso   1.000  N
  Ag24     1.0000 0.47400  0.08680  0.93590  Biso   1.000  Ag
  Ag25     1.0000 0.34000  0.69070  0.01870  Biso   1.000  Ag
  Ag26     1.0000 0.57100  0.02670  0.94080  Biso   1.000  Ag
  Ag27     1.0000 0.30030  0.78943  0.55729  Biso   1.000  Ag
  C129     1.0000 0.03920  0.72340  0.03870  Biso   1.000  C
  N65      1.0000 0.01910  0.59720  0.03510  Biso   1.000  N
  Ag28     1.0000 0.09671  0.78367  0.37033  Biso   1.000  Ag
  N66      1.0000 0.01760  0.54820  0.08040  Biso   1.000  N
  C130     1.0000 0.07870  0.76760  0.06970  Biso   1.000  C
  H113     1.0000 0.09720  0.75530  0.10810  Biso   1.000  H
  N67      1.0000 0.02570  0.57640  0.13630  Biso   1.000  N
  C131     1.0000 0.08880  0.83040  0.04080  Biso   1.000  C
  H114     1.0000 0.11490  0.86010  0.05980  Biso   1.000  H
  N68      1.0000 0.03380  0.64580  0.12880  Biso   1.000  N
  C132     1.0000 0.06100  0.84820  0.98520  Biso   1.000  C
  H115     1.0000 0.06880  0.89010  0.96690  Biso   1.000  H
  Ag29     1.0000 0.99044  0.43202  0.06623  Biso   1.000  Ag
  N69      1.0000 0.15890  0.63920  0.36770  Biso   1.000  N
  C133     1.0000 0.02190  0.80690  0.95480  Biso   1.000  C
  Ag30     1.0000 0.05480  0.51748  0.22997  Biso   1.000  Ag
  C134     1.0000 0.01230  0.74350  0.98180  Biso   1.000  C
  H116     1.0000 0.98710  0.71380  0.96110  Biso   1.000  H
  N70      1.0000 0.12700  0.68350  0.33240  Biso   1.000  N
  Ag31     1.0000 0.03605  0.71266  0.21514  Biso   1.000  Ag
  N71      1.0000 0.09490  0.65110  0.29280  Biso   1.000  N
  C135     1.0000 0.98620  0.83010  0.89570  Biso   1.000  C
  H117     1.0000 0.96160  0.79370  0.88200  Biso   1.000  H
  H118     1.0000 0.00840  0.84070  0.86300  Biso   1.000  H
  H119     1.0000 0.96630  0.87050  0.90530  Biso   1.000  H
  N72      1.0000 0.10300  0.58060  0.30070  Biso   1.000  N
  C136     1.0000 0.02940  0.65640  0.06760  Biso   1.000  C
  Ag32     1.0000 0.41928  0.71026  0.62467  Biso   1.000  Ag
  C137     1.0000 0.16610  0.51090  0.37380  Biso   1.000  C
  Ag33     1.0000 0.23201  0.67366  0.42594  Biso   1.000  Ag
  C138     1.0000 0.18980  0.51060  0.43570  Biso   1.000  C
  H120     1.0000 0.18990  0.55060  0.45980  Biso   1.000  H
  N73      1.0000 0.37680  0.66520  0.54240  Biso   1.000  N
  C139     1.0000 0.21350  0.45040  0.46150  Biso   1.000  C
  H121     1.0000 0.22830  0.44950  0.50330  Biso   1.000  H
  N74      1.0000 0.33530  0.69580  0.51010  Biso   1.000  N
  C140     1.0000 0.21460  0.39070  0.42350  Biso   1.000  C
  H122     1.0000 0.23060  0.35050  0.44030  Biso   1.000  H
  N75      1.0000 0.31710  0.65710  0.46250  Biso   1.000  N
  C141     1.0000 0.19220  0.39170  0.36230  Biso   1.000  C
  C142     1.0000 0.16620  0.45220  0.33860  Biso   1.000  C
  H123     1.0000 0.14870  0.45220  0.29800  Biso   1.000  H
  C143     1.0000 0.19230  0.32950  0.32130  Biso   1.000  C
  H124     1.0000 0.17490  0.34030  0.28030  Biso   1.000  H
  H125     1.0000 0.17330  0.29260  0.33940  Biso   1.000  H
  H126     1.0000 0.22870  0.31540  0.31790  Biso   1.000  H
  C144     1.0000 0.14220  0.57550  0.34760  Biso   1.000  C
  C145     1.0000 0.34350  0.54230  0.42030  Biso   1.000  C
  N76      1.0000 0.21120  0.80530  0.53420  Biso   1.000  N
  C146     1.0000 0.32180  0.55450  0.35880  Biso   1.000  C
  H127     1.0000 0.31050  0.59860  0.34620  Biso   1.000  H
  N77      1.0000 0.19080  0.77530  0.47870  Biso   1.000  N
  N78      1.0000 0.14710  0.80560  0.45800  Biso   1.000  N
  C147     1.0000 0.31710  0.49940  0.31580  Biso   1.000  C
  H128     1.0000 0.30390  0.50720  0.27410  Biso   1.000  H
  N79      1.0000 0.13750  0.85700  0.49720  Biso   1.000  N
  C148     1.0000 0.33160  0.43610  0.33490  Biso   1.000  C
  H129     1.0000 0.32620  0.39980  0.30640  Biso   1.000  H
  N80      1.0000 0.00240  0.88510  0.33490  Biso   1.000  N
  C149     1.0000 0.35450  0.42200  0.39560  Biso   1.000  C
  N81      1.0000 0.98080  0.91420  0.28030  Biso   1.000  N
  C150     1.0000 0.36020  0.47590  0.43740  Biso   1.000  C
  H130     1.0000 0.37560  0.46770  0.47830  Biso   1.000  H
  N82      1.0000 0.00960  0.81060  0.26130  Biso   1.000  N
  C151     1.0000 0.36850  0.34970  0.41470  Biso   1.000  C
  H131     1.0000 0.36180  0.31970  0.37900  Biso   1.000  H
  H132     1.0000 0.34690  0.33550  0.44690  Biso   1.000  H
  H133     1.0000 0.40590  0.34740  0.43050  Biso   1.000  H
  N83      1.0000 0.01970  0.82350  0.32280  Biso   1.000  N
  C152     1.0000 0.34820  0.59970  0.46520  Biso   1.000  C
  N84      1.0000 0.35600  0.84610  0.62650  Biso   1.000  N
  N85      1.0000 0.38710  0.80540  0.66660  Biso   1.000  N
  N86      1.0000 0.39640  0.90930  0.70200  Biso   1.000  N
  N87      1.0000 0.41220  0.84390  0.71060  Biso   1.000  N
  C153     1.0000 0.17200  0.91760  0.58950  Biso   1.000  C
  C154     1.0000 0.19400  0.90610  0.65110  Biso   1.000  C
  H134     1.0000 0.20850  0.86310  0.66260  Biso   1.000  H
  C155     1.0000 0.19440  0.95880  0.69530  Biso   1.000  C
  H135     1.0000 0.20920  0.95110  0.73650  Biso   1.000  H
  C156     1.0000 0.17280  0.02300  0.67800  Biso   1.000  C
  H136     1.0000 0.17310  0.05830  0.70750  Biso   1.000  H
  C157     1.0000 0.15070  0.03450  0.61640  Biso   1.000  C
  C158     1.0000 0.15030  0.98180  0.57220  Biso   1.000  C
  H137     1.0000 0.13560  0.98960  0.53100  Biso   1.000  H
  C159     1.0000 0.12780  0.10310  0.59460  Biso   1.000  C
  H138     1.0000 0.13050  0.13490  0.62930  Biso   1.000  H
  H139     1.0000 0.09070  0.09750  0.57850  Biso   1.000  H
  H140     1.0000 0.14770  0.12090  0.56200  Biso   1.000  H
  C160     1.0000 0.17850  0.85420  0.54440  Biso   1.000  C
  C161     1.0000 0.33230  0.96880  0.62170  Biso   1.000  C
  C162     1.0000 0.30800  0.96300  0.56070  Biso   1.000  C
  H141     1.0000 0.31340  0.92350  0.53750  Biso   1.000  H
  C163     1.0000 0.27540  0.01630  0.53360  Biso   1.000  C
  H142     1.0000 0.25840  0.01210  0.49290  Biso   1.000  H
  C164     1.0000 0.26890  0.07560  0.56890  Biso   1.000  C
  H143     1.0000 0.24700  0.11090  0.55130  Biso   1.000  H
  C165     1.0000 0.29400  0.08360  0.62880  Biso   1.000  C
  C166     1.0000 0.32470  0.02890  0.65500  Biso   1.000  C
  H144     1.0000 0.34060  0.03270  0.69610  Biso   1.000  H
  C167     1.0000 0.28330  0.14650  0.66820  Biso   1.000  C
  H145     1.0000 0.30420  0.14320  0.70840  Biso   1.000  H
  H146     1.0000 0.24570  0.14840  0.67400  Biso   1.000  H
  H147     1.0000 0.29320  0.18760  0.64710  Biso   1.000  H
  C168     1.0000 0.36190  0.90900  0.65020  Biso   1.000  C
  C169     1.0000 0.94000  0.81960  0.13660  Biso   1.000  C
  H148     1.0000 0.93540  0.77810  0.15740  Biso   1.000  H
  C170     1.0000 0.97440  0.93490  0.13710  Biso   1.000  C
  H149     1.0000 0.99200  0.97180  0.15830  Biso   1.000  H
  C171     1.0000 0.95660  0.94140  0.07440  Biso   1.000  C
  H150     1.0000 0.96350  0.98160  0.05270  Biso   1.000  H
  C172     1.0000 0.92910  0.88890  0.04450  Biso   1.000  C
  H151     1.0000 0.91520  0.89500  0.00280  Biso   1.000  H
  C173     1.0000 0.92050  0.82610  0.07370  Biso   1.000  C
  C174     1.0000 0.96660  0.87410  0.16930  Biso   1.000  C
  C175     1.0000 0.88860  0.76780  0.04060  Biso   1.000  C
  H152     1.0000 0.87810  0.78060  0.99760  Biso   1.000  H
  H153     1.0000 0.85700  0.75900  0.06130  Biso   1.000  H
  H154     1.0000 0.91040  0.72690  0.04170  Biso   1.000  H
  C176     1.0000 0.98600  0.86540  0.23630  Biso   1.000  C
  Ag34     1.0000 0.48757  0.79435  0.77735  Biso   1.000  Ag
  Ag35     1.0000 0.44005  0.98330  0.76698  Biso   1.000  Ag
  Ag36     1.0000 0.47682  0.93642  0.06083  Biso   1.000  Ag
  N88      1.0000 0.49790  0.89960  0.96060  Biso   1.000  N
  N89      1.0000 0.49410  0.92670  0.86140  Biso   1.000  N
  N90      1.0000 0.48270  0.85860  0.86410  Biso   1.000  N
  C177     1.0000 0.47150  0.77360  0.94920  Biso   1.000  C
  C178     1.0000 0.43400  0.73380  0.91310  Biso   1.000  C
  H155     1.0000 0.41860  0.75020  0.87440  Biso   1.000  H
  C179     1.0000 0.41930  0.66960  0.93420  Biso   1.000  C
  H156     1.0000 0.39430  0.64250  0.91010  Biso   1.000  H
  N91      1.0000 0.49950  0.68230  0.67160  Biso   1.000  N
  C180     1.0000 0.44240  0.64690  0.99150  Biso   1.000  C
  H157     1.0000 0.43200  0.60410  0.00580  Biso   1.000  H
  N92      1.0000 0.51160  0.61780  0.66190  Biso   1.000  N
  C181     1.0000 0.48090  0.68520  0.02970  Biso   1.000  C
  N93      1.0000 0.53240  0.58960  0.71700  Biso   1.000  N
  C182     1.0000 0.49450  0.75170  0.00690  Biso   1.000  C
  H158     1.0000 0.51880  0.77990  0.03100  Biso   1.000  H
  C183     1.0000 0.50720  0.65710  0.09050  Biso   1.000  C
  H159     1.0000 0.53220  0.69050  0.10970  Biso   1.000  H
  H160     1.0000 0.52610  0.61530  0.08270  Biso   1.000  H
  H161     1.0000 0.48020  0.64750  0.11810  Biso   1.000  H
  N94      1.0000 0.51260  0.69770  0.73290  Biso   1.000  N
  C184     1.0000 0.48450  0.84440  0.92550  Biso   1.000  C
  C185     1.0000 0.54990  0.63130  0.82580  Biso   1.000  C
  C186     1.0000 0.53510  0.57340  0.85940  Biso   1.000  C
  H162     1.0000 0.51230  0.53980  0.84030  Biso   1.000  H
  C187     1.0000 0.55580  0.56770  0.92310  Biso   1.000  C
  H163     1.0000 0.54740  0.52850  0.94530  Biso   1.000  H
  C188     1.0000 0.58600  0.61480  0.95210  Biso   1.000  C
  H164     1.0000 0.59760  0.60930  0.99460  Biso   1.000  H
  C189     1.0000 0.60150  0.67320  0.92090  Biso   1.000  C
  C190     1.0000 0.58180  0.68160  0.85760  Biso   1.000  C
  H165     1.0000 0.59030  0.72150  0.83650  Biso   1.000  H
  C191     1.0000 0.53080  0.64110  0.75990  Biso   1.000  C
  C192     1.0000 0.63720  0.72590  0.95570  Biso   1.000  C
  H166     1.0000 0.64410  0.76280  0.92760  Biso   1.000  H
  H167     1.0000 0.67060  0.70470  0.97160  Biso   1.000  H
  H168     1.0000 0.61970  0.74400  0.99000  Biso   1.000  H
  N95      1.0000 0.38580  0.60430  0.51590  Biso   1.000  N
  N96      1.0000 0.50280  0.95080  0.91850  Biso   1.000  N
  Ag37     1.0000 0.47400  0.41320  0.43590  Biso   1.000  Ag
  Ag38     1.0000 0.34000  0.80930  0.51870  Biso   1.000  Ag
  Ag39     1.0000 0.57100  0.47330  0.44080  Biso   1.000  Ag
  Ag40     1.0000 0.69970  0.28943  0.94271  Biso   1.000  Ag
  C193     1.0000 0.96080  0.22340  0.46130  Biso   1.000  C
  N97      1.0000 0.98090  0.09720  0.46490  Biso   1.000  N
  Ag41     1.0000 0.90329  0.28367  0.12967  Biso   1.000  Ag
  N98      1.0000 0.98240  0.04820  0.41960  Biso   1.000  N
  C194     1.0000 0.92130  0.26760  0.43030  Biso   1.000  C
  H169     1.0000 0.90280  0.25530  0.39190  Biso   1.000  H
  N99      1.0000 0.97430  0.07640  0.36370  Biso   1.000  N
  C195     1.0000 0.91120  0.33040  0.45920  Biso   1.000  C
  H170     1.0000 0.88510  0.36010  0.44020  Biso   1.000  H
  N100     1.0000 0.96620  0.14580  0.37120  Biso   1.000  N
  C196     1.0000 0.93900  0.34820  0.51480  Biso   1.000  C
  H171     1.0000 0.93120  0.39010  0.53310  Biso   1.000  H
  Ag42     1.0000 0.00956  0.93202  0.43377  Biso   1.000  Ag
  N101     1.0000 0.84110  0.13920  0.13230  Biso   1.000  N
  C197     1.0000 0.97810  0.30690  0.54520  Biso   1.000  C
  Ag43     1.0000 0.94520  0.01748  0.27003  Biso   1.000  Ag
  C198     1.0000 0.98770  0.24350  0.51820  Biso   1.000  C
  H172     1.0000 0.01290  0.21380  0.53890  Biso   1.000  H
  N102     1.0000 0.87300  0.18350  0.16760  Biso   1.000  N
  Ag44     1.0000 0.96395  0.21266  0.28486  Biso   1.000  Ag
  N103     1.0000 0.90510  0.15110  0.20720  Biso   1.000  N
  C199     1.0000 0.01380  0.33010  0.60430  Biso   1.000  C
  H173     1.0000 0.03840  0.29370  0.61800  Biso   1.000  H
  H174     1.0000 0.99160  0.34070  0.63700  Biso   1.000  H
  H175     1.0000 0.03370  0.37050  0.59470  Biso   1.000  H
  N104     1.0000 0.89700  0.08060  0.19930  Biso   1.000  N
  C200     1.0000 0.97060  0.15640  0.43240  Biso   1.000  C
  Ag45     1.0000 0.58072  0.21026  0.87533  Biso   1.000  Ag
  C201     1.0000 0.83390  0.01090  0.12620  Biso   1.000  C
  Ag46     1.0000 0.76799  0.17366  0.07406  Biso   1.000  Ag
  C202     1.0000 0.81020  0.01060  0.06430  Biso   1.000  C
  H176     1.0000 0.81010  0.05060  0.04020  Biso   1.000  H
  N105     1.0000 0.62320  0.16520  0.95760  Biso   1.000  N
  C203     1.0000 0.78650  0.95040  0.03850  Biso   1.000  C
  H177     1.0000 0.77170  0.94950  0.99670  Biso   1.000  H
  N106     1.0000 0.66470  0.19580  0.98990  Biso   1.000  N
  C204     1.0000 0.78540  0.89070  0.07650  Biso   1.000  C
  H178     1.0000 0.76940  0.85050  0.05970  Biso   1.000  H
  N107     1.0000 0.68290  0.15710  0.03750  Biso   1.000  N
  C205     1.0000 0.80780  0.89170  0.13770  Biso   1.000  C
  C206     1.0000 0.83380  0.95220  0.16140  Biso   1.000  C
  H179     1.0000 0.85130  0.95220  0.20200  Biso   1.000  H
  C207     1.0000 0.80770  0.82950  0.17870  Biso   1.000  C
  H180     1.0000 0.82510  0.84030  0.21970  Biso   1.000  H
  H181     1.0000 0.82670  0.79260  0.16060  Biso   1.000  H
  H182     1.0000 0.77130  0.81540  0.18210  Biso   1.000  H
  C208     1.0000 0.85780  0.07550  0.15240  Biso   1.000  C
  C209     1.0000 0.65650  0.04230  0.07970  Biso   1.000  C
  N108     1.0000 0.78880  0.30530  0.96580  Biso   1.000  N
  C210     1.0000 0.67820  0.05450  0.14120  Biso   1.000  C
  H183     1.0000 0.68950  0.09860  0.15380  Biso   1.000  H
  N109     1.0000 0.80920  0.27530  0.02130  Biso   1.000  N
  N110     1.0000 0.85290  0.30560  0.04200  Biso   1.000  N
  C211     1.0000 0.68290  0.99940  0.18420  Biso   1.000  C
  H184     1.0000 0.69610  0.00720  0.22590  Biso   1.000  H
  N111     1.0000 0.86250  0.35700  0.00280  Biso   1.000  N
  C212     1.0000 0.66840  0.93610  0.16510  Biso   1.000  C
  H185     1.0000 0.67380  0.89980  0.19360  Biso   1.000  H
  N112     1.0000 0.99760  0.38510  0.16510  Biso   1.000  N
  C213     1.0000 0.64550  0.92200  0.10440  Biso   1.000  C
  N113     1.0000 0.01920  0.41420  0.21970  Biso   1.000  N
  C214     1.0000 0.63980  0.97590  0.06260  Biso   1.000  C
  H186     1.0000 0.62440  0.96770  0.02170  Biso   1.000  H
  N114     1.0000 0.99040  0.31060  0.23870  Biso   1.000  N
  C215     1.0000 0.63150  0.84970  0.08530  Biso   1.000  C
  H187     1.0000 0.63820  0.81970  0.12100  Biso   1.000  H
  H188     1.0000 0.65310  0.83550  0.05310  Biso   1.000  H
  H189     1.0000 0.59410  0.84740  0.06950  Biso   1.000  H
  N115     1.0000 0.98030  0.32350  0.17720  Biso   1.000  N
  C216     1.0000 0.65180  0.09970  0.03480  Biso   1.000  C
  N116     1.0000 0.64400  0.34610  0.87350  Biso   1.000  N
  N117     1.0000 0.61290  0.30540  0.83340  Biso   1.000  N
  N118     1.0000 0.60360  0.40930  0.79800  Biso   1.000  N
  N119     1.0000 0.58780  0.34390  0.78940  Biso   1.000  N
  C217     1.0000 0.82800  0.41760  0.91050  Biso   1.000  C
  C218     1.0000 0.80600  0.40610  0.84890  Biso   1.000  C
  H190     1.0000 0.79150  0.36310  0.83740  Biso   1.000  H
  C219     1.0000 0.80560  0.45880  0.80470  Biso   1.000  C
  H191     1.0000 0.79080  0.45110  0.76350  Biso   1.000  H
  C220     1.0000 0.82720  0.52300  0.82200  Biso   1.000  C
  H192     1.0000 0.82690  0.55830  0.79250  Biso   1.000  H
  C221     1.0000 0.84930  0.53450  0.88360  Biso   1.000  C
  C222     1.0000 0.84970  0.48180  0.92780  Biso   1.000  C
  H193     1.0000 0.86440  0.48960  0.96900  Biso   1.000  H
  C223     1.0000 0.87220  0.60310  0.90540  Biso   1.000  C
  H194     1.0000 0.86950  0.63490  0.87070  Biso   1.000  H
  H195     1.0000 0.90930  0.59750  0.92150  Biso   1.000  H
  H196     1.0000 0.85230  0.62090  0.93800  Biso   1.000  H
  C224     1.0000 0.82150  0.35420  0.95560  Biso   1.000  C
  C225     1.0000 0.66770  0.46880  0.87830  Biso   1.000  C
  C226     1.0000 0.69200  0.46300  0.93930  Biso   1.000  C
  H197     1.0000 0.68660  0.42350  0.96250  Biso   1.000  H
  C227     1.0000 0.72460  0.51630  0.96640  Biso   1.000  C
  H198     1.0000 0.74160  0.51210  0.00710  Biso   1.000  H
  C228     1.0000 0.73110  0.57560  0.93110  Biso   1.000  C
  H199     1.0000 0.75300  0.61090  0.94870  Biso   1.000  H
  C229     1.0000 0.70600  0.58360  0.87120  Biso   1.000  C
  C230     1.0000 0.67530  0.52890  0.84500  Biso   1.000  C
  H200     1.0000 0.65940  0.53270  0.80390  Biso   1.000  H
  C231     1.0000 0.71670  0.64650  0.83180  Biso   1.000  C
  H201     1.0000 0.69580  0.64320  0.79160  Biso   1.000  H
  H202     1.0000 0.75430  0.64840  0.82600  Biso   1.000  H
  H203     1.0000 0.70680  0.68760  0.85290  Biso   1.000  H
  C232     1.0000 0.63810  0.40900  0.84980  Biso   1.000  C
  C233     1.0000 0.06000  0.31960  0.36340  Biso   1.000  C
  H204     1.0000 0.06460  0.27810  0.34260  Biso   1.000  H
  C234     1.0000 0.02560  0.43490  0.36290  Biso   1.000  C
  H205     1.0000 0.00800  0.47180  0.34170  Biso   1.000  H
  C235     1.0000 0.04340  0.44140  0.42560  Biso   1.000  C
  H206     1.0000 0.03650  0.48160  0.44730  Biso   1.000  H
  C236     1.0000 0.07090  0.38890  0.45550  Biso   1.000  C
  H207     1.0000 0.08480  0.39500  0.49720  Biso   1.000  H
  C237     1.0000 0.07950  0.32610  0.42630  Biso   1.000  C
  C238     1.0000 0.03340  0.37410  0.33070  Biso   1.000  C
  C239     1.0000 0.11140  0.26780  0.45940  Biso   1.000  C
  H208     1.0000 0.12190  0.28060  0.50240  Biso   1.000  H
  H209     1.0000 0.14300  0.25900  0.43870  Biso   1.000  H
  H210     1.0000 0.08960  0.22690  0.45830  Biso   1.000  H
  C240     1.0000 0.01400  0.36540  0.26370  Biso   1.000  C
  Ag47     1.0000 0.51243  0.29435  0.72265  Biso   1.000  Ag
  Ag48     1.0000 0.55995  0.48330  0.73302  Biso   1.000  Ag
  Ag49     1.0000 0.52318  0.43642  0.43917  Biso   1.000  Ag
  N120     1.0000 0.50210  0.39960  0.53940  Biso   1.000  N
  N121     1.0000 0.50590  0.42670  0.63860  Biso   1.000  N
  N122     1.0000 0.51730  0.35860  0.63590  Biso   1.000  N
  C241     1.0000 0.52850  0.27360  0.55080  Biso   1.000  C
  C242     1.0000 0.56600  0.23380  0.58690  Biso   1.000  C
  H211     1.0000 0.58140  0.25020  0.62560  Biso   1.000  H
  C243     1.0000 0.58070  0.16960  0.56580  Biso   1.000  C
  H212     1.0000 0.60570  0.14250  0.58990  Biso   1.000  H
  N123     1.0000 0.50050  0.18230  0.82840  Biso   1.000  N
  C244     1.0000 0.55760  0.14690  0.50850  Biso   1.000  C
  H213     1.0000 0.56800  0.10410  0.49420  Biso   1.000  H
  N124     1.0000 0.48840  0.11780  0.83810  Biso   1.000  N
  C245     1.0000 0.51910  0.18520  0.47030  Biso   1.000  C
  N125     1.0000 0.46760  0.08960  0.78300  Biso   1.000  N
  C246     1.0000 0.50550  0.25170  0.49310  Biso   1.000  C
  H214     1.0000 0.48120  0.27990  0.46900  Biso   1.000  H
  C247     1.0000 0.49280  0.15710  0.40950  Biso   1.000  C
  H215     1.0000 0.46780  0.19050  0.39030  Biso   1.000  H
  H216     1.0000 0.47390  0.11530  0.41730  Biso   1.000  H
  H217     1.0000 0.51980  0.14750  0.38190  Biso   1.000  H
  N126     1.0000 0.48740  0.19770  0.76710  Biso   1.000  N
  C248     1.0000 0.51550  0.34440  0.57450  Biso   1.000  C
  C249     1.0000 0.45010  0.13130  0.67420  Biso   1.000  C
  C250     1.0000 0.46490  0.07340  0.64060  Biso   1.000  C
  H218     1.0000 0.48770  0.03980  0.65970  Biso   1.000  H
  C251     1.0000 0.44420  0.06770  0.57690  Biso   1.000  C
  H219     1.0000 0.45260  0.02850  0.55470  Biso   1.000  H
  C252     1.0000 0.41400  0.11480  0.54790  Biso   1.000  C
  H220     1.0000 0.40240  0.10930  0.50540  Biso   1.000  H
  C253     1.0000 0.39850  0.17320  0.57910  Biso   1.000  C
  C254     1.0000 0.41820  0.18160  0.64240  Biso   1.000  C
  H221     1.0000 0.40970  0.22150  0.66350  Biso   1.000  H
  C255     1.0000 0.46920  0.14110  0.74010  Biso   1.000  C
  C256     1.0000 0.36280  0.22590  0.54430  Biso   1.000  C
  H222     1.0000 0.35590  0.26280  0.57240  Biso   1.000  H
  H223     1.0000 0.32940  0.20470  0.52840  Biso   1.000  H
  H224     1.0000 0.38030  0.24400  0.51000  Biso   1.000  H
  N127     1.0000 0.61420  0.10430  0.98410  Biso   1.000  N
  N128     1.0000 0.49720  0.45080  0.58150  Biso   1.000  N
  Ag50     1.0000 0.52600  0.91320  0.06410  Biso   1.000  Ag
  Ag51     1.0000 0.66000  0.30930  0.98130  Biso   1.000  Ag
  Ag52     1.0000 0.42900  0.97330  0.05920  Biso   1.000  Ag
