data_image0
_cell_length_a       28.368
_cell_length_b       28.368
_cell_length_c       33.958
_cell_angle_alpha    90
_cell_angle_beta     90
_cell_angle_gamma    90

_symmetry_space_group_name_H-M    "P 1"
_symmetry_int_tables_number       1

loop_
  _symmetry_equiv_pos_as_xyz
  'x, y, z'

loop_
  _atom_site_label
  _atom_site_occupancy
  _atom_site_fract_x
  _atom_site_fract_y
  _atom_site_fract_z
  _atom_site_thermal_displace_type
  _atom_site_B_iso_or_equiv
  _atom_site_type_symbol
  Zn1      1.0000 0.83482  0.25312  0.16479  Biso   1.000  Zn
  Zn2      1.0000 0.75271  0.17235  0.31354  Biso   1.000  Zn
  N1       1.0000 0.81240  0.20430  0.30100  Biso   1.000  N
  N2       1.0000 0.85580  0.19770  0.31600  Biso   1.000  N
  N3       1.0000 0.81290  0.23900  0.27380  Biso   1.000  N
  C1       1.0000 0.95750  0.20300  0.33360  Biso   1.000  C
  H1       1.0000 0.93980  0.18190  0.34960  Biso   1.000  H
  C2       1.0000 0.88430  0.22800  0.29830  Biso   1.000  C
  C3       1.0000 0.00550  0.20490  0.33740  Biso   1.000  C
  H2       1.0000 0.02140  0.18510  0.35570  Biso   1.000  H
  C4       1.0000 0.85860  0.25560  0.27010  Biso   1.000  C
  H3       1.0000 0.87020  0.27950  0.25310  Biso   1.000  H
  C5       1.0000 0.93410  0.23170  0.30660  Biso   1.000  C
  O1       1.0000 0.78830  0.90090  0.13200  Biso   1.000  O
  O2       1.0000 0.10270  0.21010  0.33890  Biso   1.000  O
  C6       1.0000 0.03010  0.23580  0.31430  Biso   1.000  C
  C7       1.0000 0.76190  0.92350  0.15730  Biso   1.000  C
  C8       1.0000 0.79990  0.00080  0.14740  Biso   1.000  C
  H4       1.0000 0.82500  0.98490  0.13450  Biso   1.000  H
  C9       1.0000 0.95910  0.26160  0.28220  Biso   1.000  C
  H5       1.0000 0.94360  0.28070  0.26320  Biso   1.000  H
  O3       1.0000 0.73730  0.89900  0.17610  Biso   1.000  O
  C10      1.0000 0.80060  0.04890  0.15210  Biso   1.000  C
  H6       1.0000 0.82690  0.06610  0.14240  Biso   1.000  H
  C11      1.0000 0.76210  0.97630  0.16170  Biso   1.000  C
  C12      1.0000 0.00760  0.26270  0.28640  Biso   1.000  C
  H7       1.0000 0.02570  0.28260  0.26970  Biso   1.000  H
  C13      1.0000 0.08300  0.23950  0.31750  Biso   1.000  C
  C14      1.0000 0.80650  0.15240  0.15880  Biso   1.000  C
  H8       1.0000 0.82610  0.14500  0.13700  Biso   1.000  H
  C15      1.0000 0.76450  0.07290  0.17040  Biso   1.000  C
  N4       1.0000 0.80390  0.19400  0.17670  Biso   1.000  N
  C16      1.0000 0.77470  0.12100  0.17810  Biso   1.000  C
  C17      1.0000 0.72460  0.99810  0.18000  Biso   1.000  C
  H9       1.0000 0.69840  0.98050  0.18930  Biso   1.000  H
  O4       1.0000 0.10290  0.26830  0.30010  Biso   1.000  O
  C18      1.0000 0.72650  0.04670  0.18420  Biso   1.000  C
  H10      1.0000 0.70110  0.06250  0.19690  Biso   1.000  H
  N5       1.0000 0.77020  0.19260  0.20270  Biso   1.000  N
  N6       1.0000 0.75380  0.14920  0.20490  Biso   1.000  N
  O5       1.0000 0.81780  0.26700  0.11090  Biso   1.000  O
  N7       1.0000 0.77430  0.30830  0.86460  Biso   1.000  N
  C19      1.0000 0.82200  0.26210  0.02920  Biso   1.000  C
  H11      1.0000 0.84270  0.24180  0.04320  Biso   1.000  H
  C20      1.0000 0.81970  0.26480  0.90070  Biso   1.000  C
  H12      1.0000 0.74250  0.34250  0.90920  Biso   1.000  H
  N8       1.0000 0.76480  0.31970  0.90070  Biso   1.000  N
  C21      1.0000 0.82110  0.26200  0.98870  Biso   1.000  C
  H13      1.0000 0.84160  0.24140  0.97480  Biso   1.000  H
  Zn3      1.0000 0.33482  0.75312  0.66479  Biso   1.000  Zn
  Zn4      1.0000 0.25271  0.67235  0.81354  Biso   1.000  Zn
  N9       1.0000 0.31240  0.70430  0.80100  Biso   1.000  N
  N10      1.0000 0.35580  0.69770  0.81600  Biso   1.000  N
  N11      1.0000 0.31290  0.73900  0.77380  Biso   1.000  N
  C22      1.0000 0.45750  0.70300  0.83360  Biso   1.000  C
  H14      1.0000 0.43980  0.68190  0.84960  Biso   1.000  H
  C23      1.0000 0.38430  0.72800  0.79830  Biso   1.000  C
  C24      1.0000 0.50550  0.70490  0.83740  Biso   1.000  C
  H15      1.0000 0.52140  0.68510  0.85570  Biso   1.000  H
  C25      1.0000 0.35860  0.75560  0.77010  Biso   1.000  C
  H16      1.0000 0.37020  0.77950  0.75310  Biso   1.000  H
  C26      1.0000 0.43410  0.73170  0.80660  Biso   1.000  C
  O6       1.0000 0.28830  0.40090  0.63200  Biso   1.000  O
  O7       1.0000 0.60270  0.71010  0.83890  Biso   1.000  O
  C27      1.0000 0.53010  0.73580  0.81430  Biso   1.000  C
  C28      1.0000 0.26190  0.42350  0.65730  Biso   1.000  C
  C29      1.0000 0.29990  0.50080  0.64740  Biso   1.000  C
  H17      1.0000 0.32500  0.48490  0.63450  Biso   1.000  H
  C30      1.0000 0.45910  0.76160  0.78220  Biso   1.000  C
  H18      1.0000 0.44360  0.78070  0.76320  Biso   1.000  H
  O8       1.0000 0.23730  0.39900  0.67610  Biso   1.000  O
  C31      1.0000 0.30060  0.54890  0.65210  Biso   1.000  C
  H19      1.0000 0.32690  0.56610  0.64240  Biso   1.000  H
  C32      1.0000 0.26210  0.47630  0.66170  Biso   1.000  C
  C33      1.0000 0.50760  0.76270  0.78640  Biso   1.000  C
  H20      1.0000 0.52570  0.78260  0.76970  Biso   1.000  H
  C34      1.0000 0.58300  0.73950  0.81750  Biso   1.000  C
  C35      1.0000 0.30650  0.65240  0.65880  Biso   1.000  C
  H21      1.0000 0.32610  0.64500  0.63700  Biso   1.000  H
  C36      1.0000 0.26450  0.57290  0.67040  Biso   1.000  C
  N12      1.0000 0.30390  0.69400  0.67670  Biso   1.000  N
  C37      1.0000 0.27470  0.62100  0.67810  Biso   1.000  C
  C38      1.0000 0.22460  0.49810  0.68000  Biso   1.000  C
  H22      1.0000 0.19840  0.48050  0.68930  Biso   1.000  H
  O9       1.0000 0.60290  0.76830  0.80010  Biso   1.000  O
  C39      1.0000 0.22650  0.54670  0.68420  Biso   1.000  C
  H23      1.0000 0.20110  0.56250  0.69690  Biso   1.000  H
  N13      1.0000 0.27020  0.69260  0.70270  Biso   1.000  N
  N14      1.0000 0.25380  0.64920  0.70490  Biso   1.000  N
  O10      1.0000 0.31780  0.76700  0.61090  Biso   1.000  O
  N15      1.0000 0.27430  0.80830  0.36460  Biso   1.000  N
  C40      1.0000 0.32200  0.76210  0.52920  Biso   1.000  C
  H24      1.0000 0.34270  0.74180  0.54320  Biso   1.000  H
  C41      1.0000 0.31970  0.76480  0.40070  Biso   1.000  C
  H25      1.0000 0.24250  0.84250  0.40920  Biso   1.000  H
  N16      1.0000 0.26480  0.81970  0.40070  Biso   1.000  N
  C42      1.0000 0.32110  0.76200  0.48870  Biso   1.000  C
  H26      1.0000 0.34160  0.74140  0.47480  Biso   1.000  H
  Zn5      1.0000 0.16518  0.74688  0.16479  Biso   1.000  Zn
  Zn6      1.0000 0.24729  0.82765  0.31354  Biso   1.000  Zn
  N17      1.0000 0.18760  0.79570  0.30100  Biso   1.000  N
  N18      1.0000 0.14420  0.80230  0.31600  Biso   1.000  N
  N19      1.0000 0.18710  0.76100  0.27380  Biso   1.000  N
  C43      1.0000 0.04250  0.79700  0.33360  Biso   1.000  C
  H27      1.0000 0.06020  0.81810  0.34960  Biso   1.000  H
  C44      1.0000 0.11570  0.77200  0.29830  Biso   1.000  C
  C45      1.0000 0.99450  0.79510  0.33740  Biso   1.000  C
  H28      1.0000 0.97860  0.81490  0.35570  Biso   1.000  H
  C46      1.0000 0.14140  0.74440  0.27010  Biso   1.000  C
  H29      1.0000 0.12980  0.72050  0.25310  Biso   1.000  H
  C47      1.0000 0.06590  0.76830  0.30660  Biso   1.000  C
  O11      1.0000 0.21170  0.09910  0.13200  Biso   1.000  O
  O12      1.0000 0.89730  0.78990  0.33890  Biso   1.000  O
  C48      1.0000 0.96990  0.76420  0.31430  Biso   1.000  C
  C49      1.0000 0.23810  0.07650  0.15730  Biso   1.000  C
  C50      1.0000 0.20010  0.99920  0.14740  Biso   1.000  C
  H30      1.0000 0.17500  0.01510  0.13450  Biso   1.000  H
  C51      1.0000 0.04090  0.73840  0.28220  Biso   1.000  C
  H31      1.0000 0.05640  0.71930  0.26320  Biso   1.000  H
  O13      1.0000 0.26270  0.10100  0.17610  Biso   1.000  O
  C52      1.0000 0.19940  0.95110  0.15210  Biso   1.000  C
  H32      1.0000 0.17310  0.93390  0.14240  Biso   1.000  H
  C53      1.0000 0.23790  0.02370  0.16170  Biso   1.000  C
  C54      1.0000 0.99240  0.73730  0.28640  Biso   1.000  C
  H33      1.0000 0.97430  0.71740  0.26970  Biso   1.000  H
  C55      1.0000 0.91700  0.76050  0.31750  Biso   1.000  C
  C56      1.0000 0.19350  0.84760  0.15880  Biso   1.000  C
  H34      1.0000 0.17390  0.85500  0.13700  Biso   1.000  H
  C57      1.0000 0.23550  0.92710  0.17040  Biso   1.000  C
  N20      1.0000 0.19610  0.80600  0.17670  Biso   1.000  N
  C58      1.0000 0.22530  0.87900  0.17810  Biso   1.000  C
  C59      1.0000 0.27540  0.00190  0.18000  Biso   1.000  C
  H35      1.0000 0.30160  0.01950  0.18930  Biso   1.000  H
  O14      1.0000 0.89710  0.73170  0.30010  Biso   1.000  O
  C60      1.0000 0.27350  0.95330  0.18420  Biso   1.000  C
  H36      1.0000 0.29890  0.93750  0.19690  Biso   1.000  H
  N21      1.0000 0.22980  0.80740  0.20270  Biso   1.000  N
  N22      1.0000 0.24620  0.85080  0.20490  Biso   1.000  N
  O15      1.0000 0.18220  0.73300  0.11090  Biso   1.000  O
  N23      1.0000 0.22570  0.69170  0.86460  Biso   1.000  N
  C61      1.0000 0.17800  0.73790  0.02920  Biso   1.000  C
  H37      1.0000 0.15730  0.75820  0.04320  Biso   1.000  H
  C62      1.0000 0.18030  0.73520  0.90070  Biso   1.000  C
  H38      1.0000 0.25750  0.65750  0.90920  Biso   1.000  H
  N24      1.0000 0.23520  0.68030  0.90070  Biso   1.000  N
  C63      1.0000 0.17890  0.73800  0.98870  Biso   1.000  C
  H39      1.0000 0.15840  0.75860  0.97480  Biso   1.000  H
  Zn7      1.0000 0.66518  0.24688  0.66479  Biso   1.000  Zn
  Zn8      1.0000 0.74729  0.32765  0.81354  Biso   1.000  Zn
  N25      1.0000 0.68760  0.29570  0.80100  Biso   1.000  N
  N26      1.0000 0.64420  0.30230  0.81600  Biso   1.000  N
  N27      1.0000 0.68710  0.26100  0.77380  Biso   1.000  N
  C64      1.0000 0.54250  0.29700  0.83360  Biso   1.000  C
  H40      1.0000 0.56020  0.31810  0.84960  Biso   1.000  H
  C65      1.0000 0.61570  0.27200  0.79830  Biso   1.000  C
  C66      1.0000 0.49450  0.29510  0.83740  Biso   1.000  C
  H41      1.0000 0.47860  0.31490  0.85570  Biso   1.000  H
  C67      1.0000 0.64140  0.24440  0.77010  Biso   1.000  C
  H42      1.0000 0.62980  0.22050  0.75310  Biso   1.000  H
  C68      1.0000 0.56590  0.26830  0.80660  Biso   1.000  C
  O16      1.0000 0.71170  0.59910  0.63200  Biso   1.000  O
  O17      1.0000 0.39730  0.28990  0.83890  Biso   1.000  O
  C69      1.0000 0.46990  0.26420  0.81430  Biso   1.000  C
  C70      1.0000 0.73810  0.57650  0.65730  Biso   1.000  C
  C71      1.0000 0.70010  0.49920  0.64740  Biso   1.000  C
  H43      1.0000 0.67500  0.51510  0.63450  Biso   1.000  H
  C72      1.0000 0.54090  0.23840  0.78220  Biso   1.000  C
  H44      1.0000 0.55640  0.21930  0.76320  Biso   1.000  H
  O18      1.0000 0.76270  0.60100  0.67610  Biso   1.000  O
  C73      1.0000 0.69940  0.45110  0.65210  Biso   1.000  C
  H45      1.0000 0.67310  0.43390  0.64240  Biso   1.000  H
  C74      1.0000 0.73790  0.52370  0.66170  Biso   1.000  C
  C75      1.0000 0.49240  0.23730  0.78640  Biso   1.000  C
  H46      1.0000 0.47430  0.21740  0.76970  Biso   1.000  H
  C76      1.0000 0.41700  0.26050  0.81750  Biso   1.000  C
  C77      1.0000 0.69350  0.34760  0.65880  Biso   1.000  C
  H47      1.0000 0.67390  0.35500  0.63700  Biso   1.000  H
  C78      1.0000 0.73550  0.42710  0.67040  Biso   1.000  C
  N28      1.0000 0.69610  0.30600  0.67670  Biso   1.000  N
  C79      1.0000 0.72530  0.37900  0.67810  Biso   1.000  C
  C80      1.0000 0.77540  0.50190  0.68000  Biso   1.000  C
  H48      1.0000 0.80160  0.51950  0.68930  Biso   1.000  H
  O19      1.0000 0.39710  0.23170  0.80010  Biso   1.000  O
  C81      1.0000 0.77350  0.45330  0.68420  Biso   1.000  C
  H49      1.0000 0.79890  0.43750  0.69690  Biso   1.000  H
  N29      1.0000 0.72980  0.30740  0.70270  Biso   1.000  N
  N30      1.0000 0.74620  0.35080  0.70490  Biso   1.000  N
  O20      1.0000 0.68220  0.23300  0.61090  Biso   1.000  O
  N31      1.0000 0.72570  0.19170  0.36460  Biso   1.000  N
  C82      1.0000 0.67800  0.23790  0.52920  Biso   1.000  C
  H50      1.0000 0.65730  0.25820  0.54320  Biso   1.000  H
  C83      1.0000 0.68030  0.23520  0.40070  Biso   1.000  C
  H51      1.0000 0.75750  0.15750  0.40920  Biso   1.000  H
  N32      1.0000 0.73520  0.18030  0.40070  Biso   1.000  N
  C84      1.0000 0.67890  0.23800  0.48870  Biso   1.000  C
  H52      1.0000 0.65840  0.25860  0.47480  Biso   1.000  H
  Zn9      1.0000 0.74688  0.83482  0.16479  Biso   1.000  Zn
  Zn10     1.0000 0.82765  0.75271  0.31354  Biso   1.000  Zn
  N33      1.0000 0.79570  0.81240  0.30100  Biso   1.000  N
  N34      1.0000 0.80230  0.85580  0.31600  Biso   1.000  N
  N35      1.0000 0.76100  0.81290  0.27380  Biso   1.000  N
  C85      1.0000 0.79700  0.95750  0.33360  Biso   1.000  C
  H53      1.0000 0.81810  0.93980  0.34960  Biso   1.000  H
  C86      1.0000 0.77200  0.88430  0.29830  Biso   1.000  C
  C87      1.0000 0.79510  0.00550  0.33740  Biso   1.000  C
  H54      1.0000 0.81490  0.02140  0.35570  Biso   1.000  H
  C88      1.0000 0.74440  0.85860  0.27010  Biso   1.000  C
  H55      1.0000 0.72050  0.87020  0.25310  Biso   1.000  H
  C89      1.0000 0.76830  0.93410  0.30660  Biso   1.000  C
  O21      1.0000 0.09910  0.78830  0.13200  Biso   1.000  O
  O22      1.0000 0.78990  0.10270  0.33890  Biso   1.000  O
  C90      1.0000 0.76420  0.03010  0.31430  Biso   1.000  C
  C91      1.0000 0.07650  0.76190  0.15730  Biso   1.000  C
  C92      1.0000 0.99920  0.79990  0.14740  Biso   1.000  C
  H56      1.0000 0.01510  0.82500  0.13450  Biso   1.000  H
  C93      1.0000 0.73840  0.95910  0.28220  Biso   1.000  C
  H57      1.0000 0.71930  0.94360  0.26320  Biso   1.000  H
  O23      1.0000 0.10100  0.73730  0.17610  Biso   1.000  O
  C94      1.0000 0.95110  0.80060  0.15210  Biso   1.000  C
  H58      1.0000 0.93390  0.82690  0.14240  Biso   1.000  H
  C95      1.0000 0.02370  0.76210  0.16170  Biso   1.000  C
  C96      1.0000 0.73730  0.00760  0.28640  Biso   1.000  C
  H59      1.0000 0.71740  0.02570  0.26970  Biso   1.000  H
  C97      1.0000 0.76050  0.08300  0.31750  Biso   1.000  C
  C98      1.0000 0.84760  0.80650  0.15880  Biso   1.000  C
  H60      1.0000 0.85500  0.82610  0.13700  Biso   1.000  H
  C99      1.0000 0.92710  0.76450  0.17040  Biso   1.000  C
  N36      1.0000 0.80600  0.80390  0.17670  Biso   1.000  N
  C100     1.0000 0.87900  0.77470  0.17810  Biso   1.000  C
  C101     1.0000 0.00190  0.72460  0.18000  Biso   1.000  C
  H61      1.0000 0.01950  0.69840  0.18930  Biso   1.000  H
  O24      1.0000 0.73170  0.10290  0.30010  Biso   1.000  O
  C102     1.0000 0.95330  0.72650  0.18420  Biso   1.000  C
  H62      1.0000 0.93750  0.70110  0.19690  Biso   1.000  H
  N37      1.0000 0.80740  0.77020  0.20270  Biso   1.000  N
  N38      1.0000 0.85080  0.75380  0.20490  Biso   1.000  N
  O25      1.0000 0.73300  0.81780  0.11090  Biso   1.000  O
  N39      1.0000 0.69170  0.77430  0.86460  Biso   1.000  N
  C103     1.0000 0.73790  0.82200  0.02920  Biso   1.000  C
  H63      1.0000 0.75820  0.84270  0.04320  Biso   1.000  H
  C104     1.0000 0.73520  0.81970  0.90070  Biso   1.000  C
  H64      1.0000 0.65750  0.74250  0.90920  Biso   1.000  H
  N40      1.0000 0.68030  0.76480  0.90070  Biso   1.000  N
  C105     1.0000 0.73800  0.82110  0.98870  Biso   1.000  C
  H65      1.0000 0.75860  0.84160  0.97480  Biso   1.000  H
  Zn11     1.0000 0.24688  0.33482  0.66479  Biso   1.000  Zn
  Zn12     1.0000 0.32765  0.25271  0.81354  Biso   1.000  Zn
  N41      1.0000 0.29570  0.31240  0.80100  Biso   1.000  N
  N42      1.0000 0.30230  0.35580  0.81600  Biso   1.000  N
  N43      1.0000 0.26100  0.31290  0.77380  Biso   1.000  N
  C106     1.0000 0.29700  0.45750  0.83360  Biso   1.000  C
  H66      1.0000 0.31810  0.43980  0.84960  Biso   1.000  H
  C107     1.0000 0.27200  0.38430  0.79830  Biso   1.000  C
  C108     1.0000 0.29510  0.50550  0.83740  Biso   1.000  C
  H67      1.0000 0.31490  0.52140  0.85570  Biso   1.000  H
  C109     1.0000 0.24440  0.35860  0.77010  Biso   1.000  C
  H68      1.0000 0.22050  0.37020  0.75310  Biso   1.000  H
  C110     1.0000 0.26830  0.43410  0.80660  Biso   1.000  C
  O26      1.0000 0.59910  0.28830  0.63200  Biso   1.000  O
  O27      1.0000 0.28990  0.60270  0.83890  Biso   1.000  O
  C111     1.0000 0.26420  0.53010  0.81430  Biso   1.000  C
  C112     1.0000 0.57650  0.26190  0.65730  Biso   1.000  C
  C113     1.0000 0.49920  0.29990  0.64740  Biso   1.000  C
  H69      1.0000 0.51510  0.32500  0.63450  Biso   1.000  H
  C114     1.0000 0.23840  0.45910  0.78220  Biso   1.000  C
  H70      1.0000 0.21930  0.44360  0.76320  Biso   1.000  H
  O28      1.0000 0.60100  0.23730  0.67610  Biso   1.000  O
  C115     1.0000 0.45110  0.30060  0.65210  Biso   1.000  C
  H71      1.0000 0.43390  0.32690  0.64240  Biso   1.000  H
  C116     1.0000 0.52370  0.26210  0.66170  Biso   1.000  C
  C117     1.0000 0.23730  0.50760  0.78640  Biso   1.000  C
  H72      1.0000 0.21740  0.52570  0.76970  Biso   1.000  H
  C118     1.0000 0.26050  0.58300  0.81750  Biso   1.000  C
  C119     1.0000 0.34760  0.30650  0.65880  Biso   1.000  C
  H73      1.0000 0.35500  0.32610  0.63700  Biso   1.000  H
  C120     1.0000 0.42710  0.26450  0.67040  Biso   1.000  C
  N44      1.0000 0.30600  0.30390  0.67670  Biso   1.000  N
  C121     1.0000 0.37900  0.27470  0.67810  Biso   1.000  C
  C122     1.0000 0.50190  0.22460  0.68000  Biso   1.000  C
  H74      1.0000 0.51950  0.19840  0.68930  Biso   1.000  H
  O29      1.0000 0.23170  0.60290  0.80010  Biso   1.000  O
  C123     1.0000 0.45330  0.22650  0.68420  Biso   1.000  C
  H75      1.0000 0.43750  0.20110  0.69690  Biso   1.000  H
  N45      1.0000 0.30740  0.27020  0.70270  Biso   1.000  N
  N46      1.0000 0.35080  0.25380  0.70490  Biso   1.000  N
  O30      1.0000 0.23300  0.31780  0.61090  Biso   1.000  O
  N47      1.0000 0.19170  0.27430  0.36460  Biso   1.000  N
  C124     1.0000 0.23790  0.32200  0.52920  Biso   1.000  C
  H76      1.0000 0.25820  0.34270  0.54320  Biso   1.000  H
  C125     1.0000 0.23520  0.31970  0.40070  Biso   1.000  C
  H77      1.0000 0.15750  0.24250  0.40920  Biso   1.000  H
  N48      1.0000 0.18030  0.26480  0.40070  Biso   1.000  N
  C126     1.0000 0.23800  0.32110  0.48870  Biso   1.000  C
  H78      1.0000 0.25860  0.34160  0.47480  Biso   1.000  H
  Zn13     1.0000 0.25312  0.16518  0.16479  Biso   1.000  Zn
  Zn14     1.0000 0.17235  0.24729  0.31354  Biso   1.000  Zn
  N49      1.0000 0.20430  0.18760  0.30100  Biso   1.000  N
  N50      1.0000 0.19770  0.14420  0.31600  Biso   1.000  N
  N51      1.0000 0.23900  0.18710  0.27380  Biso   1.000  N
  C127     1.0000 0.20300  0.04250  0.33360  Biso   1.000  C
  H79      1.0000 0.18190  0.06020  0.34960  Biso   1.000  H
  C128     1.0000 0.22800  0.11570  0.29830  Biso   1.000  C
  C129     1.0000 0.20490  0.99450  0.33740  Biso   1.000  C
  H80      1.0000 0.18510  0.97860  0.35570  Biso   1.000  H
  C130     1.0000 0.25560  0.14140  0.27010  Biso   1.000  C
  H81      1.0000 0.27950  0.12980  0.25310  Biso   1.000  H
  C131     1.0000 0.23170  0.06590  0.30660  Biso   1.000  C
  O31      1.0000 0.90090  0.21170  0.13200  Biso   1.000  O
  O32      1.0000 0.21010  0.89730  0.33890  Biso   1.000  O
  C132     1.0000 0.23580  0.96990  0.31430  Biso   1.000  C
  C133     1.0000 0.92350  0.23810  0.15730  Biso   1.000  C
  C134     1.0000 0.00080  0.20010  0.14740  Biso   1.000  C
  H82      1.0000 0.98490  0.17500  0.13450  Biso   1.000  H
  C135     1.0000 0.26160  0.04090  0.28220  Biso   1.000  C
  H83      1.0000 0.28070  0.05640  0.26320  Biso   1.000  H
  O33      1.0000 0.89900  0.26270  0.17610  Biso   1.000  O
  C136     1.0000 0.04890  0.19940  0.15210  Biso   1.000  C
  H84      1.0000 0.06610  0.17310  0.14240  Biso   1.000  H
  C137     1.0000 0.97630  0.23790  0.16170  Biso   1.000  C
  C138     1.0000 0.26270  0.99240  0.28640  Biso   1.000  C
  H85      1.0000 0.28260  0.97430  0.26970  Biso   1.000  H
  C139     1.0000 0.23950  0.91700  0.31750  Biso   1.000  C
  C140     1.0000 0.15240  0.19350  0.15880  Biso   1.000  C
  H86      1.0000 0.14500  0.17390  0.13700  Biso   1.000  H
  C141     1.0000 0.07290  0.23550  0.17040  Biso   1.000  C
  N52      1.0000 0.19400  0.19610  0.17670  Biso   1.000  N
  C142     1.0000 0.12100  0.22530  0.17810  Biso   1.000  C
  C143     1.0000 0.99810  0.27540  0.18000  Biso   1.000  C
  H87      1.0000 0.98050  0.30160  0.18930  Biso   1.000  H
  O34      1.0000 0.26830  0.89710  0.30010  Biso   1.000  O
  C144     1.0000 0.04670  0.27350  0.18420  Biso   1.000  C
  H88      1.0000 0.06250  0.29890  0.19690  Biso   1.000  H
  N53      1.0000 0.19260  0.22980  0.20270  Biso   1.000  N
  N54      1.0000 0.14920  0.24620  0.20490  Biso   1.000  N
  O35      1.0000 0.26700  0.18220  0.11090  Biso   1.000  O
  N55      1.0000 0.30830  0.22570  0.86460  Biso   1.000  N
  C145     1.0000 0.26210  0.17800  0.02920  Biso   1.000  C
  H89      1.0000 0.24180  0.15730  0.04320  Biso   1.000  H
  C146     1.0000 0.26480  0.18030  0.90070  Biso   1.000  C
  H90      1.0000 0.34250  0.25750  0.90920  Biso   1.000  H
  N56      1.0000 0.31970  0.23520  0.90070  Biso   1.000  N
  C147     1.0000 0.26200  0.17890  0.98870  Biso   1.000  C
  H91      1.0000 0.24140  0.15840  0.97480  Biso   1.000  H
  Zn15     1.0000 0.75312  0.66518  0.66479  Biso   1.000  Zn
  Zn16     1.0000 0.67235  0.74729  0.81354  Biso   1.000  Zn
  N57      1.0000 0.70430  0.68760  0.80100  Biso   1.000  N
  N58      1.0000 0.69770  0.64420  0.81600  Biso   1.000  N
  N59      1.0000 0.73900  0.68710  0.77380  Biso   1.000  N
  C148     1.0000 0.70300  0.54250  0.83360  Biso   1.000  C
  H92      1.0000 0.68190  0.56020  0.84960  Biso   1.000  H
  C149     1.0000 0.72800  0.61570  0.79830  Biso   1.000  C
  C150     1.0000 0.70490  0.49450  0.83740  Biso   1.000  C
  H93      1.0000 0.68510  0.47860  0.85570  Biso   1.000  H
  C151     1.0000 0.75560  0.64140  0.77010  Biso   1.000  C
  H94      1.0000 0.77950  0.62980  0.75310  Biso   1.000  H
  C152     1.0000 0.73170  0.56590  0.80660  Biso   1.000  C
  O36      1.0000 0.40090  0.71170  0.63200  Biso   1.000  O
  O37      1.0000 0.71010  0.39730  0.83890  Biso   1.000  O
  C153     1.0000 0.73580  0.46990  0.81430  Biso   1.000  C
  C154     1.0000 0.42350  0.73810  0.65730  Biso   1.000  C
  C155     1.0000 0.50080  0.70010  0.64740  Biso   1.000  C
  H95      1.0000 0.48490  0.67500  0.63450  Biso   1.000  H
  C156     1.0000 0.76160  0.54090  0.78220  Biso   1.000  C
  H96      1.0000 0.78070  0.55640  0.76320  Biso   1.000  H
  O38      1.0000 0.39900  0.76270  0.67610  Biso   1.000  O
  C157     1.0000 0.54890  0.69940  0.65210  Biso   1.000  C
  H97      1.0000 0.56610  0.67310  0.64240  Biso   1.000  H
  C158     1.0000 0.47630  0.73790  0.66170  Biso   1.000  C
  C159     1.0000 0.76270  0.49240  0.78640  Biso   1.000  C
  H98      1.0000 0.78260  0.47430  0.76970  Biso   1.000  H
  C160     1.0000 0.73950  0.41700  0.81750  Biso   1.000  C
  C161     1.0000 0.65240  0.69350  0.65880  Biso   1.000  C
  H99      1.0000 0.64500  0.67390  0.63700  Biso   1.000  H
  C162     1.0000 0.57290  0.73550  0.67040  Biso   1.000  C
  N60      1.0000 0.69400  0.69610  0.67670  Biso   1.000  N
  C163     1.0000 0.62100  0.72530  0.67810  Biso   1.000  C
  C164     1.0000 0.49810  0.77540  0.68000  Biso   1.000  C
  H100     1.0000 0.48050  0.80160  0.68930  Biso   1.000  H
  O39      1.0000 0.76830  0.39710  0.80010  Biso   1.000  O
  C165     1.0000 0.54670  0.77350  0.68420  Biso   1.000  C
  H101     1.0000 0.56250  0.79890  0.69690  Biso   1.000  H
  N61      1.0000 0.69260  0.72980  0.70270  Biso   1.000  N
  N62      1.0000 0.64920  0.74620  0.70490  Biso   1.000  N
  O40      1.0000 0.76700  0.68220  0.61090  Biso   1.000  O
  N63      1.0000 0.80830  0.72570  0.36460  Biso   1.000  N
  C166     1.0000 0.76210  0.67800  0.52920  Biso   1.000  C
  H102     1.0000 0.74180  0.65730  0.54320  Biso   1.000  H
  C167     1.0000 0.76480  0.68030  0.40070  Biso   1.000  C
  H103     1.0000 0.84250  0.75750  0.40920  Biso   1.000  H
  N64      1.0000 0.81970  0.73520  0.40070  Biso   1.000  N
  C168     1.0000 0.76200  0.67890  0.48870  Biso   1.000  C
  H104     1.0000 0.74140  0.65840  0.47480  Biso   1.000  H
  Zn17     1.0000 0.83482  0.74688  0.66479  Biso   1.000  Zn
  Zn18     1.0000 0.75271  0.82765  0.81354  Biso   1.000  Zn
  N65      1.0000 0.81240  0.79570  0.80100  Biso   1.000  N
  N66      1.0000 0.85580  0.80230  0.81600  Biso   1.000  N
  N67      1.0000 0.81290  0.76100  0.77380  Biso   1.000  N
  C169     1.0000 0.95750  0.79700  0.83360  Biso   1.000  C
  H105     1.0000 0.93980  0.81810  0.84960  Biso   1.000  H
  C170     1.0000 0.88430  0.77200  0.79830  Biso   1.000  C
  C171     1.0000 0.00550  0.79510  0.83740  Biso   1.000  C
  H106     1.0000 0.02140  0.81490  0.85570  Biso   1.000  H
  C172     1.0000 0.85860  0.74440  0.77010  Biso   1.000  C
  H107     1.0000 0.87020  0.72050  0.75310  Biso   1.000  H
  C173     1.0000 0.93410  0.76830  0.80660  Biso   1.000  C
  O41      1.0000 0.78830  0.09910  0.63200  Biso   1.000  O
  O42      1.0000 0.10270  0.78990  0.83890  Biso   1.000  O
  C174     1.0000 0.03010  0.76420  0.81430  Biso   1.000  C
  C175     1.0000 0.76190  0.07650  0.65730  Biso   1.000  C
  C176     1.0000 0.79990  0.99920  0.64740  Biso   1.000  C
  H108     1.0000 0.82500  0.01510  0.63450  Biso   1.000  H
  C177     1.0000 0.95910  0.73840  0.78220  Biso   1.000  C
  H109     1.0000 0.94360  0.71930  0.76320  Biso   1.000  H
  O43      1.0000 0.73730  0.10100  0.67610  Biso   1.000  O
  C178     1.0000 0.80060  0.95110  0.65210  Biso   1.000  C
  H110     1.0000 0.82690  0.93390  0.64240  Biso   1.000  H
  C179     1.0000 0.76210  0.02370  0.66170  Biso   1.000  C
  C180     1.0000 0.00760  0.73730  0.78640  Biso   1.000  C
  H111     1.0000 0.02570  0.71740  0.76970  Biso   1.000  H
  C181     1.0000 0.08300  0.76050  0.81750  Biso   1.000  C
  C182     1.0000 0.80650  0.84760  0.65880  Biso   1.000  C
  H112     1.0000 0.82610  0.85500  0.63700  Biso   1.000  H
  C183     1.0000 0.76450  0.92710  0.67040  Biso   1.000  C
  N68      1.0000 0.80390  0.80600  0.67670  Biso   1.000  N
  C184     1.0000 0.77470  0.87900  0.67810  Biso   1.000  C
  C185     1.0000 0.72460  0.00190  0.68000  Biso   1.000  C
  H113     1.0000 0.69840  0.01950  0.68930  Biso   1.000  H
  O44      1.0000 0.10290  0.73170  0.80010  Biso   1.000  O
  C186     1.0000 0.72650  0.95330  0.68420  Biso   1.000  C
  H114     1.0000 0.70110  0.93750  0.69690  Biso   1.000  H
  N69      1.0000 0.77020  0.80740  0.70270  Biso   1.000  N
  N70      1.0000 0.75380  0.85080  0.70490  Biso   1.000  N
  O45      1.0000 0.81780  0.73300  0.61090  Biso   1.000  O
  N71      1.0000 0.77430  0.69170  0.36460  Biso   1.000  N
  C187     1.0000 0.82200  0.73790  0.52920  Biso   1.000  C
  H115     1.0000 0.84270  0.75820  0.54320  Biso   1.000  H
  H116     1.0000 0.74250  0.65750  0.40920  Biso   1.000  H
  C188     1.0000 0.82110  0.73800  0.48870  Biso   1.000  C
  H117     1.0000 0.84160  0.75860  0.47480  Biso   1.000  H
  Zn19     1.0000 0.33482  0.24688  0.16479  Biso   1.000  Zn
  Zn20     1.0000 0.25271  0.32765  0.31354  Biso   1.000  Zn
  N72      1.0000 0.31240  0.29570  0.30100  Biso   1.000  N
  N73      1.0000 0.35580  0.30230  0.31600  Biso   1.000  N
  N74      1.0000 0.31290  0.26100  0.27380  Biso   1.000  N
  C189     1.0000 0.45750  0.29700  0.33360  Biso   1.000  C
  H118     1.0000 0.43980  0.31810  0.34960  Biso   1.000  H
  C190     1.0000 0.38430  0.27200  0.29830  Biso   1.000  C
  C191     1.0000 0.50550  0.29510  0.33740  Biso   1.000  C
  H119     1.0000 0.52140  0.31490  0.35570  Biso   1.000  H
  C192     1.0000 0.35860  0.24440  0.27010  Biso   1.000  C
  H120     1.0000 0.37020  0.22050  0.25310  Biso   1.000  H
  C193     1.0000 0.43410  0.26830  0.30660  Biso   1.000  C
  O46      1.0000 0.28830  0.59910  0.13200  Biso   1.000  O
  O47      1.0000 0.60270  0.28990  0.33890  Biso   1.000  O
  C194     1.0000 0.53010  0.26420  0.31430  Biso   1.000  C
  C195     1.0000 0.26190  0.57650  0.15730  Biso   1.000  C
  C196     1.0000 0.29990  0.49920  0.14740  Biso   1.000  C
  H121     1.0000 0.32500  0.51510  0.13450  Biso   1.000  H
  C197     1.0000 0.45910  0.23840  0.28220  Biso   1.000  C
  H122     1.0000 0.44360  0.21930  0.26320  Biso   1.000  H
  O48      1.0000 0.23730  0.60100  0.17610  Biso   1.000  O
  C198     1.0000 0.30060  0.45110  0.15210  Biso   1.000  C
  H123     1.0000 0.32690  0.43390  0.14240  Biso   1.000  H
  C199     1.0000 0.26210  0.52370  0.16170  Biso   1.000  C
  C200     1.0000 0.50760  0.23730  0.28640  Biso   1.000  C
  H124     1.0000 0.52570  0.21740  0.26970  Biso   1.000  H
  C201     1.0000 0.58300  0.26050  0.31750  Biso   1.000  C
  C202     1.0000 0.30650  0.34760  0.15880  Biso   1.000  C
  H125     1.0000 0.32610  0.35500  0.13700  Biso   1.000  H
  C203     1.0000 0.26450  0.42710  0.17040  Biso   1.000  C
  N75      1.0000 0.30390  0.30600  0.17670  Biso   1.000  N
  C204     1.0000 0.27470  0.37900  0.17810  Biso   1.000  C
  C205     1.0000 0.22460  0.50190  0.18000  Biso   1.000  C
  H126     1.0000 0.19840  0.51950  0.18930  Biso   1.000  H
  O49      1.0000 0.60290  0.23170  0.30010  Biso   1.000  O
  C206     1.0000 0.22650  0.45330  0.18420  Biso   1.000  C
  H127     1.0000 0.20110  0.43750  0.19690  Biso   1.000  H
  N76      1.0000 0.27020  0.30740  0.20270  Biso   1.000  N
  N77      1.0000 0.25380  0.35080  0.20490  Biso   1.000  N
  O50      1.0000 0.31780  0.23300  0.11090  Biso   1.000  O
  N78      1.0000 0.27430  0.19170  0.86460  Biso   1.000  N
  C207     1.0000 0.32200  0.23790  0.02920  Biso   1.000  C
  H128     1.0000 0.34270  0.25820  0.04320  Biso   1.000  H
  H129     1.0000 0.24250  0.15750  0.90920  Biso   1.000  H
  C208     1.0000 0.32110  0.23800  0.98870  Biso   1.000  C
  H130     1.0000 0.34160  0.25860  0.97480  Biso   1.000  H
  Zn21     1.0000 0.16518  0.25312  0.66479  Biso   1.000  Zn
  Zn22     1.0000 0.24729  0.17235  0.81354  Biso   1.000  Zn
  N79      1.0000 0.18760  0.20430  0.80100  Biso   1.000  N
  N80      1.0000 0.14420  0.19770  0.81600  Biso   1.000  N
  N81      1.0000 0.18710  0.23900  0.77380  Biso   1.000  N
  C209     1.0000 0.04250  0.20300  0.83360  Biso   1.000  C
  H131     1.0000 0.06020  0.18190  0.84960  Biso   1.000  H
  C210     1.0000 0.11570  0.22800  0.79830  Biso   1.000  C
  C211     1.0000 0.99450  0.20490  0.83740  Biso   1.000  C
  H132     1.0000 0.97860  0.18510  0.85570  Biso   1.000  H
  C212     1.0000 0.14140  0.25560  0.77010  Biso   1.000  C
  H133     1.0000 0.12980  0.27950  0.75310  Biso   1.000  H
  C213     1.0000 0.06590  0.23170  0.80660  Biso   1.000  C
  O51      1.0000 0.21170  0.90090  0.63200  Biso   1.000  O
  O52      1.0000 0.89730  0.21010  0.83890  Biso   1.000  O
  C214     1.0000 0.96990  0.23580  0.81430  Biso   1.000  C
  C215     1.0000 0.23810  0.92350  0.65730  Biso   1.000  C
  C216     1.0000 0.20010  0.00080  0.64740  Biso   1.000  C
  H134     1.0000 0.17500  0.98490  0.63450  Biso   1.000  H
  C217     1.0000 0.04090  0.26160  0.78220  Biso   1.000  C
  H135     1.0000 0.05640  0.28070  0.76320  Biso   1.000  H
  O53      1.0000 0.26270  0.89900  0.67610  Biso   1.000  O
  C218     1.0000 0.19940  0.04890  0.65210  Biso   1.000  C
  H136     1.0000 0.17310  0.06610  0.64240  Biso   1.000  H
  C219     1.0000 0.23790  0.97630  0.66170  Biso   1.000  C
  C220     1.0000 0.99240  0.26270  0.78640  Biso   1.000  C
  H137     1.0000 0.97430  0.28260  0.76970  Biso   1.000  H
  C221     1.0000 0.91700  0.23950  0.81750  Biso   1.000  C
  C222     1.0000 0.19350  0.15240  0.65880  Biso   1.000  C
  H138     1.0000 0.17390  0.14500  0.63700  Biso   1.000  H
  C223     1.0000 0.23550  0.07290  0.67040  Biso   1.000  C
  N82      1.0000 0.19610  0.19400  0.67670  Biso   1.000  N
  C224     1.0000 0.22530  0.12100  0.67810  Biso   1.000  C
  C225     1.0000 0.27540  0.99810  0.68000  Biso   1.000  C
  H139     1.0000 0.30160  0.98050  0.68930  Biso   1.000  H
  O54      1.0000 0.89710  0.26830  0.80010  Biso   1.000  O
  C226     1.0000 0.27350  0.04670  0.68420  Biso   1.000  C
  H140     1.0000 0.29890  0.06250  0.69690  Biso   1.000  H
  N83      1.0000 0.22980  0.19260  0.70270  Biso   1.000  N
  N84      1.0000 0.24620  0.14920  0.70490  Biso   1.000  N
  O55      1.0000 0.18220  0.26700  0.61090  Biso   1.000  O
  N85      1.0000 0.22570  0.30830  0.36460  Biso   1.000  N
  C227     1.0000 0.17800  0.26210  0.52920  Biso   1.000  C
  H141     1.0000 0.15730  0.24180  0.54320  Biso   1.000  H
  H142     1.0000 0.25750  0.34250  0.40920  Biso   1.000  H
  C228     1.0000 0.17890  0.26200  0.48870  Biso   1.000  C
  H143     1.0000 0.15840  0.24140  0.47480  Biso   1.000  H
  Zn23     1.0000 0.66518  0.75312  0.16479  Biso   1.000  Zn
  Zn24     1.0000 0.74729  0.67235  0.31354  Biso   1.000  Zn
  N86      1.0000 0.68760  0.70430  0.30100  Biso   1.000  N
  N87      1.0000 0.64420  0.69770  0.31600  Biso   1.000  N
  N88      1.0000 0.68710  0.73900  0.27380  Biso   1.000  N
  C229     1.0000 0.54250  0.70300  0.33360  Biso   1.000  C
  H144     1.0000 0.56020  0.68190  0.34960  Biso   1.000  H
  C230     1.0000 0.61570  0.72800  0.29830  Biso   1.000  C
  C231     1.0000 0.49450  0.70490  0.33740  Biso   1.000  C
  H145     1.0000 0.47860  0.68510  0.35570  Biso   1.000  H
  C232     1.0000 0.64140  0.75560  0.27010  Biso   1.000  C
  H146     1.0000 0.62980  0.77950  0.25310  Biso   1.000  H
  C233     1.0000 0.56590  0.73170  0.30660  Biso   1.000  C
  O56      1.0000 0.71170  0.40090  0.13200  Biso   1.000  O
  O57      1.0000 0.39730  0.71010  0.33890  Biso   1.000  O
  C234     1.0000 0.46990  0.73580  0.31430  Biso   1.000  C
  C235     1.0000 0.73810  0.42350  0.15730  Biso   1.000  C
  C236     1.0000 0.70010  0.50080  0.14740  Biso   1.000  C
  H147     1.0000 0.67500  0.48490  0.13450  Biso   1.000  H
  C237     1.0000 0.54090  0.76160  0.28220  Biso   1.000  C
  H148     1.0000 0.55640  0.78070  0.26320  Biso   1.000  H
  O58      1.0000 0.76270  0.39900  0.17610  Biso   1.000  O
  C238     1.0000 0.69940  0.54890  0.15210  Biso   1.000  C
  H149     1.0000 0.67310  0.56610  0.14240  Biso   1.000  H
  C239     1.0000 0.73790  0.47630  0.16170  Biso   1.000  C
  C240     1.0000 0.49240  0.76270  0.28640  Biso   1.000  C
  H150     1.0000 0.47430  0.78260  0.26970  Biso   1.000  H
  C241     1.0000 0.41700  0.73950  0.31750  Biso   1.000  C
  C242     1.0000 0.69350  0.65240  0.15880  Biso   1.000  C
  H151     1.0000 0.67390  0.64500  0.13700  Biso   1.000  H
  C243     1.0000 0.73550  0.57290  0.17040  Biso   1.000  C
  N89      1.0000 0.69610  0.69400  0.17670  Biso   1.000  N
  C244     1.0000 0.72530  0.62100  0.17810  Biso   1.000  C
  C245     1.0000 0.77540  0.49810  0.18000  Biso   1.000  C
  H152     1.0000 0.80160  0.48050  0.18930  Biso   1.000  H
  O59      1.0000 0.39710  0.76830  0.30010  Biso   1.000  O
  C246     1.0000 0.77350  0.54670  0.18420  Biso   1.000  C
  H153     1.0000 0.79890  0.56250  0.19690  Biso   1.000  H
  N90      1.0000 0.72980  0.69260  0.20270  Biso   1.000  N
  N91      1.0000 0.74620  0.64920  0.20490  Biso   1.000  N
  O60      1.0000 0.68220  0.76700  0.11090  Biso   1.000  O
  N92      1.0000 0.72570  0.80830  0.86460  Biso   1.000  N
  C247     1.0000 0.67800  0.76210  0.02920  Biso   1.000  C
  H154     1.0000 0.65730  0.74180  0.04320  Biso   1.000  H
  H155     1.0000 0.75750  0.84250  0.90920  Biso   1.000  H
  C248     1.0000 0.67890  0.76200  0.98870  Biso   1.000  C
  H156     1.0000 0.65840  0.74140  0.97480  Biso   1.000  H
  Zn25     1.0000 0.74688  0.16518  0.66479  Biso   1.000  Zn
  Zn26     1.0000 0.82765  0.24729  0.81354  Biso   1.000  Zn
  N93      1.0000 0.79570  0.18760  0.80100  Biso   1.000  N
  N94      1.0000 0.80230  0.14420  0.81600  Biso   1.000  N
  N95      1.0000 0.76100  0.18710  0.77380  Biso   1.000  N
  C249     1.0000 0.79700  0.04250  0.83360  Biso   1.000  C
  H157     1.0000 0.81810  0.06020  0.84960  Biso   1.000  H
  C250     1.0000 0.77200  0.11570  0.79830  Biso   1.000  C
  C251     1.0000 0.79510  0.99450  0.83740  Biso   1.000  C
  H158     1.0000 0.81490  0.97860  0.85570  Biso   1.000  H
  C252     1.0000 0.74440  0.14140  0.77010  Biso   1.000  C
  H159     1.0000 0.72050  0.12980  0.75310  Biso   1.000  H
  C253     1.0000 0.76830  0.06590  0.80660  Biso   1.000  C
  O61      1.0000 0.09910  0.21170  0.63200  Biso   1.000  O
  O62      1.0000 0.78990  0.89730  0.83890  Biso   1.000  O
  C254     1.0000 0.76420  0.96990  0.81430  Biso   1.000  C
  C255     1.0000 0.07650  0.23810  0.65730  Biso   1.000  C
  C256     1.0000 0.99920  0.20010  0.64740  Biso   1.000  C
  H160     1.0000 0.01510  0.17500  0.63450  Biso   1.000  H
  C257     1.0000 0.73840  0.04090  0.78220  Biso   1.000  C
  H161     1.0000 0.71930  0.05640  0.76320  Biso   1.000  H
  O63      1.0000 0.10100  0.26270  0.67610  Biso   1.000  O
  C258     1.0000 0.95110  0.19940  0.65210  Biso   1.000  C
  H162     1.0000 0.93390  0.17310  0.64240  Biso   1.000  H
  C259     1.0000 0.02370  0.23790  0.66170  Biso   1.000  C
  C260     1.0000 0.73730  0.99240  0.78640  Biso   1.000  C
  H163     1.0000 0.71740  0.97430  0.76970  Biso   1.000  H
  C261     1.0000 0.76050  0.91700  0.81750  Biso   1.000  C
  C262     1.0000 0.84760  0.19350  0.65880  Biso   1.000  C
  H164     1.0000 0.85500  0.17390  0.63700  Biso   1.000  H
  C263     1.0000 0.92710  0.23550  0.67040  Biso   1.000  C
  N96      1.0000 0.80600  0.19610  0.67670  Biso   1.000  N
  C264     1.0000 0.87900  0.22530  0.67810  Biso   1.000  C
  C265     1.0000 0.00190  0.27540  0.68000  Biso   1.000  C
  H165     1.0000 0.01950  0.30160  0.68930  Biso   1.000  H
  O64      1.0000 0.73170  0.89710  0.80010  Biso   1.000  O
  C266     1.0000 0.95330  0.27350  0.68420  Biso   1.000  C
  H166     1.0000 0.93750  0.29890  0.69690  Biso   1.000  H
  N97      1.0000 0.80740  0.22980  0.70270  Biso   1.000  N
  N98      1.0000 0.85080  0.24620  0.70490  Biso   1.000  N
  O65      1.0000 0.73300  0.18220  0.61090  Biso   1.000  O
  N99      1.0000 0.69170  0.22570  0.36460  Biso   1.000  N
  C267     1.0000 0.73790  0.17800  0.52920  Biso   1.000  C
  H167     1.0000 0.75820  0.15730  0.54320  Biso   1.000  H
  H168     1.0000 0.65750  0.25750  0.40920  Biso   1.000  H
  C268     1.0000 0.73800  0.17890  0.48870  Biso   1.000  C
  H169     1.0000 0.75860  0.15840  0.47480  Biso   1.000  H
  Zn27     1.0000 0.24688  0.66518  0.16479  Biso   1.000  Zn
  Zn28     1.0000 0.32765  0.74729  0.31354  Biso   1.000  Zn
  N100     1.0000 0.29570  0.68760  0.30100  Biso   1.000  N
  N101     1.0000 0.30230  0.64420  0.31600  Biso   1.000  N
  N102     1.0000 0.26100  0.68710  0.27380  Biso   1.000  N
  C269     1.0000 0.29700  0.54250  0.33360  Biso   1.000  C
  H170     1.0000 0.31810  0.56020  0.34960  Biso   1.000  H
  C270     1.0000 0.27200  0.61570  0.29830  Biso   1.000  C
  C271     1.0000 0.29510  0.49450  0.33740  Biso   1.000  C
  H171     1.0000 0.31490  0.47860  0.35570  Biso   1.000  H
  C272     1.0000 0.24440  0.64140  0.27010  Biso   1.000  C
  H172     1.0000 0.22050  0.62980  0.25310  Biso   1.000  H
  C273     1.0000 0.26830  0.56590  0.30660  Biso   1.000  C
  O66      1.0000 0.59910  0.71170  0.13200  Biso   1.000  O
  O67      1.0000 0.28990  0.39730  0.33890  Biso   1.000  O
  C274     1.0000 0.26420  0.46990  0.31430  Biso   1.000  C
  C275     1.0000 0.57650  0.73810  0.15730  Biso   1.000  C
  C276     1.0000 0.49920  0.70010  0.14740  Biso   1.000  C
  H173     1.0000 0.51510  0.67500  0.13450  Biso   1.000  H
  C277     1.0000 0.23840  0.54090  0.28220  Biso   1.000  C
  H174     1.0000 0.21930  0.55640  0.26320  Biso   1.000  H
  O68      1.0000 0.60100  0.76270  0.17610  Biso   1.000  O
  C278     1.0000 0.45110  0.69940  0.15210  Biso   1.000  C
  H175     1.0000 0.43390  0.67310  0.14240  Biso   1.000  H
  C279     1.0000 0.52370  0.73790  0.16170  Biso   1.000  C
  C280     1.0000 0.23730  0.49240  0.28640  Biso   1.000  C
  H176     1.0000 0.21740  0.47430  0.26970  Biso   1.000  H
  C281     1.0000 0.26050  0.41700  0.31750  Biso   1.000  C
  C282     1.0000 0.34760  0.69350  0.15880  Biso   1.000  C
  H177     1.0000 0.35500  0.67390  0.13700  Biso   1.000  H
  C283     1.0000 0.42710  0.73550  0.17040  Biso   1.000  C
  N103     1.0000 0.30600  0.69610  0.17670  Biso   1.000  N
  C284     1.0000 0.37900  0.72530  0.17810  Biso   1.000  C
  C285     1.0000 0.50190  0.77540  0.18000  Biso   1.000  C
  H178     1.0000 0.51950  0.80160  0.18930  Biso   1.000  H
  O69      1.0000 0.23170  0.39710  0.30010  Biso   1.000  O
  C286     1.0000 0.45330  0.77350  0.18420  Biso   1.000  C
  H179     1.0000 0.43750  0.79890  0.19690  Biso   1.000  H
  N104     1.0000 0.30740  0.72980  0.20270  Biso   1.000  N
  N105     1.0000 0.35080  0.74620  0.20490  Biso   1.000  N
  O70      1.0000 0.23300  0.68220  0.11090  Biso   1.000  O
  N106     1.0000 0.19170  0.72570  0.86460  Biso   1.000  N
  C287     1.0000 0.23790  0.67800  0.02920  Biso   1.000  C
  H180     1.0000 0.25820  0.65730  0.04320  Biso   1.000  H
  H181     1.0000 0.15750  0.75750  0.90920  Biso   1.000  H
  C288     1.0000 0.23800  0.67890  0.98870  Biso   1.000  C
  H182     1.0000 0.25860  0.65840  0.97480  Biso   1.000  H
  Zn29     1.0000 0.25312  0.83482  0.66479  Biso   1.000  Zn
  Zn30     1.0000 0.17235  0.75271  0.81354  Biso   1.000  Zn
  N107     1.0000 0.20430  0.81240  0.80100  Biso   1.000  N
  N108     1.0000 0.19770  0.85580  0.81600  Biso   1.000  N
  N109     1.0000 0.23900  0.81290  0.77380  Biso   1.000  N
  C289     1.0000 0.20300  0.95750  0.83360  Biso   1.000  C
  H183     1.0000 0.18190  0.93980  0.84960  Biso   1.000  H
  C290     1.0000 0.22800  0.88430  0.79830  Biso   1.000  C
  C291     1.0000 0.20490  0.00550  0.83740  Biso   1.000  C
  H184     1.0000 0.18510  0.02140  0.85570  Biso   1.000  H
  C292     1.0000 0.25560  0.85860  0.77010  Biso   1.000  C
  H185     1.0000 0.27950  0.87020  0.75310  Biso   1.000  H
  C293     1.0000 0.23170  0.93410  0.80660  Biso   1.000  C
  O71      1.0000 0.90090  0.78830  0.63200  Biso   1.000  O
  O72      1.0000 0.21010  0.10270  0.83890  Biso   1.000  O
  C294     1.0000 0.23580  0.03010  0.81430  Biso   1.000  C
  C295     1.0000 0.92350  0.76190  0.65730  Biso   1.000  C
  C296     1.0000 0.00080  0.79990  0.64740  Biso   1.000  C
  H186     1.0000 0.98490  0.82500  0.63450  Biso   1.000  H
  C297     1.0000 0.26160  0.95910  0.78220  Biso   1.000  C
  H187     1.0000 0.28070  0.94360  0.76320  Biso   1.000  H
  O73      1.0000 0.89900  0.73730  0.67610  Biso   1.000  O
  C298     1.0000 0.04890  0.80060  0.65210  Biso   1.000  C
  H188     1.0000 0.06610  0.82690  0.64240  Biso   1.000  H
  C299     1.0000 0.97630  0.76210  0.66170  Biso   1.000  C
  C300     1.0000 0.26270  0.00760  0.78640  Biso   1.000  C
  H189     1.0000 0.28260  0.02570  0.76970  Biso   1.000  H
  C301     1.0000 0.23950  0.08300  0.81750  Biso   1.000  C
  C302     1.0000 0.15240  0.80650  0.65880  Biso   1.000  C
  H190     1.0000 0.14500  0.82610  0.63700  Biso   1.000  H
  C303     1.0000 0.07290  0.76450  0.67040  Biso   1.000  C
  N110     1.0000 0.19400  0.80390  0.67670  Biso   1.000  N
  C304     1.0000 0.12100  0.77470  0.67810  Biso   1.000  C
  C305     1.0000 0.99810  0.72460  0.68000  Biso   1.000  C
  H191     1.0000 0.98050  0.69840  0.68930  Biso   1.000  H
  O74      1.0000 0.26830  0.10290  0.80010  Biso   1.000  O
  C306     1.0000 0.04670  0.72650  0.68420  Biso   1.000  C
  H192     1.0000 0.06250  0.70110  0.69690  Biso   1.000  H
  N111     1.0000 0.19260  0.77020  0.70270  Biso   1.000  N
  N112     1.0000 0.14920  0.75380  0.70490  Biso   1.000  N
  O75      1.0000 0.26700  0.81780  0.61090  Biso   1.000  O
  N113     1.0000 0.30830  0.77430  0.36460  Biso   1.000  N
  C307     1.0000 0.26210  0.82200  0.52920  Biso   1.000  C
  H193     1.0000 0.24180  0.84270  0.54320  Biso   1.000  H
  H194     1.0000 0.34250  0.74250  0.40920  Biso   1.000  H
  C308     1.0000 0.26200  0.82110  0.48870  Biso   1.000  C
  H195     1.0000 0.24140  0.84160  0.47480  Biso   1.000  H
  Zn31     1.0000 0.75312  0.33482  0.16479  Biso   1.000  Zn
  Zn32     1.0000 0.67235  0.25271  0.31354  Biso   1.000  Zn
  N114     1.0000 0.70430  0.31240  0.30100  Biso   1.000  N
  N115     1.0000 0.69770  0.35580  0.31600  Biso   1.000  N
  N116     1.0000 0.73900  0.31290  0.27380  Biso   1.000  N
  C309     1.0000 0.70300  0.45750  0.33360  Biso   1.000  C
  H196     1.0000 0.68190  0.43980  0.34960  Biso   1.000  H
  C310     1.0000 0.72800  0.38430  0.29830  Biso   1.000  C
  C311     1.0000 0.70490  0.50550  0.33740  Biso   1.000  C
  H197     1.0000 0.68510  0.52140  0.35570  Biso   1.000  H
  C312     1.0000 0.75560  0.35860  0.27010  Biso   1.000  C
  H198     1.0000 0.77950  0.37020  0.25310  Biso   1.000  H
  C313     1.0000 0.73170  0.43410  0.30660  Biso   1.000  C
  O76      1.0000 0.40090  0.28830  0.13200  Biso   1.000  O
  O77      1.0000 0.71010  0.60270  0.33890  Biso   1.000  O
  C314     1.0000 0.73580  0.53010  0.31430  Biso   1.000  C
  C315     1.0000 0.42350  0.26190  0.15730  Biso   1.000  C
  C316     1.0000 0.50080  0.29990  0.14740  Biso   1.000  C
  H199     1.0000 0.48490  0.32500  0.13450  Biso   1.000  H
  C317     1.0000 0.76160  0.45910  0.28220  Biso   1.000  C
  H200     1.0000 0.78070  0.44360  0.26320  Biso   1.000  H
  O78      1.0000 0.39900  0.23730  0.17610  Biso   1.000  O
  C318     1.0000 0.54890  0.30060  0.15210  Biso   1.000  C
  H201     1.0000 0.56610  0.32690  0.14240  Biso   1.000  H
  C319     1.0000 0.47630  0.26210  0.16170  Biso   1.000  C
  C320     1.0000 0.76270  0.50760  0.28640  Biso   1.000  C
  H202     1.0000 0.78260  0.52570  0.26970  Biso   1.000  H
  C321     1.0000 0.73950  0.58300  0.31750  Biso   1.000  C
  C322     1.0000 0.65240  0.30650  0.15880  Biso   1.000  C
  H203     1.0000 0.64500  0.32610  0.13700  Biso   1.000  H
  C323     1.0000 0.57290  0.26450  0.17040  Biso   1.000  C
  N117     1.0000 0.69400  0.30390  0.17670  Biso   1.000  N
  C324     1.0000 0.62100  0.27470  0.17810  Biso   1.000  C
  C325     1.0000 0.49810  0.22460  0.18000  Biso   1.000  C
  H204     1.0000 0.48050  0.19840  0.18930  Biso   1.000  H
  O79      1.0000 0.76830  0.60290  0.30010  Biso   1.000  O
  C326     1.0000 0.54670  0.22650  0.18420  Biso   1.000  C
  H205     1.0000 0.56250  0.20110  0.19690  Biso   1.000  H
  N118     1.0000 0.69260  0.27020  0.20270  Biso   1.000  N
  N119     1.0000 0.64920  0.25380  0.20490  Biso   1.000  N
  O80      1.0000 0.76700  0.31780  0.11090  Biso   1.000  O
  N120     1.0000 0.80830  0.27430  0.86460  Biso   1.000  N
  C327     1.0000 0.76210  0.32200  0.02920  Biso   1.000  C
  H206     1.0000 0.74180  0.34270  0.04320  Biso   1.000  H
  H207     1.0000 0.84250  0.24250  0.90920  Biso   1.000  H
  C328     1.0000 0.76200  0.32110  0.98870  Biso   1.000  C
  H208     1.0000 0.74140  0.34160  0.97480  Biso   1.000  H
  Zn33     1.0000 0.75315  0.25315  0.23964  Biso   1.000  Zn
  O81      1.0000 0.79700  0.29700  0.19660  Biso   1.000  O
  C329     1.0000 0.79250  0.29250  0.09240  Biso   1.000  C
  C330     1.0000 0.79230  0.29230  0.04900  Biso   1.000  C
  C331     1.0000 0.79280  0.29280  0.92400  Biso   1.000  C
  C332     1.0000 0.79110  0.29110  0.96740  Biso   1.000  C
  O82      1.0000 0.71040  0.21040  0.27920  Biso   1.000  O
  Zn34     1.0000 0.24685  0.74685  0.23964  Biso   1.000  Zn
  O83      1.0000 0.20300  0.70300  0.19660  Biso   1.000  O
  C333     1.0000 0.20750  0.70750  0.09240  Biso   1.000  C
  C334     1.0000 0.20770  0.70770  0.04900  Biso   1.000  C
  C335     1.0000 0.20720  0.70720  0.92400  Biso   1.000  C
  C336     1.0000 0.20890  0.70890  0.96740  Biso   1.000  C
  O84      1.0000 0.28960  0.78960  0.27920  Biso   1.000  O
  Zn35     1.0000 0.74685  0.75315  0.23964  Biso   1.000  Zn
  O85      1.0000 0.70300  0.79700  0.19660  Biso   1.000  O
  C337     1.0000 0.70750  0.79250  0.09240  Biso   1.000  C
  C338     1.0000 0.70770  0.79230  0.04900  Biso   1.000  C
  C339     1.0000 0.70720  0.79280  0.92400  Biso   1.000  C
  C340     1.0000 0.70890  0.79110  0.96740  Biso   1.000  C
  O86      1.0000 0.78960  0.71040  0.27920  Biso   1.000  O
  Zn36     1.0000 0.25315  0.24685  0.23964  Biso   1.000  Zn
  O87      1.0000 0.29700  0.20300  0.19660  Biso   1.000  O
  C341     1.0000 0.29250  0.20750  0.09240  Biso   1.000  C
  C342     1.0000 0.29230  0.20770  0.04900  Biso   1.000  C
  C343     1.0000 0.29280  0.20720  0.92400  Biso   1.000  C
  C344     1.0000 0.29110  0.20890  0.96740  Biso   1.000  C
  O88      1.0000 0.21040  0.28960  0.27920  Biso   1.000  O
  Zn37     1.0000 0.75315  0.74685  0.73964  Biso   1.000  Zn
  O89      1.0000 0.79700  0.70300  0.69660  Biso   1.000  O
  C345     1.0000 0.79250  0.70750  0.59240  Biso   1.000  C
  C346     1.0000 0.79230  0.70770  0.54900  Biso   1.000  C
  C347     1.0000 0.79280  0.70720  0.42400  Biso   1.000  C
  C348     1.0000 0.79110  0.70890  0.46740  Biso   1.000  C
  O90      1.0000 0.71040  0.78960  0.77920  Biso   1.000  O
  Zn38     1.0000 0.24685  0.25315  0.73964  Biso   1.000  Zn
  O91      1.0000 0.20300  0.29700  0.69660  Biso   1.000  O
  C349     1.0000 0.20750  0.29250  0.59240  Biso   1.000  C
  C350     1.0000 0.20770  0.29230  0.54900  Biso   1.000  C
  C351     1.0000 0.20720  0.29280  0.42400  Biso   1.000  C
  C352     1.0000 0.20890  0.29110  0.46740  Biso   1.000  C
  O92      1.0000 0.28960  0.21040  0.77920  Biso   1.000  O
  Zn39     1.0000 0.74685  0.24685  0.73964  Biso   1.000  Zn
  O93      1.0000 0.70300  0.20300  0.69660  Biso   1.000  O
  C353     1.0000 0.70750  0.20750  0.59240  Biso   1.000  C
  C354     1.0000 0.70770  0.20770  0.54900  Biso   1.000  C
  C355     1.0000 0.70720  0.20720  0.42400  Biso   1.000  C
  C356     1.0000 0.70890  0.20890  0.46740  Biso   1.000  C
  O94      1.0000 0.78960  0.28960  0.77920  Biso   1.000  O
  Zn40     1.0000 0.25315  0.75315  0.73964  Biso   1.000  Zn
  O95      1.0000 0.29700  0.79700  0.69660  Biso   1.000  O
  C357     1.0000 0.29250  0.79250  0.59240  Biso   1.000  C
  C358     1.0000 0.29230  0.79230  0.54900  Biso   1.000  C
  C359     1.0000 0.29280  0.79280  0.42400  Biso   1.000  C
  C360     1.0000 0.29110  0.79110  0.46740  Biso   1.000  C
  O96      1.0000 0.21040  0.71040  0.77920  Biso   1.000  O
