data_image0
_cell_length_a       29.151
_cell_length_b       29.151
_cell_length_c       23.07
_cell_angle_alpha    90
_cell_angle_beta     90
_cell_angle_gamma    120

_symmetry_space_group_name_H-M    "P 1"
_symmetry_int_tables_number       1

loop_
  _symmetry_equiv_pos_as_xyz
  'x, y, z'

loop_
  _atom_site_label
  _atom_site_occupancy
  _atom_site_fract_x
  _atom_site_fract_y
  _atom_site_fract_z
  _atom_site_thermal_displace_type
  _atom_site_B_iso_or_equiv
  _atom_site_type_symbol
  O1       1.0000 0.43488  0.71328  0.98230  Biso   1.000  O
  O2       1.0000 0.39610  0.62534  0.97550  Biso   1.000  O
  C1       1.0000 0.43360  0.67000  0.98880  Biso   1.000  C
  C2       1.0000 0.48220  0.67180  0.01500  Biso   1.000  C
  C3       1.0000 0.52940  0.71840  0.02090  Biso   1.000  C
  H1       1.0000 0.53100  0.75100  0.01180  Biso   1.000  H
  C4       1.0000 0.57480  0.71870  0.04020  Biso   1.000  C
  H2       1.0000 0.60690  0.75150  0.04360  Biso   1.000  H
  C5       1.0000 0.57400  0.67260  0.05420  Biso   1.000  C
  C6       1.0000 0.52410  0.62590  0.05450  Biso   1.000  C
  H3       1.0000 0.52100  0.59400  0.06910  Biso   1.000  H
  C7       1.0000 0.47980  0.62570  0.03400  Biso   1.000  C
  H4       1.0000 0.44700  0.59340  0.03280  Biso   1.000  H
  C8       1.0000 0.62280  0.67110  0.06970  Biso   1.000  C
  C9       1.0000 0.62170  0.62260  0.06970  Biso   1.000  C
  H5       1.0000 0.58990  0.59090  0.06030  Biso   1.000  H
  C10      1.0000 0.71360  0.56800  0.08760  Biso   1.000  C
  H6       1.0000 0.74660  0.59990  0.09070  Biso   1.000  H
  C11      1.0000 0.71140  0.51990  0.08720  Biso   1.000  C
  H7       1.0000 0.74380  0.51970  0.08990  Biso   1.000  H
  O3       1.0000 0.10155  0.04661  0.31563  Biso   1.000  O
  O4       1.0000 0.06277  0.95867  0.30883  Biso   1.000  O
  C12      1.0000 0.10027  0.00333  0.32213  Biso   1.000  C
  C13      1.0000 0.14887  0.00513  0.34833  Biso   1.000  C
  C14      1.0000 0.19607  0.05173  0.35423  Biso   1.000  C
  H8       1.0000 0.19767  0.08433  0.34513  Biso   1.000  H
  C15      1.0000 0.24147  0.05203  0.37353  Biso   1.000  C
  H9       1.0000 0.27357  0.08483  0.37693  Biso   1.000  H
  C16      1.0000 0.24067  0.00593  0.38753  Biso   1.000  C
  C17      1.0000 0.19077  0.95923  0.38783  Biso   1.000  C
  H10      1.0000 0.18767  0.92733  0.40243  Biso   1.000  H
  C18      1.0000 0.14647  0.95903  0.36733  Biso   1.000  C
  H11      1.0000 0.11367  0.92673  0.36613  Biso   1.000  H
  C19      1.0000 0.28947  0.00443  0.40303  Biso   1.000  C
  C20      1.0000 0.28837  0.95593  0.40303  Biso   1.000  C
  H12      1.0000 0.25657  0.92423  0.39363  Biso   1.000  H
  C21      1.0000 0.38027  0.90133  0.42093  Biso   1.000  C
  H13      1.0000 0.41327  0.93323  0.42403  Biso   1.000  H
  C22      1.0000 0.37807  0.85323  0.42053  Biso   1.000  C
  H14      1.0000 0.41047  0.85303  0.42323  Biso   1.000  H
  O5       1.0000 0.76821  0.37995  0.64897  Biso   1.000  O
  O6       1.0000 0.72943  0.29201  0.64217  Biso   1.000  O
  C23      1.0000 0.76693  0.33667  0.65547  Biso   1.000  C
  C24      1.0000 0.81553  0.33847  0.68167  Biso   1.000  C
  C25      1.0000 0.86273  0.38507  0.68757  Biso   1.000  C
  H15      1.0000 0.86433  0.41767  0.67847  Biso   1.000  H
  C26      1.0000 0.90813  0.38537  0.70687  Biso   1.000  C
  H16      1.0000 0.94023  0.41817  0.71027  Biso   1.000  H
  C27      1.0000 0.90733  0.33927  0.72087  Biso   1.000  C
  C28      1.0000 0.85743  0.29257  0.72117  Biso   1.000  C
  H17      1.0000 0.85433  0.26067  0.73577  Biso   1.000  H
  C29      1.0000 0.81313  0.29237  0.70067  Biso   1.000  C
  H18      1.0000 0.78033  0.26007  0.69947  Biso   1.000  H
  C30      1.0000 0.95613  0.33777  0.73637  Biso   1.000  C
  C31      1.0000 0.95503  0.28927  0.73637  Biso   1.000  C
  H19      1.0000 0.92323  0.25757  0.72697  Biso   1.000  H
  C32      1.0000 0.04693  0.23467  0.75427  Biso   1.000  C
  H20      1.0000 0.07993  0.26657  0.75737  Biso   1.000  H
  C33      1.0000 0.04473  0.18657  0.75387  Biso   1.000  C
  H21      1.0000 0.07713  0.18637  0.75657  Biso   1.000  H
  O7       1.0000 0.28672  0.72160  0.98230  Biso   1.000  O
  O8       1.0000 0.37466  0.77076  0.97550  Biso   1.000  O
  C34      1.0000 0.33000  0.76360  0.98880  Biso   1.000  C
  C35      1.0000 0.32820  0.81040  0.01500  Biso   1.000  C
  C36      1.0000 0.28160  0.81100  0.02090  Biso   1.000  C
  H22      1.0000 0.24900  0.78000  0.01180  Biso   1.000  H
  C37      1.0000 0.28130  0.85610  0.04020  Biso   1.000  C
  H23      1.0000 0.24850  0.85540  0.04360  Biso   1.000  H
  C38      1.0000 0.32740  0.90140  0.05420  Biso   1.000  C
  C39      1.0000 0.37410  0.89820  0.05450  Biso   1.000  C
  H24      1.0000 0.40600  0.92700  0.06910  Biso   1.000  H
  C40      1.0000 0.37430  0.85410  0.03400  Biso   1.000  C
  H25      1.0000 0.40660  0.85360  0.03280  Biso   1.000  H
  C41      1.0000 0.32890  0.95170  0.06970  Biso   1.000  C
  C42      1.0000 0.37740  0.99910  0.06970  Biso   1.000  C
  H26      1.0000 0.40910  0.99900  0.06030  Biso   1.000  H
  C43      1.0000 0.43200  0.14560  0.08760  Biso   1.000  C
  H27      1.0000 0.40010  0.14670  0.09070  Biso   1.000  H
  C44      1.0000 0.48010  0.19150  0.08720  Biso   1.000  C
  H28      1.0000 0.48030  0.22410  0.08990  Biso   1.000  H
  O9       1.0000 0.95339  0.05493  0.31563  Biso   1.000  O
  O10      1.0000 0.04133  0.10409  0.30883  Biso   1.000  O
  C45      1.0000 0.99667  0.09693  0.32213  Biso   1.000  C
  C46      1.0000 0.99487  0.14373  0.34833  Biso   1.000  C
  C47      1.0000 0.94827  0.14433  0.35423  Biso   1.000  C
  H29      1.0000 0.91567  0.11333  0.34513  Biso   1.000  H
  C48      1.0000 0.94797  0.18943  0.37353  Biso   1.000  C
  H30      1.0000 0.91517  0.18873  0.37693  Biso   1.000  H
  C49      1.0000 0.99407  0.23473  0.38753  Biso   1.000  C
  C50      1.0000 0.04077  0.23153  0.38783  Biso   1.000  C
  H31      1.0000 0.07267  0.26033  0.40243  Biso   1.000  H
  C51      1.0000 0.04097  0.18743  0.36733  Biso   1.000  C
  H32      1.0000 0.07327  0.18693  0.36613  Biso   1.000  H
  C52      1.0000 0.99557  0.28503  0.40303  Biso   1.000  C
  C53      1.0000 0.04407  0.33243  0.40303  Biso   1.000  C
  H33      1.0000 0.07577  0.33233  0.39363  Biso   1.000  H
  C54      1.0000 0.09867  0.47893  0.42093  Biso   1.000  C
  H34      1.0000 0.06677  0.48003  0.42403  Biso   1.000  H
  C55      1.0000 0.14677  0.52483  0.42053  Biso   1.000  C
  H35      1.0000 0.14697  0.55743  0.42323  Biso   1.000  H
  O11      1.0000 0.62005  0.38827  0.64897  Biso   1.000  O
  O12      1.0000 0.70799  0.43743  0.64217  Biso   1.000  O
  C56      1.0000 0.66333  0.43027  0.65547  Biso   1.000  C
  C57      1.0000 0.66153  0.47707  0.68167  Biso   1.000  C
  C58      1.0000 0.61493  0.47767  0.68757  Biso   1.000  C
  H36      1.0000 0.58233  0.44667  0.67847  Biso   1.000  H
  C59      1.0000 0.61463  0.52277  0.70687  Biso   1.000  C
  H37      1.0000 0.58183  0.52207  0.71027  Biso   1.000  H
  C60      1.0000 0.66073  0.56807  0.72087  Biso   1.000  C
  C61      1.0000 0.70743  0.56487  0.72117  Biso   1.000  C
  H38      1.0000 0.73933  0.59367  0.73577  Biso   1.000  H
  C62      1.0000 0.70763  0.52077  0.70067  Biso   1.000  C
  H39      1.0000 0.73993  0.52027  0.69947  Biso   1.000  H
  C63      1.0000 0.66223  0.61837  0.73637  Biso   1.000  C
  C64      1.0000 0.71073  0.66577  0.73637  Biso   1.000  C
  H40      1.0000 0.74243  0.66567  0.72697  Biso   1.000  H
  C65      1.0000 0.76533  0.81227  0.75427  Biso   1.000  C
  H41      1.0000 0.73343  0.81337  0.75737  Biso   1.000  H
  C66      1.0000 0.81343  0.85817  0.75387  Biso   1.000  C
  H42      1.0000 0.81363  0.89077  0.75657  Biso   1.000  H
  O13      1.0000 0.27840  0.56512  0.98230  Biso   1.000  O
  O14      1.0000 0.22924  0.60390  0.97550  Biso   1.000  O
  C67      1.0000 0.23640  0.56640  0.98880  Biso   1.000  C
  C68      1.0000 0.18960  0.51780  0.01500  Biso   1.000  C
  C69      1.0000 0.18900  0.47060  0.02090  Biso   1.000  C
  H43      1.0000 0.22000  0.46900  0.01180  Biso   1.000  H
  C70      1.0000 0.14390  0.42520  0.04020  Biso   1.000  C
  H44      1.0000 0.14460  0.39310  0.04360  Biso   1.000  H
  C71      1.0000 0.09860  0.42600  0.05420  Biso   1.000  C
  C72      1.0000 0.10180  0.47590  0.05450  Biso   1.000  C
  H45      1.0000 0.07300  0.47900  0.06910  Biso   1.000  H
  C73      1.0000 0.14590  0.52020  0.03400  Biso   1.000  C
  H46      1.0000 0.14640  0.55300  0.03280  Biso   1.000  H
  C74      1.0000 0.04830  0.37720  0.06970  Biso   1.000  C
  C75      1.0000 0.00090  0.37830  0.06970  Biso   1.000  C
  H47      1.0000 0.00100  0.41010  0.06030  Biso   1.000  H
  C76      1.0000 0.85440  0.28640  0.08760  Biso   1.000  C
  H48      1.0000 0.85330  0.25340  0.09070  Biso   1.000  H
  C77      1.0000 0.80850  0.28860  0.08720  Biso   1.000  C
  H49      1.0000 0.77590  0.25620  0.08990  Biso   1.000  H
  O15      1.0000 0.94507  0.89845  0.31563  Biso   1.000  O
  O16      1.0000 0.89591  0.93723  0.30883  Biso   1.000  O
  C78      1.0000 0.90307  0.89973  0.32213  Biso   1.000  C
  C79      1.0000 0.85627  0.85113  0.34833  Biso   1.000  C
  C80      1.0000 0.85567  0.80393  0.35423  Biso   1.000  C
  H50      1.0000 0.88667  0.80233  0.34513  Biso   1.000  H
  C81      1.0000 0.81057  0.75853  0.37353  Biso   1.000  C
  H51      1.0000 0.81127  0.72643  0.37693  Biso   1.000  H
  C82      1.0000 0.76527  0.75933  0.38753  Biso   1.000  C
  C83      1.0000 0.76847  0.80923  0.38783  Biso   1.000  C
  H52      1.0000 0.73967  0.81233  0.40243  Biso   1.000  H
  C84      1.0000 0.81257  0.85353  0.36733  Biso   1.000  C
  H53      1.0000 0.81307  0.88633  0.36613  Biso   1.000  H
  C85      1.0000 0.71497  0.71053  0.40303  Biso   1.000  C
  C86      1.0000 0.66757  0.71163  0.40303  Biso   1.000  C
  H54      1.0000 0.66767  0.74343  0.39363  Biso   1.000  H
  C87      1.0000 0.52107  0.61973  0.42093  Biso   1.000  C
  H55      1.0000 0.51997  0.58673  0.42403  Biso   1.000  H
  C88      1.0000 0.47517  0.62193  0.42053  Biso   1.000  C
  H56      1.0000 0.44257  0.58953  0.42323  Biso   1.000  H
  O17      1.0000 0.61173  0.23179  0.64897  Biso   1.000  O
  O18      1.0000 0.56257  0.27057  0.64217  Biso   1.000  O
  C89      1.0000 0.56973  0.23307  0.65547  Biso   1.000  C
  C90      1.0000 0.52293  0.18447  0.68167  Biso   1.000  C
  C91      1.0000 0.52233  0.13727  0.68757  Biso   1.000  C
  H57      1.0000 0.55333  0.13567  0.67847  Biso   1.000  H
  C92      1.0000 0.47723  0.09187  0.70687  Biso   1.000  C
  H58      1.0000 0.47793  0.05977  0.71027  Biso   1.000  H
  C93      1.0000 0.43193  0.09267  0.72087  Biso   1.000  C
  C94      1.0000 0.43513  0.14257  0.72117  Biso   1.000  C
  H59      1.0000 0.40633  0.14567  0.73577  Biso   1.000  H
  C95      1.0000 0.47923  0.18687  0.70067  Biso   1.000  C
  H60      1.0000 0.47973  0.21967  0.69947  Biso   1.000  H
  C96      1.0000 0.38163  0.04387  0.73637  Biso   1.000  C
  C97      1.0000 0.33423  0.04497  0.73637  Biso   1.000  C
  H61      1.0000 0.33433  0.07677  0.72697  Biso   1.000  H
  C98      1.0000 0.18773  0.95307  0.75427  Biso   1.000  C
  H62      1.0000 0.18663  0.92007  0.75737  Biso   1.000  H
  C99      1.0000 0.14183  0.95527  0.75387  Biso   1.000  C
  H63      1.0000 0.10923  0.92287  0.75657  Biso   1.000  H
  O19      1.0000 0.71328  0.43488  0.51770  Biso   1.000  O
  O20      1.0000 0.62534  0.39610  0.52450  Biso   1.000  O
  C100     1.0000 0.67000  0.43360  0.51120  Biso   1.000  C
  C101     1.0000 0.67180  0.48220  0.48500  Biso   1.000  C
  C102     1.0000 0.71840  0.52940  0.47910  Biso   1.000  C
  H64      1.0000 0.75100  0.53100  0.48820  Biso   1.000  H
  C103     1.0000 0.71870  0.57480  0.45980  Biso   1.000  C
  H65      1.0000 0.75150  0.60690  0.45640  Biso   1.000  H
  C104     1.0000 0.67260  0.57400  0.44580  Biso   1.000  C
  C105     1.0000 0.62590  0.52410  0.44550  Biso   1.000  C
  H66      1.0000 0.59400  0.52100  0.43090  Biso   1.000  H
  C106     1.0000 0.62570  0.47980  0.46600  Biso   1.000  C
  H67      1.0000 0.59340  0.44700  0.46720  Biso   1.000  H
  C107     1.0000 0.67110  0.62280  0.43030  Biso   1.000  C
  C108     1.0000 0.62260  0.62170  0.43030  Biso   1.000  C
  H68      1.0000 0.59090  0.58990  0.43970  Biso   1.000  H
  C109     1.0000 0.56800  0.71360  0.41240  Biso   1.000  C
  H69      1.0000 0.59990  0.74660  0.40930  Biso   1.000  H
  C110     1.0000 0.51990  0.71140  0.41280  Biso   1.000  C
  H70      1.0000 0.51970  0.74380  0.41010  Biso   1.000  H
  O21      1.0000 0.37995  0.76821  0.85103  Biso   1.000  O
  O22      1.0000 0.29201  0.72943  0.85783  Biso   1.000  O
  C111     1.0000 0.33667  0.76693  0.84453  Biso   1.000  C
  C112     1.0000 0.33847  0.81553  0.81833  Biso   1.000  C
  C113     1.0000 0.38507  0.86273  0.81243  Biso   1.000  C
  H71      1.0000 0.41767  0.86433  0.82153  Biso   1.000  H
  C114     1.0000 0.38537  0.90813  0.79313  Biso   1.000  C
  H72      1.0000 0.41817  0.94023  0.78973  Biso   1.000  H
  C115     1.0000 0.33927  0.90733  0.77913  Biso   1.000  C
  C116     1.0000 0.29257  0.85743  0.77883  Biso   1.000  C
  H73      1.0000 0.26067  0.85433  0.76423  Biso   1.000  H
  C117     1.0000 0.29237  0.81313  0.79933  Biso   1.000  C
  H74      1.0000 0.26007  0.78033  0.80053  Biso   1.000  H
  C118     1.0000 0.33777  0.95613  0.76363  Biso   1.000  C
  C119     1.0000 0.28927  0.95503  0.76363  Biso   1.000  C
  H75      1.0000 0.25757  0.92323  0.77303  Biso   1.000  H
  C120     1.0000 0.23467  0.04693  0.74573  Biso   1.000  C
  H76      1.0000 0.26657  0.07993  0.74263  Biso   1.000  H
  C121     1.0000 0.18657  0.04473  0.74613  Biso   1.000  C
  H77      1.0000 0.18637  0.07713  0.74343  Biso   1.000  H
  O23      1.0000 0.04661  0.10155  0.18437  Biso   1.000  O
  O24      1.0000 0.95867  0.06277  0.19117  Biso   1.000  O
  C122     1.0000 0.00333  0.10027  0.17787  Biso   1.000  C
  C123     1.0000 0.00513  0.14887  0.15167  Biso   1.000  C
  C124     1.0000 0.05173  0.19607  0.14577  Biso   1.000  C
  H78      1.0000 0.08433  0.19767  0.15487  Biso   1.000  H
  C125     1.0000 0.05203  0.24147  0.12647  Biso   1.000  C
  H79      1.0000 0.08483  0.27357  0.12307  Biso   1.000  H
  C126     1.0000 0.00593  0.24067  0.11247  Biso   1.000  C
  C127     1.0000 0.95923  0.19077  0.11217  Biso   1.000  C
  H80      1.0000 0.92733  0.18767  0.09757  Biso   1.000  H
  C128     1.0000 0.95903  0.14647  0.13267  Biso   1.000  C
  H81      1.0000 0.92673  0.11367  0.13387  Biso   1.000  H
  C129     1.0000 0.00443  0.28947  0.09697  Biso   1.000  C
  C130     1.0000 0.95593  0.28837  0.09697  Biso   1.000  C
  H82      1.0000 0.92423  0.25657  0.10637  Biso   1.000  H
  C131     1.0000 0.90133  0.38027  0.07907  Biso   1.000  C
  H83      1.0000 0.93323  0.41327  0.07597  Biso   1.000  H
  C132     1.0000 0.85323  0.37807  0.07947  Biso   1.000  C
  H84      1.0000 0.85303  0.41047  0.07677  Biso   1.000  H
  O25      1.0000 0.72160  0.28672  0.51770  Biso   1.000  O
  O26      1.0000 0.77076  0.37466  0.52450  Biso   1.000  O
  C133     1.0000 0.76360  0.33000  0.51120  Biso   1.000  C
  C134     1.0000 0.81040  0.32820  0.48500  Biso   1.000  C
  C135     1.0000 0.81100  0.28160  0.47910  Biso   1.000  C
  H85      1.0000 0.78000  0.24900  0.48820  Biso   1.000  H
  C136     1.0000 0.85610  0.28130  0.45980  Biso   1.000  C
  H86      1.0000 0.85540  0.24850  0.45640  Biso   1.000  H
  C137     1.0000 0.90140  0.32740  0.44580  Biso   1.000  C
  C138     1.0000 0.89820  0.37410  0.44550  Biso   1.000  C
  H87      1.0000 0.92700  0.40600  0.43090  Biso   1.000  H
  C139     1.0000 0.85410  0.37430  0.46600  Biso   1.000  C
  H88      1.0000 0.85360  0.40660  0.46720  Biso   1.000  H
  C140     1.0000 0.95170  0.32890  0.43030  Biso   1.000  C
  C141     1.0000 0.99910  0.37740  0.43030  Biso   1.000  C
  H89      1.0000 0.99900  0.40910  0.43970  Biso   1.000  H
  C142     1.0000 0.14560  0.43200  0.41240  Biso   1.000  C
  H90      1.0000 0.14670  0.40010  0.40930  Biso   1.000  H
  C143     1.0000 0.19150  0.48010  0.41280  Biso   1.000  C
  H91      1.0000 0.22410  0.48030  0.41010  Biso   1.000  H
  O27      1.0000 0.38827  0.62005  0.85103  Biso   1.000  O
  O28      1.0000 0.43743  0.70799  0.85783  Biso   1.000  O
  C144     1.0000 0.43027  0.66333  0.84453  Biso   1.000  C
  C145     1.0000 0.47707  0.66153  0.81833  Biso   1.000  C
  C146     1.0000 0.47767  0.61493  0.81243  Biso   1.000  C
  H92      1.0000 0.44667  0.58233  0.82153  Biso   1.000  H
  C147     1.0000 0.52277  0.61463  0.79313  Biso   1.000  C
  H93      1.0000 0.52207  0.58183  0.78973  Biso   1.000  H
  C148     1.0000 0.56807  0.66073  0.77913  Biso   1.000  C
  C149     1.0000 0.56487  0.70743  0.77883  Biso   1.000  C
  H94      1.0000 0.59367  0.73933  0.76423  Biso   1.000  H
  C150     1.0000 0.52077  0.70763  0.79933  Biso   1.000  C
  H95      1.0000 0.52027  0.73993  0.80053  Biso   1.000  H
  C151     1.0000 0.61837  0.66223  0.76363  Biso   1.000  C
  C152     1.0000 0.66577  0.71073  0.76363  Biso   1.000  C
  H96      1.0000 0.66567  0.74243  0.77303  Biso   1.000  H
  C153     1.0000 0.81227  0.76533  0.74573  Biso   1.000  C
  H97      1.0000 0.81337  0.73343  0.74263  Biso   1.000  H
  C154     1.0000 0.85817  0.81343  0.74613  Biso   1.000  C
  H98      1.0000 0.89077  0.81363  0.74343  Biso   1.000  H
  O29      1.0000 0.05493  0.95339  0.18437  Biso   1.000  O
  O30      1.0000 0.10409  0.04133  0.19117  Biso   1.000  O
  C155     1.0000 0.09693  0.99667  0.17787  Biso   1.000  C
  C156     1.0000 0.14373  0.99487  0.15167  Biso   1.000  C
  C157     1.0000 0.14433  0.94827  0.14577  Biso   1.000  C
  H99      1.0000 0.11333  0.91567  0.15487  Biso   1.000  H
  C158     1.0000 0.18943  0.94797  0.12647  Biso   1.000  C
  H100     1.0000 0.18873  0.91517  0.12307  Biso   1.000  H
  C159     1.0000 0.23473  0.99407  0.11247  Biso   1.000  C
  C160     1.0000 0.23153  0.04077  0.11217  Biso   1.000  C
  H101     1.0000 0.26033  0.07267  0.09757  Biso   1.000  H
  C161     1.0000 0.18743  0.04097  0.13267  Biso   1.000  C
  H102     1.0000 0.18693  0.07327  0.13387  Biso   1.000  H
  C162     1.0000 0.28503  0.99557  0.09697  Biso   1.000  C
  C163     1.0000 0.33243  0.04407  0.09697  Biso   1.000  C
  H103     1.0000 0.33233  0.07577  0.10637  Biso   1.000  H
  C164     1.0000 0.47893  0.09867  0.07907  Biso   1.000  C
  H104     1.0000 0.48003  0.06677  0.07597  Biso   1.000  H
  C165     1.0000 0.52483  0.14677  0.07947  Biso   1.000  C
  H105     1.0000 0.55743  0.14697  0.07677  Biso   1.000  H
  O31      1.0000 0.56512  0.27840  0.51770  Biso   1.000  O
  O32      1.0000 0.60390  0.22924  0.52450  Biso   1.000  O
  C166     1.0000 0.56640  0.23640  0.51120  Biso   1.000  C
  C167     1.0000 0.51780  0.18960  0.48500  Biso   1.000  C
  C168     1.0000 0.47060  0.18900  0.47910  Biso   1.000  C
  H106     1.0000 0.46900  0.22000  0.48820  Biso   1.000  H
  C169     1.0000 0.42520  0.14390  0.45980  Biso   1.000  C
  H107     1.0000 0.39310  0.14460  0.45640  Biso   1.000  H
  C170     1.0000 0.42600  0.09860  0.44580  Biso   1.000  C
  C171     1.0000 0.47590  0.10180  0.44550  Biso   1.000  C
  H108     1.0000 0.47900  0.07300  0.43090  Biso   1.000  H
  C172     1.0000 0.52020  0.14590  0.46600  Biso   1.000  C
  H109     1.0000 0.55300  0.14640  0.46720  Biso   1.000  H
  C173     1.0000 0.37720  0.04830  0.43030  Biso   1.000  C
  C174     1.0000 0.37830  0.00090  0.43030  Biso   1.000  C
  H110     1.0000 0.41010  0.00100  0.43970  Biso   1.000  H
  C175     1.0000 0.28640  0.85440  0.41240  Biso   1.000  C
  H111     1.0000 0.25340  0.85330  0.40930  Biso   1.000  H
  C176     1.0000 0.28860  0.80850  0.41280  Biso   1.000  C
  H112     1.0000 0.25620  0.77590  0.41010  Biso   1.000  H
  O33      1.0000 0.23179  0.61173  0.85103  Biso   1.000  O
  O34      1.0000 0.27057  0.56257  0.85783  Biso   1.000  O
  C177     1.0000 0.23307  0.56973  0.84453  Biso   1.000  C
  C178     1.0000 0.18447  0.52293  0.81833  Biso   1.000  C
  C179     1.0000 0.13727  0.52233  0.81243  Biso   1.000  C
  H113     1.0000 0.13567  0.55333  0.82153  Biso   1.000  H
  C180     1.0000 0.09187  0.47723  0.79313  Biso   1.000  C
  H114     1.0000 0.05977  0.47793  0.78973  Biso   1.000  H
  C181     1.0000 0.09267  0.43193  0.77913  Biso   1.000  C
  C182     1.0000 0.14257  0.43513  0.77883  Biso   1.000  C
  H115     1.0000 0.14567  0.40633  0.76423  Biso   1.000  H
  C183     1.0000 0.18687  0.47923  0.79933  Biso   1.000  C
  H116     1.0000 0.21967  0.47973  0.80053  Biso   1.000  H
  C184     1.0000 0.04387  0.38163  0.76363  Biso   1.000  C
  C185     1.0000 0.04497  0.33423  0.76363  Biso   1.000  C
  H117     1.0000 0.07677  0.33433  0.77303  Biso   1.000  H
  C186     1.0000 0.95307  0.18773  0.74573  Biso   1.000  C
  H118     1.0000 0.92007  0.18663  0.74263  Biso   1.000  H
  C187     1.0000 0.95527  0.14183  0.74613  Biso   1.000  C
  H119     1.0000 0.92287  0.10923  0.74343  Biso   1.000  H
  O35      1.0000 0.89845  0.94507  0.18437  Biso   1.000  O
  O36      1.0000 0.93723  0.89591  0.19117  Biso   1.000  O
  C188     1.0000 0.89973  0.90307  0.17787  Biso   1.000  C
  C189     1.0000 0.85113  0.85627  0.15167  Biso   1.000  C
  C190     1.0000 0.80393  0.85567  0.14577  Biso   1.000  C
  H120     1.0000 0.80233  0.88667  0.15487  Biso   1.000  H
  C191     1.0000 0.75853  0.81057  0.12647  Biso   1.000  C
  H121     1.0000 0.72643  0.81127  0.12307  Biso   1.000  H
  C192     1.0000 0.75933  0.76527  0.11247  Biso   1.000  C
  C193     1.0000 0.80923  0.76847  0.11217  Biso   1.000  C
  H122     1.0000 0.81233  0.73967  0.09757  Biso   1.000  H
  C194     1.0000 0.85353  0.81257  0.13267  Biso   1.000  C
  H123     1.0000 0.88633  0.81307  0.13387  Biso   1.000  H
  C195     1.0000 0.71053  0.71497  0.09697  Biso   1.000  C
  C196     1.0000 0.71163  0.66757  0.09697  Biso   1.000  C
  H124     1.0000 0.74343  0.66767  0.10637  Biso   1.000  H
  C197     1.0000 0.61973  0.52107  0.07907  Biso   1.000  C
  H125     1.0000 0.58673  0.51997  0.07597  Biso   1.000  H
  C198     1.0000 0.62193  0.47517  0.07947  Biso   1.000  C
  H126     1.0000 0.58953  0.44257  0.07677  Biso   1.000  H
  O37      1.0000 0.56512  0.28672  0.01770  Biso   1.000  O
  O38      1.0000 0.60390  0.37466  0.02450  Biso   1.000  O
  C199     1.0000 0.56640  0.33000  0.01120  Biso   1.000  C
  C200     1.0000 0.51780  0.32820  0.98500  Biso   1.000  C
  C201     1.0000 0.47060  0.28160  0.97910  Biso   1.000  C
  H127     1.0000 0.46900  0.24900  0.98820  Biso   1.000  H
  C202     1.0000 0.42520  0.28130  0.95980  Biso   1.000  C
  H128     1.0000 0.39310  0.24850  0.95640  Biso   1.000  H
  C203     1.0000 0.42600  0.32740  0.94580  Biso   1.000  C
  C204     1.0000 0.47590  0.37410  0.94550  Biso   1.000  C
  H129     1.0000 0.47900  0.40600  0.93090  Biso   1.000  H
  C205     1.0000 0.52020  0.37430  0.96600  Biso   1.000  C
  H130     1.0000 0.55300  0.40660  0.96720  Biso   1.000  H
  C206     1.0000 0.37720  0.32890  0.93030  Biso   1.000  C
  C207     1.0000 0.37830  0.37740  0.93030  Biso   1.000  C
  H131     1.0000 0.41010  0.40910  0.93970  Biso   1.000  H
  C208     1.0000 0.28640  0.43200  0.91240  Biso   1.000  C
  H132     1.0000 0.25340  0.40010  0.90930  Biso   1.000  H
  C209     1.0000 0.28860  0.48010  0.91280  Biso   1.000  C
  H133     1.0000 0.25620  0.48030  0.91010  Biso   1.000  H
  O39      1.0000 0.23179  0.62005  0.35103  Biso   1.000  O
  O40      1.0000 0.27057  0.70799  0.35783  Biso   1.000  O
  C210     1.0000 0.23307  0.66333  0.34453  Biso   1.000  C
  C211     1.0000 0.18447  0.66153  0.31833  Biso   1.000  C
  C212     1.0000 0.13727  0.61493  0.31243  Biso   1.000  C
  H134     1.0000 0.13567  0.58233  0.32153  Biso   1.000  H
  C213     1.0000 0.09187  0.61463  0.29313  Biso   1.000  C
  H135     1.0000 0.05977  0.58183  0.28973  Biso   1.000  H
  C214     1.0000 0.09267  0.66073  0.27913  Biso   1.000  C
  C215     1.0000 0.14257  0.70743  0.27883  Biso   1.000  C
  H136     1.0000 0.14567  0.73933  0.26423  Biso   1.000  H
  C216     1.0000 0.18687  0.70763  0.29933  Biso   1.000  C
  H137     1.0000 0.21967  0.73993  0.30053  Biso   1.000  H
  C217     1.0000 0.04387  0.66223  0.26363  Biso   1.000  C
  C218     1.0000 0.04497  0.71073  0.26363  Biso   1.000  C
  H138     1.0000 0.07677  0.74243  0.27303  Biso   1.000  H
  C219     1.0000 0.95307  0.76533  0.24573  Biso   1.000  C
  H139     1.0000 0.92007  0.73343  0.24263  Biso   1.000  H
  C220     1.0000 0.95527  0.81343  0.24613  Biso   1.000  C
  H140     1.0000 0.92287  0.81363  0.24343  Biso   1.000  H
  O41      1.0000 0.89845  0.95339  0.68437  Biso   1.000  O
  O42      1.0000 0.93723  0.04133  0.69117  Biso   1.000  O
  C221     1.0000 0.89973  0.99667  0.67787  Biso   1.000  C
  C222     1.0000 0.85113  0.99487  0.65167  Biso   1.000  C
  C223     1.0000 0.80393  0.94827  0.64577  Biso   1.000  C
  H141     1.0000 0.80233  0.91567  0.65487  Biso   1.000  H
  C224     1.0000 0.75853  0.94797  0.62647  Biso   1.000  C
  H142     1.0000 0.72643  0.91517  0.62307  Biso   1.000  H
  C225     1.0000 0.75933  0.99407  0.61247  Biso   1.000  C
  C226     1.0000 0.80923  0.04077  0.61217  Biso   1.000  C
  H143     1.0000 0.81233  0.07267  0.59757  Biso   1.000  H
  C227     1.0000 0.85353  0.04097  0.63267  Biso   1.000  C
  H144     1.0000 0.88633  0.07327  0.63387  Biso   1.000  H
  C228     1.0000 0.71053  0.99557  0.59697  Biso   1.000  C
  C229     1.0000 0.71163  0.04407  0.59697  Biso   1.000  C
  H145     1.0000 0.74343  0.07577  0.60637  Biso   1.000  H
  C230     1.0000 0.61973  0.09867  0.57907  Biso   1.000  C
  H146     1.0000 0.58673  0.06677  0.57597  Biso   1.000  H
  C231     1.0000 0.62193  0.14677  0.57947  Biso   1.000  C
  H147     1.0000 0.58953  0.14697  0.57677  Biso   1.000  H
  O43      1.0000 0.71328  0.27840  0.01770  Biso   1.000  O
  O44      1.0000 0.62534  0.22924  0.02450  Biso   1.000  O
  C232     1.0000 0.67000  0.23640  0.01120  Biso   1.000  C
  C233     1.0000 0.67180  0.18960  0.98500  Biso   1.000  C
  C234     1.0000 0.71840  0.18900  0.97910  Biso   1.000  C
  H148     1.0000 0.75100  0.22000  0.98820  Biso   1.000  H
  C235     1.0000 0.71870  0.14390  0.95980  Biso   1.000  C
  H149     1.0000 0.75150  0.14460  0.95640  Biso   1.000  H
  C236     1.0000 0.67260  0.09860  0.94580  Biso   1.000  C
  C237     1.0000 0.62590  0.10180  0.94550  Biso   1.000  C
  H150     1.0000 0.59400  0.07300  0.93090  Biso   1.000  H
  C238     1.0000 0.62570  0.14590  0.96600  Biso   1.000  C
  H151     1.0000 0.59340  0.14640  0.96720  Biso   1.000  H
  C239     1.0000 0.67110  0.04830  0.93030  Biso   1.000  C
  C240     1.0000 0.62260  0.00090  0.93030  Biso   1.000  C
  H152     1.0000 0.59090  0.00100  0.93970  Biso   1.000  H
  C241     1.0000 0.56800  0.85440  0.91240  Biso   1.000  C
  H153     1.0000 0.59990  0.85330  0.90930  Biso   1.000  H
  C242     1.0000 0.51990  0.80850  0.91280  Biso   1.000  C
  H154     1.0000 0.51970  0.77590  0.91010  Biso   1.000  H
  O45      1.0000 0.37995  0.61173  0.35103  Biso   1.000  O
  O46      1.0000 0.29201  0.56257  0.35783  Biso   1.000  O
  C243     1.0000 0.33667  0.56973  0.34453  Biso   1.000  C
  C244     1.0000 0.33847  0.52293  0.31833  Biso   1.000  C
  C245     1.0000 0.38507  0.52233  0.31243  Biso   1.000  C
  H155     1.0000 0.41767  0.55333  0.32153  Biso   1.000  H
  C246     1.0000 0.38537  0.47723  0.29313  Biso   1.000  C
  H156     1.0000 0.41817  0.47793  0.28973  Biso   1.000  H
  C247     1.0000 0.33927  0.43193  0.27913  Biso   1.000  C
  C248     1.0000 0.29257  0.43513  0.27883  Biso   1.000  C
  H157     1.0000 0.26067  0.40633  0.26423  Biso   1.000  H
  C249     1.0000 0.29237  0.47923  0.29933  Biso   1.000  C
  H158     1.0000 0.26007  0.47973  0.30053  Biso   1.000  H
  C250     1.0000 0.33777  0.38163  0.26363  Biso   1.000  C
  C251     1.0000 0.28927  0.33423  0.26363  Biso   1.000  C
  H159     1.0000 0.25757  0.33433  0.27303  Biso   1.000  H
  C252     1.0000 0.23467  0.18773  0.24573  Biso   1.000  C
  H160     1.0000 0.26657  0.18663  0.24263  Biso   1.000  H
  C253     1.0000 0.18657  0.14183  0.24613  Biso   1.000  C
  H161     1.0000 0.18637  0.10923  0.24343  Biso   1.000  H
  O47      1.0000 0.04661  0.94507  0.68437  Biso   1.000  O
  O48      1.0000 0.95867  0.89591  0.69117  Biso   1.000  O
  C254     1.0000 0.00333  0.90307  0.67787  Biso   1.000  C
  C255     1.0000 0.00513  0.85627  0.65167  Biso   1.000  C
  C256     1.0000 0.05173  0.85567  0.64577  Biso   1.000  C
  H162     1.0000 0.08433  0.88667  0.65487  Biso   1.000  H
  C257     1.0000 0.05203  0.81057  0.62647  Biso   1.000  C
  H163     1.0000 0.08483  0.81127  0.62307  Biso   1.000  H
  C258     1.0000 0.00593  0.76527  0.61247  Biso   1.000  C
  C259     1.0000 0.95923  0.76847  0.61217  Biso   1.000  C
  H164     1.0000 0.92733  0.73967  0.59757  Biso   1.000  H
  C260     1.0000 0.95903  0.81257  0.63267  Biso   1.000  C
  H165     1.0000 0.92673  0.81307  0.63387  Biso   1.000  H
  C261     1.0000 0.00443  0.71497  0.59697  Biso   1.000  C
  C262     1.0000 0.95593  0.66757  0.59697  Biso   1.000  C
  H166     1.0000 0.92423  0.66767  0.60637  Biso   1.000  H
  C263     1.0000 0.90133  0.52107  0.57907  Biso   1.000  C
  H167     1.0000 0.93323  0.51997  0.57597  Biso   1.000  H
  C264     1.0000 0.85323  0.47517  0.57947  Biso   1.000  C
  H168     1.0000 0.85303  0.44257  0.57677  Biso   1.000  H
  O49      1.0000 0.72160  0.43488  0.01770  Biso   1.000  O
  O50      1.0000 0.77076  0.39610  0.02450  Biso   1.000  O
  C265     1.0000 0.76360  0.43360  0.01120  Biso   1.000  C
  C266     1.0000 0.81040  0.48220  0.98500  Biso   1.000  C
  C267     1.0000 0.81100  0.52940  0.97910  Biso   1.000  C
  H169     1.0000 0.78000  0.53100  0.98820  Biso   1.000  H
  C268     1.0000 0.85610  0.57480  0.95980  Biso   1.000  C
  H170     1.0000 0.85540  0.60690  0.95640  Biso   1.000  H
  C269     1.0000 0.90140  0.57400  0.94580  Biso   1.000  C
  C270     1.0000 0.89820  0.52410  0.94550  Biso   1.000  C
  H171     1.0000 0.92700  0.52100  0.93090  Biso   1.000  H
  C271     1.0000 0.85410  0.47980  0.96600  Biso   1.000  C
  H172     1.0000 0.85360  0.44700  0.96720  Biso   1.000  H
  C272     1.0000 0.95170  0.62280  0.93030  Biso   1.000  C
  C273     1.0000 0.99910  0.62170  0.93030  Biso   1.000  C
  H173     1.0000 0.99900  0.58990  0.93970  Biso   1.000  H
  C274     1.0000 0.14560  0.71360  0.91240  Biso   1.000  C
  H174     1.0000 0.14670  0.74660  0.90930  Biso   1.000  H
  C275     1.0000 0.19150  0.71140  0.91280  Biso   1.000  C
  H175     1.0000 0.22410  0.74380  0.91010  Biso   1.000  H
  O51      1.0000 0.38827  0.76821  0.35103  Biso   1.000  O
  O52      1.0000 0.43743  0.72943  0.35783  Biso   1.000  O
  C276     1.0000 0.43027  0.76693  0.34453  Biso   1.000  C
  C277     1.0000 0.47707  0.81553  0.31833  Biso   1.000  C
  C278     1.0000 0.47767  0.86273  0.31243  Biso   1.000  C
  H176     1.0000 0.44667  0.86433  0.32153  Biso   1.000  H
  C279     1.0000 0.52277  0.90813  0.29313  Biso   1.000  C
  H177     1.0000 0.52207  0.94023  0.28973  Biso   1.000  H
  C280     1.0000 0.56807  0.90733  0.27913  Biso   1.000  C
  C281     1.0000 0.56487  0.85743  0.27883  Biso   1.000  C
  H178     1.0000 0.59367  0.85433  0.26423  Biso   1.000  H
  C282     1.0000 0.52077  0.81313  0.29933  Biso   1.000  C
  H179     1.0000 0.52027  0.78033  0.30053  Biso   1.000  H
  C283     1.0000 0.61837  0.95613  0.26363  Biso   1.000  C
  C284     1.0000 0.66577  0.95503  0.26363  Biso   1.000  C
  H180     1.0000 0.66567  0.92323  0.27303  Biso   1.000  H
  C285     1.0000 0.81227  0.04693  0.24573  Biso   1.000  C
  H181     1.0000 0.81337  0.07993  0.24263  Biso   1.000  H
  C286     1.0000 0.85817  0.04473  0.24613  Biso   1.000  C
  H182     1.0000 0.89077  0.07713  0.24343  Biso   1.000  H
  O53      1.0000 0.05493  0.10155  0.68437  Biso   1.000  O
  O54      1.0000 0.10409  0.06277  0.69117  Biso   1.000  O
  C287     1.0000 0.09693  0.10027  0.67787  Biso   1.000  C
  C288     1.0000 0.14373  0.14887  0.65167  Biso   1.000  C
  C289     1.0000 0.14433  0.19607  0.64577  Biso   1.000  C
  H183     1.0000 0.11333  0.19767  0.65487  Biso   1.000  H
  C290     1.0000 0.18943  0.24147  0.62647  Biso   1.000  C
  H184     1.0000 0.18873  0.27357  0.62307  Biso   1.000  H
  C291     1.0000 0.23473  0.24067  0.61247  Biso   1.000  C
  C292     1.0000 0.23153  0.19077  0.61217  Biso   1.000  C
  H185     1.0000 0.26033  0.18767  0.59757  Biso   1.000  H
  C293     1.0000 0.18743  0.14647  0.63267  Biso   1.000  C
  H186     1.0000 0.18693  0.11367  0.63387  Biso   1.000  H
  C294     1.0000 0.28503  0.28947  0.59697  Biso   1.000  C
  C295     1.0000 0.33243  0.28837  0.59697  Biso   1.000  C
  H187     1.0000 0.33233  0.25657  0.60637  Biso   1.000  H
  C296     1.0000 0.47893  0.38027  0.57907  Biso   1.000  C
  H188     1.0000 0.48003  0.41327  0.57597  Biso   1.000  H
  C297     1.0000 0.52483  0.37807  0.57947  Biso   1.000  C
  H189     1.0000 0.55743  0.41047  0.57677  Biso   1.000  H
  O55      1.0000 0.28672  0.56512  0.48230  Biso   1.000  O
  O56      1.0000 0.37466  0.60390  0.47550  Biso   1.000  O
  C298     1.0000 0.33000  0.56640  0.48880  Biso   1.000  C
  C299     1.0000 0.32820  0.51780  0.51500  Biso   1.000  C
  C300     1.0000 0.28160  0.47060  0.52090  Biso   1.000  C
  H190     1.0000 0.24900  0.46900  0.51180  Biso   1.000  H
  C301     1.0000 0.28130  0.42520  0.54020  Biso   1.000  C
  H191     1.0000 0.24850  0.39310  0.54360  Biso   1.000  H
  C302     1.0000 0.32740  0.42600  0.55420  Biso   1.000  C
  C303     1.0000 0.37410  0.47590  0.55450  Biso   1.000  C
  H192     1.0000 0.40600  0.47900  0.56910  Biso   1.000  H
  C304     1.0000 0.37430  0.52020  0.53400  Biso   1.000  C
  H193     1.0000 0.40660  0.55300  0.53280  Biso   1.000  H
  C305     1.0000 0.32890  0.37720  0.56970  Biso   1.000  C
  C306     1.0000 0.37740  0.37830  0.56970  Biso   1.000  C
  H194     1.0000 0.40910  0.41010  0.56030  Biso   1.000  H
  C307     1.0000 0.43200  0.28640  0.58760  Biso   1.000  C
  H195     1.0000 0.40010  0.25340  0.59070  Biso   1.000  H
  C308     1.0000 0.48010  0.28860  0.58720  Biso   1.000  C
  H196     1.0000 0.48030  0.25620  0.58990  Biso   1.000  H
  O57      1.0000 0.95339  0.89845  0.81563  Biso   1.000  O
  O58      1.0000 0.04133  0.93723  0.80883  Biso   1.000  O
  C309     1.0000 0.99667  0.89973  0.82213  Biso   1.000  C
  C310     1.0000 0.99487  0.85113  0.84833  Biso   1.000  C
  C311     1.0000 0.94827  0.80393  0.85423  Biso   1.000  C
  H197     1.0000 0.91567  0.80233  0.84513  Biso   1.000  H
  C312     1.0000 0.94797  0.75853  0.87353  Biso   1.000  C
  H198     1.0000 0.91517  0.72643  0.87693  Biso   1.000  H
  C313     1.0000 0.99407  0.75933  0.88753  Biso   1.000  C
  C314     1.0000 0.04077  0.80923  0.88783  Biso   1.000  C
  H199     1.0000 0.07267  0.81233  0.90243  Biso   1.000  H
  C315     1.0000 0.04097  0.85353  0.86733  Biso   1.000  C
  H200     1.0000 0.07327  0.88633  0.86613  Biso   1.000  H
  C316     1.0000 0.99557  0.71053  0.90303  Biso   1.000  C
  C317     1.0000 0.04407  0.71163  0.90303  Biso   1.000  C
  H201     1.0000 0.07577  0.74343  0.89363  Biso   1.000  H
  C318     1.0000 0.09867  0.61973  0.92093  Biso   1.000  C
  H202     1.0000 0.06677  0.58673  0.92403  Biso   1.000  H
  C319     1.0000 0.14677  0.62193  0.92053  Biso   1.000  C
  H203     1.0000 0.14697  0.58953  0.92323  Biso   1.000  H
  O59      1.0000 0.62005  0.23179  0.14897  Biso   1.000  O
  O60      1.0000 0.70799  0.27057  0.14217  Biso   1.000  O
  C320     1.0000 0.66333  0.23307  0.15547  Biso   1.000  C
  C321     1.0000 0.66153  0.18447  0.18167  Biso   1.000  C
  C322     1.0000 0.61493  0.13727  0.18757  Biso   1.000  C
  H204     1.0000 0.58233  0.13567  0.17847  Biso   1.000  H
  C323     1.0000 0.61463  0.09187  0.20687  Biso   1.000  C
  H205     1.0000 0.58183  0.05977  0.21027  Biso   1.000  H
  C324     1.0000 0.66073  0.09267  0.22087  Biso   1.000  C
  C325     1.0000 0.70743  0.14257  0.22117  Biso   1.000  C
  H206     1.0000 0.73933  0.14567  0.23577  Biso   1.000  H
  C326     1.0000 0.70763  0.18687  0.20067  Biso   1.000  C
  H207     1.0000 0.73993  0.21967  0.19947  Biso   1.000  H
  C327     1.0000 0.66223  0.04387  0.23637  Biso   1.000  C
  C328     1.0000 0.71073  0.04497  0.23637  Biso   1.000  C
  H208     1.0000 0.74243  0.07677  0.22697  Biso   1.000  H
  C329     1.0000 0.76533  0.95307  0.25427  Biso   1.000  C
  H209     1.0000 0.73343  0.92007  0.25737  Biso   1.000  H
  C330     1.0000 0.81343  0.95527  0.25387  Biso   1.000  C
  H210     1.0000 0.81363  0.92287  0.25657  Biso   1.000  H
  O61      1.0000 0.27840  0.71328  0.48230  Biso   1.000  O
  O62      1.0000 0.22924  0.62534  0.47550  Biso   1.000  O
  C331     1.0000 0.23640  0.67000  0.48880  Biso   1.000  C
  C332     1.0000 0.18960  0.67180  0.51500  Biso   1.000  C
  C333     1.0000 0.18900  0.71840  0.52090  Biso   1.000  C
  H211     1.0000 0.22000  0.75100  0.51180  Biso   1.000  H
  C334     1.0000 0.14390  0.71870  0.54020  Biso   1.000  C
  H212     1.0000 0.14460  0.75150  0.54360  Biso   1.000  H
  C335     1.0000 0.09860  0.67260  0.55420  Biso   1.000  C
  C336     1.0000 0.10180  0.62590  0.55450  Biso   1.000  C
  H213     1.0000 0.07300  0.59400  0.56910  Biso   1.000  H
  C337     1.0000 0.14590  0.62570  0.53400  Biso   1.000  C
  H214     1.0000 0.14640  0.59340  0.53280  Biso   1.000  H
  C338     1.0000 0.04830  0.67110  0.56970  Biso   1.000  C
  C339     1.0000 0.00090  0.62260  0.56970  Biso   1.000  C
  H215     1.0000 0.00100  0.59090  0.56030  Biso   1.000  H
  C340     1.0000 0.85440  0.56800  0.58760  Biso   1.000  C
  H216     1.0000 0.85330  0.59990  0.59070  Biso   1.000  H
  C341     1.0000 0.80850  0.51990  0.58720  Biso   1.000  C
  H217     1.0000 0.77590  0.51970  0.58990  Biso   1.000  H
  O63      1.0000 0.94507  0.04661  0.81563  Biso   1.000  O
  O64      1.0000 0.89591  0.95867  0.80883  Biso   1.000  O
  C342     1.0000 0.90307  0.00333  0.82213  Biso   1.000  C
  C343     1.0000 0.85627  0.00513  0.84833  Biso   1.000  C
  C344     1.0000 0.85567  0.05173  0.85423  Biso   1.000  C
  H218     1.0000 0.88667  0.08433  0.84513  Biso   1.000  H
  C345     1.0000 0.81057  0.05203  0.87353  Biso   1.000  C
  H219     1.0000 0.81127  0.08483  0.87693  Biso   1.000  H
  C346     1.0000 0.76527  0.00593  0.88753  Biso   1.000  C
  C347     1.0000 0.76847  0.95923  0.88783  Biso   1.000  C
  H220     1.0000 0.73967  0.92733  0.90243  Biso   1.000  H
  C348     1.0000 0.81257  0.95903  0.86733  Biso   1.000  C
  H221     1.0000 0.81307  0.92673  0.86613  Biso   1.000  H
  C349     1.0000 0.71497  0.00443  0.90303  Biso   1.000  C
  C350     1.0000 0.66757  0.95593  0.90303  Biso   1.000  C
  H222     1.0000 0.66767  0.92423  0.89363  Biso   1.000  H
  C351     1.0000 0.52107  0.90133  0.92093  Biso   1.000  C
  H223     1.0000 0.51997  0.93323  0.92403  Biso   1.000  H
  C352     1.0000 0.47517  0.85323  0.92053  Biso   1.000  C
  H224     1.0000 0.44257  0.85303  0.92323  Biso   1.000  H
  O65      1.0000 0.61173  0.37995  0.14897  Biso   1.000  O
  O66      1.0000 0.56257  0.29201  0.14217  Biso   1.000  O
  C353     1.0000 0.56973  0.33667  0.15547  Biso   1.000  C
  C354     1.0000 0.52293  0.33847  0.18167  Biso   1.000  C
  C355     1.0000 0.52233  0.38507  0.18757  Biso   1.000  C
  H225     1.0000 0.55333  0.41767  0.17847  Biso   1.000  H
  C356     1.0000 0.47723  0.38537  0.20687  Biso   1.000  C
  H226     1.0000 0.47793  0.41817  0.21027  Biso   1.000  H
  C357     1.0000 0.43193  0.33927  0.22087  Biso   1.000  C
  C358     1.0000 0.43513  0.29257  0.22117  Biso   1.000  C
  H227     1.0000 0.40633  0.26067  0.23577  Biso   1.000  H
  C359     1.0000 0.47923  0.29237  0.20067  Biso   1.000  C
  H228     1.0000 0.47973  0.26007  0.19947  Biso   1.000  H
  C360     1.0000 0.38163  0.33777  0.23637  Biso   1.000  C
  C361     1.0000 0.33423  0.28927  0.23637  Biso   1.000  C
  H229     1.0000 0.33433  0.25757  0.22697  Biso   1.000  H
  C362     1.0000 0.18773  0.23467  0.25427  Biso   1.000  C
  H230     1.0000 0.18663  0.26657  0.25737  Biso   1.000  H
  C363     1.0000 0.14183  0.18657  0.25387  Biso   1.000  C
  H231     1.0000 0.10923  0.18637  0.25657  Biso   1.000  H
  O67      1.0000 0.43488  0.72160  0.48230  Biso   1.000  O
  O68      1.0000 0.39610  0.77076  0.47550  Biso   1.000  O
  C364     1.0000 0.43360  0.76360  0.48880  Biso   1.000  C
  C365     1.0000 0.48220  0.81040  0.51500  Biso   1.000  C
  C366     1.0000 0.52940  0.81100  0.52090  Biso   1.000  C
  H232     1.0000 0.53100  0.78000  0.51180  Biso   1.000  H
  C367     1.0000 0.57480  0.85610  0.54020  Biso   1.000  C
  H233     1.0000 0.60690  0.85540  0.54360  Biso   1.000  H
  C368     1.0000 0.57400  0.90140  0.55420  Biso   1.000  C
  C369     1.0000 0.52410  0.89820  0.55450  Biso   1.000  C
  H234     1.0000 0.52100  0.92700  0.56910  Biso   1.000  H
  C370     1.0000 0.47980  0.85410  0.53400  Biso   1.000  C
  H235     1.0000 0.44700  0.85360  0.53280  Biso   1.000  H
  C371     1.0000 0.62280  0.95170  0.56970  Biso   1.000  C
  C372     1.0000 0.62170  0.99910  0.56970  Biso   1.000  C
  H236     1.0000 0.58990  0.99900  0.56030  Biso   1.000  H
  C373     1.0000 0.71360  0.14560  0.58760  Biso   1.000  C
  H237     1.0000 0.74660  0.14670  0.59070  Biso   1.000  H
  C374     1.0000 0.71140  0.19150  0.58720  Biso   1.000  C
  H238     1.0000 0.74380  0.22410  0.58990  Biso   1.000  H
  O69      1.0000 0.10155  0.05493  0.81563  Biso   1.000  O
  O70      1.0000 0.06277  0.10409  0.80883  Biso   1.000  O
  C375     1.0000 0.10027  0.09693  0.82213  Biso   1.000  C
  C376     1.0000 0.14887  0.14373  0.84833  Biso   1.000  C
  C377     1.0000 0.19607  0.14433  0.85423  Biso   1.000  C
  H239     1.0000 0.19767  0.11333  0.84513  Biso   1.000  H
  C378     1.0000 0.24147  0.18943  0.87353  Biso   1.000  C
  H240     1.0000 0.27357  0.18873  0.87693  Biso   1.000  H
  C379     1.0000 0.24067  0.23473  0.88753  Biso   1.000  C
  C380     1.0000 0.19077  0.23153  0.88783  Biso   1.000  C
  H241     1.0000 0.18767  0.26033  0.90243  Biso   1.000  H
  C381     1.0000 0.14647  0.18743  0.86733  Biso   1.000  C
  H242     1.0000 0.11367  0.18693  0.86613  Biso   1.000  H
  C382     1.0000 0.28947  0.28503  0.90303  Biso   1.000  C
  C383     1.0000 0.28837  0.33243  0.90303  Biso   1.000  C
  H243     1.0000 0.25657  0.33233  0.89363  Biso   1.000  H
  C384     1.0000 0.38027  0.47893  0.92093  Biso   1.000  C
  H244     1.0000 0.41327  0.48003  0.92403  Biso   1.000  H
  C385     1.0000 0.37807  0.52483  0.92053  Biso   1.000  C
  H245     1.0000 0.41047  0.55743  0.92323  Biso   1.000  H
  O71      1.0000 0.76821  0.38827  0.14897  Biso   1.000  O
  O72      1.0000 0.72943  0.43743  0.14217  Biso   1.000  O
  C386     1.0000 0.76693  0.43027  0.15547  Biso   1.000  C
  C387     1.0000 0.81553  0.47707  0.18167  Biso   1.000  C
  C388     1.0000 0.86273  0.47767  0.18757  Biso   1.000  C
  H246     1.0000 0.86433  0.44667  0.17847  Biso   1.000  H
  C389     1.0000 0.90813  0.52277  0.20687  Biso   1.000  C
  H247     1.0000 0.94023  0.52207  0.21027  Biso   1.000  H
  C390     1.0000 0.90733  0.56807  0.22087  Biso   1.000  C
  C391     1.0000 0.85743  0.56487  0.22117  Biso   1.000  C
  H248     1.0000 0.85433  0.59367  0.23577  Biso   1.000  H
  C392     1.0000 0.81313  0.52077  0.20067  Biso   1.000  C
  H249     1.0000 0.78033  0.52027  0.19947  Biso   1.000  H
  C393     1.0000 0.95613  0.61837  0.23637  Biso   1.000  C
  C394     1.0000 0.95503  0.66577  0.23637  Biso   1.000  C
  H250     1.0000 0.92323  0.66567  0.22697  Biso   1.000  H
  C395     1.0000 0.04693  0.81227  0.25427  Biso   1.000  C
  H251     1.0000 0.07993  0.81337  0.25737  Biso   1.000  H
  C396     1.0000 0.04473  0.85817  0.25387  Biso   1.000  C
  H252     1.0000 0.07713  0.89077  0.25657  Biso   1.000  H
  Ni1      1.0000 0.66667  0.40193  0.08333  Biso   1.000  Ni
  N1       1.0000 0.66667  0.47328  0.08333  Biso   1.000  N
  N2       1.0000 0.66667  0.71688  0.08333  Biso   1.000  N
  C397     1.0000 0.66667  0.62068  0.08333  Biso   1.000  C
  C398     1.0000 0.66667  0.56928  0.08333  Biso   1.000  C
  Ni2      1.0000 0.59807  0.26473  0.08333  Biso   1.000  Ni
  N3       1.0000 0.52672  0.19338  0.08333  Biso   1.000  N
  N4       1.0000 0.28312  0.94978  0.08333  Biso   1.000  N
  C399     1.0000 0.37932  0.04598  0.08333  Biso   1.000  C
  C400     1.0000 0.43072  0.09738  0.08333  Biso   1.000  C
  Ni3      1.0000 0.73527  0.33333  0.08333  Biso   1.000  Ni
  N5       1.0000 0.80662  0.33333  0.08333  Biso   1.000  N
  N6       1.0000 0.05022  0.33333  0.08333  Biso   1.000  N
  C401     1.0000 0.95402  0.33333  0.08333  Biso   1.000  C
  C402     1.0000 0.90262  0.33333  0.08333  Biso   1.000  C
  Ni4      1.0000 0.40193  0.66667  0.41667  Biso   1.000  Ni
  N7       1.0000 0.47328  0.66667  0.41667  Biso   1.000  N
  N8       1.0000 0.71688  0.66667  0.41667  Biso   1.000  N
  C403     1.0000 0.62068  0.66667  0.41667  Biso   1.000  C
  C404     1.0000 0.56928  0.66667  0.41667  Biso   1.000  C
  Ni5      1.0000 0.06860  0.00000  0.75000  Biso   1.000  Ni
  N9       1.0000 0.13995  0.00000  0.75000  Biso   1.000  N
  N10      1.0000 0.38355  0.00000  0.75000  Biso   1.000  N
  C405     1.0000 0.28735  0.00000  0.75000  Biso   1.000  C
  C406     1.0000 0.23595  0.00000  0.75000  Biso   1.000  C
  Ni6      1.0000 0.26473  0.59807  0.41667  Biso   1.000  Ni
  N11      1.0000 0.19338  0.52672  0.41667  Biso   1.000  N
  N12      1.0000 0.94978  0.28312  0.41667  Biso   1.000  N
  C407     1.0000 0.04598  0.37932  0.41667  Biso   1.000  C
  C408     1.0000 0.09738  0.43072  0.41667  Biso   1.000  C
  Ni7      1.0000 0.93140  0.93140  0.75000  Biso   1.000  Ni
  N13      1.0000 0.86005  0.86005  0.75000  Biso   1.000  N
  N14      1.0000 0.61645  0.61645  0.75000  Biso   1.000  N
  C409     1.0000 0.71265  0.71265  0.75000  Biso   1.000  C
  C410     1.0000 0.76405  0.76405  0.75000  Biso   1.000  C
  Ni8      1.0000 0.33333  0.73527  0.41667  Biso   1.000  Ni
  N15      1.0000 0.33333  0.80662  0.41667  Biso   1.000  N
  N16      1.0000 0.33333  0.05022  0.41667  Biso   1.000  N
  C411     1.0000 0.33333  0.95402  0.41667  Biso   1.000  C
  C412     1.0000 0.33333  0.90262  0.41667  Biso   1.000  C
  Ni9      1.0000 0.00000  0.06860  0.75000  Biso   1.000  Ni
  N17      1.0000 0.00000  0.13995  0.75000  Biso   1.000  N
  N18      1.0000 0.00000  0.38355  0.75000  Biso   1.000  N
  C413     1.0000 0.00000  0.28735  0.75000  Biso   1.000  C
  C414     1.0000 0.00000  0.23595  0.75000  Biso   1.000  C
  Ni10     1.0000 0.33333  0.59807  0.91667  Biso   1.000  Ni
  N19      1.0000 0.33333  0.52672  0.91667  Biso   1.000  N
  N20      1.0000 0.33333  0.28312  0.91667  Biso   1.000  N
  C415     1.0000 0.33333  0.37932  0.91667  Biso   1.000  C
  C416     1.0000 0.33333  0.43072  0.91667  Biso   1.000  C
  Ni11     1.0000 0.00000  0.93140  0.25000  Biso   1.000  Ni
  N21      1.0000 0.00000  0.86005  0.25000  Biso   1.000  N
  N22      1.0000 0.00000  0.61645  0.25000  Biso   1.000  N
  C417     1.0000 0.00000  0.71265  0.25000  Biso   1.000  C
  C418     1.0000 0.00000  0.76405  0.25000  Biso   1.000  C
  Ni12     1.0000 0.40193  0.73527  0.91667  Biso   1.000  Ni
  N23      1.0000 0.47328  0.80662  0.91667  Biso   1.000  N
  N24      1.0000 0.71688  0.05022  0.91667  Biso   1.000  N
  C419     1.0000 0.62068  0.95402  0.91667  Biso   1.000  C
  C420     1.0000 0.56928  0.90262  0.91667  Biso   1.000  C
  Ni13     1.0000 0.06860  0.06860  0.25000  Biso   1.000  Ni
  N25      1.0000 0.13995  0.13995  0.25000  Biso   1.000  N
  N26      1.0000 0.38355  0.38355  0.25000  Biso   1.000  N
  C421     1.0000 0.28735  0.28735  0.25000  Biso   1.000  C
  C422     1.0000 0.23595  0.23595  0.25000  Biso   1.000  C
  Ni14     1.0000 0.26473  0.66667  0.91667  Biso   1.000  Ni
  N27      1.0000 0.19338  0.66667  0.91667  Biso   1.000  N
  N28      1.0000 0.94978  0.66667  0.91667  Biso   1.000  N
  C423     1.0000 0.04598  0.66667  0.91667  Biso   1.000  C
  C424     1.0000 0.09738  0.66667  0.91667  Biso   1.000  C
  Ni15     1.0000 0.93140  0.00000  0.25000  Biso   1.000  Ni
  N29      1.0000 0.86005  0.00000  0.25000  Biso   1.000  N
  N30      1.0000 0.61645  0.00000  0.25000  Biso   1.000  N
  C425     1.0000 0.71265  0.00000  0.25000  Biso   1.000  C
  C426     1.0000 0.76405  0.00000  0.25000  Biso   1.000  C
  Ni16     1.0000 0.59807  0.33333  0.58333  Biso   1.000  Ni
  N31      1.0000 0.52672  0.33333  0.58333  Biso   1.000  N
  N32      1.0000 0.28312  0.33333  0.58333  Biso   1.000  N
  C427     1.0000 0.37932  0.33333  0.58333  Biso   1.000  C
  C428     1.0000 0.43072  0.33333  0.58333  Biso   1.000  C
  Ni17     1.0000 0.73527  0.40193  0.58333  Biso   1.000  Ni
  N33      1.0000 0.80662  0.47328  0.58333  Biso   1.000  N
  N34      1.0000 0.05022  0.71688  0.58333  Biso   1.000  N
  C429     1.0000 0.95402  0.62068  0.58333  Biso   1.000  C
  C430     1.0000 0.90262  0.56928  0.58333  Biso   1.000  C
  Ni18     1.0000 0.66667  0.26473  0.58333  Biso   1.000  Ni
  N35      1.0000 0.66667  0.19338  0.58333  Biso   1.000  N
  N36      1.0000 0.66667  0.94978  0.58333  Biso   1.000  N
  C431     1.0000 0.66667  0.04598  0.58333  Biso   1.000  C
  C432     1.0000 0.66667  0.09738  0.58333  Biso   1.000  C
  O73      1.0000 0.66667  0.33333  0.08333  Biso   1.000  O
  O74      1.0000 0.00000  0.00000  0.75000  Biso   1.000  O
  O75      1.0000 0.33333  0.66667  0.41667  Biso   1.000  O
  O76      1.0000 0.33333  0.66667  0.91667  Biso   1.000  O
  O77      1.0000 0.00000  0.00000  0.25000  Biso   1.000  O
  O78      1.0000 0.66667  0.33333  0.58333  Biso   1.000  O
  H253     1.0000 0.66667  0.33333  0.12670  Biso   1.000  H
  H254     1.0000 0.33333  0.66667  0.46003  Biso   1.000  H
  H255     1.0000 0.00000  0.00000  0.79337  Biso   1.000  H
  H256     1.0000 0.33333  0.66667  0.37330  Biso   1.000  H
  H257     1.0000 0.00000  0.00000  0.70663  Biso   1.000  H
  H258     1.0000 0.66667  0.33333  0.03997  Biso   1.000  H
  H259     1.0000 0.33333  0.66667  0.87330  Biso   1.000  H
  H260     1.0000 0.00000  0.00000  0.20663  Biso   1.000  H
  H261     1.0000 0.66667  0.33333  0.53997  Biso   1.000  H
  H262     1.0000 0.66667  0.33333  0.62670  Biso   1.000  H
  H263     1.0000 0.33333  0.66667  0.96003  Biso   1.000  H
  H264     1.0000 0.00000  0.00000  0.29337  Biso   1.000  H
