data_image0
_cell_length_a       29.05
_cell_length_b       29.05
_cell_length_c       24.502
_cell_angle_alpha    90
_cell_angle_beta     90
_cell_angle_gamma    120

_symmetry_space_group_name_H-M    "P 1"
_symmetry_int_tables_number       1

loop_
  _symmetry_equiv_pos_as_xyz
  'x, y, z'

loop_
  _atom_site_label
  _atom_site_occupancy
  _atom_site_fract_x
  _atom_site_fract_y
  _atom_site_fract_z
  _atom_site_thermal_displace_type
  _atom_site_B_iso_or_equiv
  _atom_site_type_symbol
  O1       1.0000 0.43550  0.71369  0.97916  Biso   1.000  O
  O2       1.0000 0.39687  0.62551  0.97236  Biso   1.000  O
  C1       1.0000 0.43422  0.67051  0.98566  Biso   1.000  C
  C2       1.0000 0.48256  0.67253  0.01180  Biso   1.000  C
  C3       1.0000 0.52890  0.71930  0.02110  Biso   1.000  C
  H1       1.0000 0.53020  0.75130  0.01400  Biso   1.000  H
  C4       1.0000 0.57410  0.71990  0.04090  Biso   1.000  C
  H2       1.0000 0.60490  0.75230  0.04640  Biso   1.000  H
  C5       1.0000 0.57430  0.67400  0.05230  Biso   1.000  C
  C6       1.0000 0.52510  0.62680  0.04930  Biso   1.000  C
  H3       1.0000 0.52240  0.59510  0.06110  Biso   1.000  H
  C7       1.0000 0.48070  0.62660  0.02920  Biso   1.000  C
  H4       1.0000 0.44870  0.59470  0.02720  Biso   1.000  H
  C8       1.0000 0.62270  0.67240  0.06900  Biso   1.000  C
  C9       1.0000 0.62190  0.62430  0.06830  Biso   1.000  C
  H5       1.0000 0.59130  0.59350  0.05770  Biso   1.000  H
  C10      1.0000 0.71350  0.56910  0.08540  Biso   1.000  C
  H6       1.0000 0.74600  0.60060  0.08640  Biso   1.000  H
  C11      1.0000 0.71170  0.52080  0.08590  Biso   1.000  C
  H7       1.0000 0.74360  0.52080  0.08810  Biso   1.000  H
  O3       1.0000 0.10217  0.04702  0.31249  Biso   1.000  O
  O4       1.0000 0.06354  0.95884  0.30569  Biso   1.000  O
  C12      1.0000 0.10089  0.00384  0.31899  Biso   1.000  C
  C13      1.0000 0.14923  0.00586  0.34513  Biso   1.000  C
  C14      1.0000 0.19557  0.05263  0.35443  Biso   1.000  C
  H8       1.0000 0.19687  0.08463  0.34733  Biso   1.000  H
  C15      1.0000 0.24077  0.05323  0.37423  Biso   1.000  C
  H9       1.0000 0.27157  0.08563  0.37973  Biso   1.000  H
  C16      1.0000 0.24097  0.00733  0.38563  Biso   1.000  C
  C17      1.0000 0.19177  0.96013  0.38263  Biso   1.000  C
  H10      1.0000 0.18907  0.92843  0.39443  Biso   1.000  H
  C18      1.0000 0.14737  0.95993  0.36253  Biso   1.000  C
  H11      1.0000 0.11537  0.92803  0.36053  Biso   1.000  H
  C19      1.0000 0.28937  0.00573  0.40233  Biso   1.000  C
  C20      1.0000 0.28857  0.95763  0.40163  Biso   1.000  C
  H12      1.0000 0.25797  0.92683  0.39103  Biso   1.000  H
  C21      1.0000 0.38017  0.90243  0.41873  Biso   1.000  C
  H13      1.0000 0.41267  0.93393  0.41973  Biso   1.000  H
  C22      1.0000 0.37837  0.85413  0.41923  Biso   1.000  C
  H14      1.0000 0.41027  0.85413  0.42143  Biso   1.000  H
  O5       1.0000 0.76883  0.38036  0.64583  Biso   1.000  O
  O6       1.0000 0.73020  0.29218  0.63903  Biso   1.000  O
  C23      1.0000 0.76755  0.33718  0.65233  Biso   1.000  C
  C24      1.0000 0.81589  0.33920  0.67847  Biso   1.000  C
  C25      1.0000 0.86223  0.38597  0.68777  Biso   1.000  C
  H15      1.0000 0.86353  0.41797  0.68067  Biso   1.000  H
  C26      1.0000 0.90743  0.38657  0.70757  Biso   1.000  C
  H16      1.0000 0.93823  0.41897  0.71307  Biso   1.000  H
  C27      1.0000 0.90763  0.34067  0.71897  Biso   1.000  C
  C28      1.0000 0.85843  0.29347  0.71597  Biso   1.000  C
  H17      1.0000 0.85573  0.26177  0.72777  Biso   1.000  H
  C29      1.0000 0.81403  0.29327  0.69587  Biso   1.000  C
  H18      1.0000 0.78203  0.26137  0.69387  Biso   1.000  H
  C30      1.0000 0.95603  0.33907  0.73567  Biso   1.000  C
  C31      1.0000 0.95523  0.29097  0.73497  Biso   1.000  C
  H19      1.0000 0.92463  0.26017  0.72437  Biso   1.000  H
  C32      1.0000 0.04683  0.23577  0.75207  Biso   1.000  C
  H20      1.0000 0.07933  0.26727  0.75307  Biso   1.000  H
  C33      1.0000 0.04503  0.18747  0.75257  Biso   1.000  C
  H21      1.0000 0.07693  0.18747  0.75477  Biso   1.000  H
  O7       1.0000 0.28631  0.72181  0.97916  Biso   1.000  O
  O8       1.0000 0.37449  0.77136  0.97236  Biso   1.000  O
  C34      1.0000 0.32949  0.76371  0.98566  Biso   1.000  C
  C35      1.0000 0.32747  0.81003  0.01180  Biso   1.000  C
  C36      1.0000 0.28070  0.80960  0.02110  Biso   1.000  C
  H22      1.0000 0.24870  0.77890  0.01400  Biso   1.000  H
  C37      1.0000 0.28010  0.85420  0.04090  Biso   1.000  C
  H23      1.0000 0.24770  0.85260  0.04640  Biso   1.000  H
  C38      1.0000 0.32600  0.90030  0.05230  Biso   1.000  C
  C39      1.0000 0.37320  0.89830  0.04930  Biso   1.000  C
  H24      1.0000 0.40490  0.92730  0.06110  Biso   1.000  H
  C40      1.0000 0.37340  0.85410  0.02920  Biso   1.000  C
  H25      1.0000 0.40530  0.85400  0.02720  Biso   1.000  H
  C41      1.0000 0.32760  0.95030  0.06900  Biso   1.000  C
  C42      1.0000 0.37570  0.99760  0.06830  Biso   1.000  C
  H26      1.0000 0.40650  0.99780  0.05770  Biso   1.000  H
  C43      1.0000 0.43090  0.14440  0.08540  Biso   1.000  C
  H27      1.0000 0.39940  0.14540  0.08640  Biso   1.000  H
  C44      1.0000 0.47920  0.19090  0.08590  Biso   1.000  C
  H28      1.0000 0.47920  0.22280  0.08810  Biso   1.000  H
  O9       1.0000 0.95298  0.05514  0.31249  Biso   1.000  O
  O10      1.0000 0.04116  0.10469  0.30569  Biso   1.000  O
  C45      1.0000 0.99616  0.09704  0.31899  Biso   1.000  C
  C46      1.0000 0.99414  0.14336  0.34513  Biso   1.000  C
  C47      1.0000 0.94737  0.14293  0.35443  Biso   1.000  C
  H29      1.0000 0.91537  0.11223  0.34733  Biso   1.000  H
  C48      1.0000 0.94677  0.18753  0.37423  Biso   1.000  C
  H30      1.0000 0.91437  0.18593  0.37973  Biso   1.000  H
  C49      1.0000 0.99267  0.23363  0.38563  Biso   1.000  C
  C50      1.0000 0.03987  0.23163  0.38263  Biso   1.000  C
  H31      1.0000 0.07157  0.26063  0.39443  Biso   1.000  H
  C51      1.0000 0.04007  0.18743  0.36253  Biso   1.000  C
  H32      1.0000 0.07197  0.18733  0.36053  Biso   1.000  H
  C52      1.0000 0.99427  0.28363  0.40233  Biso   1.000  C
  C53      1.0000 0.04237  0.33093  0.40163  Biso   1.000  C
  H33      1.0000 0.07317  0.33113  0.39103  Biso   1.000  H
  C54      1.0000 0.09757  0.47773  0.41873  Biso   1.000  C
  H34      1.0000 0.06607  0.47873  0.41973  Biso   1.000  H
  C55      1.0000 0.14587  0.52423  0.41923  Biso   1.000  C
  H35      1.0000 0.14587  0.55613  0.42143  Biso   1.000  H
  O11      1.0000 0.61964  0.38848  0.64583  Biso   1.000  O
  O12      1.0000 0.70782  0.43803  0.63903  Biso   1.000  O
  C56      1.0000 0.66282  0.43038  0.65233  Biso   1.000  C
  C57      1.0000 0.66080  0.47670  0.67847  Biso   1.000  C
  C58      1.0000 0.61403  0.47627  0.68777  Biso   1.000  C
  H36      1.0000 0.58203  0.44557  0.68067  Biso   1.000  H
  C59      1.0000 0.61343  0.52087  0.70757  Biso   1.000  C
  H37      1.0000 0.58103  0.51927  0.71307  Biso   1.000  H
  C60      1.0000 0.65933  0.56697  0.71897  Biso   1.000  C
  C61      1.0000 0.70653  0.56497  0.71597  Biso   1.000  C
  H38      1.0000 0.73823  0.59397  0.72777  Biso   1.000  H
  C62      1.0000 0.70673  0.52077  0.69587  Biso   1.000  C
  H39      1.0000 0.73863  0.52067  0.69387  Biso   1.000  H
  C63      1.0000 0.66093  0.61697  0.73567  Biso   1.000  C
  C64      1.0000 0.70903  0.66427  0.73497  Biso   1.000  C
  H40      1.0000 0.73983  0.66447  0.72437  Biso   1.000  H
  C65      1.0000 0.76423  0.81107  0.75207  Biso   1.000  C
  H41      1.0000 0.73273  0.81207  0.75307  Biso   1.000  H
  C66      1.0000 0.81253  0.85757  0.75257  Biso   1.000  C
  H42      1.0000 0.81253  0.88947  0.75477  Biso   1.000  H
  O13      1.0000 0.27819  0.56450  0.97916  Biso   1.000  O
  O14      1.0000 0.22864  0.60313  0.97236  Biso   1.000  O
  C67      1.0000 0.23629  0.56578  0.98566  Biso   1.000  C
  C68      1.0000 0.18997  0.51744  0.01180  Biso   1.000  C
  C69      1.0000 0.19040  0.47110  0.02110  Biso   1.000  C
  H43      1.0000 0.22110  0.46980  0.01400  Biso   1.000  H
  C70      1.0000 0.14580  0.42590  0.04090  Biso   1.000  C
  H44      1.0000 0.14740  0.39510  0.04640  Biso   1.000  H
  C71      1.0000 0.09970  0.42570  0.05230  Biso   1.000  C
  C72      1.0000 0.10170  0.47490  0.04930  Biso   1.000  C
  H45      1.0000 0.07270  0.47760  0.06110  Biso   1.000  H
  C73      1.0000 0.14590  0.51930  0.02920  Biso   1.000  C
  H46      1.0000 0.14600  0.55130  0.02720  Biso   1.000  H
  C74      1.0000 0.04970  0.37730  0.06900  Biso   1.000  C
  C75      1.0000 0.00240  0.37810  0.06830  Biso   1.000  C
  H47      1.0000 0.00220  0.40870  0.05770  Biso   1.000  H
  C76      1.0000 0.85560  0.28650  0.08540  Biso   1.000  C
  H48      1.0000 0.85460  0.25400  0.08640  Biso   1.000  H
  C77      1.0000 0.80910  0.28830  0.08590  Biso   1.000  C
  H49      1.0000 0.77720  0.25640  0.08810  Biso   1.000  H
  O15      1.0000 0.94486  0.89783  0.31249  Biso   1.000  O
  O16      1.0000 0.89531  0.93646  0.30569  Biso   1.000  O
  C78      1.0000 0.90296  0.89911  0.31899  Biso   1.000  C
  C79      1.0000 0.85664  0.85077  0.34513  Biso   1.000  C
  C80      1.0000 0.85707  0.80443  0.35443  Biso   1.000  C
  H50      1.0000 0.88777  0.80313  0.34733  Biso   1.000  H
  C81      1.0000 0.81247  0.75923  0.37423  Biso   1.000  C
  H51      1.0000 0.81407  0.72843  0.37973  Biso   1.000  H
  C82      1.0000 0.76637  0.75903  0.38563  Biso   1.000  C
  C83      1.0000 0.76837  0.80823  0.38263  Biso   1.000  C
  H52      1.0000 0.73937  0.81093  0.39443  Biso   1.000  H
  C84      1.0000 0.81257  0.85263  0.36253  Biso   1.000  C
  H53      1.0000 0.81267  0.88463  0.36053  Biso   1.000  H
  C85      1.0000 0.71637  0.71063  0.40233  Biso   1.000  C
  C86      1.0000 0.66907  0.71143  0.40163  Biso   1.000  C
  H54      1.0000 0.66887  0.74203  0.39103  Biso   1.000  H
  C87      1.0000 0.52227  0.61983  0.41873  Biso   1.000  C
  H55      1.0000 0.52127  0.58733  0.41973  Biso   1.000  H
  C88      1.0000 0.47577  0.62163  0.41923  Biso   1.000  C
  H56      1.0000 0.44387  0.58973  0.42143  Biso   1.000  H
  O17      1.0000 0.61152  0.23117  0.64583  Biso   1.000  O
  O18      1.0000 0.56197  0.26980  0.63903  Biso   1.000  O
  C89      1.0000 0.56962  0.23245  0.65233  Biso   1.000  C
  C90      1.0000 0.52330  0.18411  0.67847  Biso   1.000  C
  C91      1.0000 0.52373  0.13777  0.68777  Biso   1.000  C
  H57      1.0000 0.55443  0.13647  0.68067  Biso   1.000  H
  C92      1.0000 0.47913  0.09257  0.70757  Biso   1.000  C
  H58      1.0000 0.48073  0.06177  0.71307  Biso   1.000  H
  C93      1.0000 0.43303  0.09237  0.71897  Biso   1.000  C
  C94      1.0000 0.43503  0.14157  0.71597  Biso   1.000  C
  H59      1.0000 0.40603  0.14427  0.72777  Biso   1.000  H
  C95      1.0000 0.47923  0.18597  0.69587  Biso   1.000  C
  H60      1.0000 0.47933  0.21797  0.69387  Biso   1.000  H
  C96      1.0000 0.38303  0.04397  0.73567  Biso   1.000  C
  C97      1.0000 0.33573  0.04477  0.73497  Biso   1.000  C
  H61      1.0000 0.33553  0.07537  0.72437  Biso   1.000  H
  C98      1.0000 0.18893  0.95317  0.75207  Biso   1.000  C
  H62      1.0000 0.18793  0.92067  0.75307  Biso   1.000  H
  C99      1.0000 0.14243  0.95497  0.75257  Biso   1.000  C
  H63      1.0000 0.11053  0.92307  0.75477  Biso   1.000  H
  O19      1.0000 0.71369  0.43550  0.52084  Biso   1.000  O
  O20      1.0000 0.62551  0.39687  0.52764  Biso   1.000  O
  C100     1.0000 0.67051  0.43422  0.51434  Biso   1.000  C
  C101     1.0000 0.67253  0.48256  0.48820  Biso   1.000  C
  C102     1.0000 0.71930  0.52890  0.47890  Biso   1.000  C
  H64      1.0000 0.75130  0.53020  0.48600  Biso   1.000  H
  C103     1.0000 0.71990  0.57410  0.45910  Biso   1.000  C
  H65      1.0000 0.75230  0.60490  0.45360  Biso   1.000  H
  C104     1.0000 0.67400  0.57430  0.44770  Biso   1.000  C
  C105     1.0000 0.62680  0.52510  0.45070  Biso   1.000  C
  H66      1.0000 0.59510  0.52240  0.43890  Biso   1.000  H
  C106     1.0000 0.62660  0.48070  0.47080  Biso   1.000  C
  H67      1.0000 0.59470  0.44870  0.47280  Biso   1.000  H
  C107     1.0000 0.67240  0.62270  0.43100  Biso   1.000  C
  C108     1.0000 0.62430  0.62190  0.43170  Biso   1.000  C
  H68      1.0000 0.59350  0.59130  0.44230  Biso   1.000  H
  C109     1.0000 0.56910  0.71350  0.41460  Biso   1.000  C
  H69      1.0000 0.60060  0.74600  0.41360  Biso   1.000  H
  C110     1.0000 0.52080  0.71170  0.41410  Biso   1.000  C
  H70      1.0000 0.52080  0.74360  0.41190  Biso   1.000  H
  O21      1.0000 0.38036  0.76883  0.85417  Biso   1.000  O
  O22      1.0000 0.29218  0.73020  0.86097  Biso   1.000  O
  C111     1.0000 0.33718  0.76755  0.84767  Biso   1.000  C
  C112     1.0000 0.33920  0.81589  0.82153  Biso   1.000  C
  C113     1.0000 0.38597  0.86223  0.81223  Biso   1.000  C
  H71      1.0000 0.41797  0.86353  0.81933  Biso   1.000  H
  C114     1.0000 0.38657  0.90743  0.79243  Biso   1.000  C
  H72      1.0000 0.41897  0.93823  0.78693  Biso   1.000  H
  C115     1.0000 0.34067  0.90763  0.78103  Biso   1.000  C
  C116     1.0000 0.29347  0.85843  0.78403  Biso   1.000  C
  H73      1.0000 0.26177  0.85573  0.77223  Biso   1.000  H
  C117     1.0000 0.29327  0.81403  0.80413  Biso   1.000  C
  H74      1.0000 0.26137  0.78203  0.80613  Biso   1.000  H
  C118     1.0000 0.33907  0.95603  0.76433  Biso   1.000  C
  C119     1.0000 0.29097  0.95523  0.76503  Biso   1.000  C
  H75      1.0000 0.26017  0.92463  0.77563  Biso   1.000  H
  C120     1.0000 0.23577  0.04683  0.74793  Biso   1.000  C
  H76      1.0000 0.26727  0.07933  0.74693  Biso   1.000  H
  C121     1.0000 0.18747  0.04503  0.74743  Biso   1.000  C
  H77      1.0000 0.18747  0.07693  0.74523  Biso   1.000  H
  O23      1.0000 0.04702  0.10217  0.18751  Biso   1.000  O
  O24      1.0000 0.95884  0.06354  0.19431  Biso   1.000  O
  C122     1.0000 0.00384  0.10089  0.18101  Biso   1.000  C
  C123     1.0000 0.00586  0.14923  0.15487  Biso   1.000  C
  C124     1.0000 0.05263  0.19557  0.14557  Biso   1.000  C
  H78      1.0000 0.08463  0.19687  0.15267  Biso   1.000  H
  C125     1.0000 0.05323  0.24077  0.12577  Biso   1.000  C
  H79      1.0000 0.08563  0.27157  0.12027  Biso   1.000  H
  C126     1.0000 0.00733  0.24097  0.11437  Biso   1.000  C
  C127     1.0000 0.96013  0.19177  0.11737  Biso   1.000  C
  H80      1.0000 0.92843  0.18907  0.10557  Biso   1.000  H
  C128     1.0000 0.95993  0.14737  0.13747  Biso   1.000  C
  H81      1.0000 0.92803  0.11537  0.13947  Biso   1.000  H
  C129     1.0000 0.00573  0.28937  0.09767  Biso   1.000  C
  C130     1.0000 0.95763  0.28857  0.09837  Biso   1.000  C
  H82      1.0000 0.92683  0.25797  0.10897  Biso   1.000  H
  C131     1.0000 0.90243  0.38017  0.08127  Biso   1.000  C
  H83      1.0000 0.93393  0.41267  0.08027  Biso   1.000  H
  C132     1.0000 0.85413  0.37837  0.08077  Biso   1.000  C
  H84      1.0000 0.85413  0.41027  0.07857  Biso   1.000  H
  O25      1.0000 0.72181  0.28631  0.52084  Biso   1.000  O
  O26      1.0000 0.77136  0.37449  0.52764  Biso   1.000  O
  C133     1.0000 0.76371  0.32949  0.51434  Biso   1.000  C
  C134     1.0000 0.81003  0.32747  0.48820  Biso   1.000  C
  C135     1.0000 0.80960  0.28070  0.47890  Biso   1.000  C
  H85      1.0000 0.77890  0.24870  0.48600  Biso   1.000  H
  C136     1.0000 0.85420  0.28010  0.45910  Biso   1.000  C
  H86      1.0000 0.85260  0.24770  0.45360  Biso   1.000  H
  C137     1.0000 0.90030  0.32600  0.44770  Biso   1.000  C
  C138     1.0000 0.89830  0.37320  0.45070  Biso   1.000  C
  H87      1.0000 0.92730  0.40490  0.43890  Biso   1.000  H
  C139     1.0000 0.85410  0.37340  0.47080  Biso   1.000  C
  H88      1.0000 0.85400  0.40530  0.47280  Biso   1.000  H
  C140     1.0000 0.95030  0.32760  0.43100  Biso   1.000  C
  C141     1.0000 0.99760  0.37570  0.43170  Biso   1.000  C
  H89      1.0000 0.99780  0.40650  0.44230  Biso   1.000  H
  C142     1.0000 0.14440  0.43090  0.41460  Biso   1.000  C
  H90      1.0000 0.14540  0.39940  0.41360  Biso   1.000  H
  C143     1.0000 0.19090  0.47920  0.41410  Biso   1.000  C
  H91      1.0000 0.22280  0.47920  0.41190  Biso   1.000  H
  O27      1.0000 0.38848  0.61964  0.85417  Biso   1.000  O
  O28      1.0000 0.43803  0.70782  0.86097  Biso   1.000  O
  C144     1.0000 0.43038  0.66282  0.84767  Biso   1.000  C
  C145     1.0000 0.47670  0.66080  0.82153  Biso   1.000  C
  C146     1.0000 0.47627  0.61403  0.81223  Biso   1.000  C
  H92      1.0000 0.44557  0.58203  0.81933  Biso   1.000  H
  C147     1.0000 0.52087  0.61343  0.79243  Biso   1.000  C
  H93      1.0000 0.51927  0.58103  0.78693  Biso   1.000  H
  C148     1.0000 0.56697  0.65933  0.78103  Biso   1.000  C
  C149     1.0000 0.56497  0.70653  0.78403  Biso   1.000  C
  H94      1.0000 0.59397  0.73823  0.77223  Biso   1.000  H
  C150     1.0000 0.52077  0.70673  0.80413  Biso   1.000  C
  H95      1.0000 0.52067  0.73863  0.80613  Biso   1.000  H
  C151     1.0000 0.61697  0.66093  0.76433  Biso   1.000  C
  C152     1.0000 0.66427  0.70903  0.76503  Biso   1.000  C
  H96      1.0000 0.66447  0.73983  0.77563  Biso   1.000  H
  C153     1.0000 0.81107  0.76423  0.74793  Biso   1.000  C
  H97      1.0000 0.81207  0.73273  0.74693  Biso   1.000  H
  C154     1.0000 0.85757  0.81253  0.74743  Biso   1.000  C
  H98      1.0000 0.88947  0.81253  0.74523  Biso   1.000  H
  O29      1.0000 0.05514  0.95298  0.18751  Biso   1.000  O
  O30      1.0000 0.10469  0.04116  0.19431  Biso   1.000  O
  C155     1.0000 0.09704  0.99616  0.18101  Biso   1.000  C
  C156     1.0000 0.14336  0.99414  0.15487  Biso   1.000  C
  C157     1.0000 0.14293  0.94737  0.14557  Biso   1.000  C
  H99      1.0000 0.11223  0.91537  0.15267  Biso   1.000  H
  C158     1.0000 0.18753  0.94677  0.12577  Biso   1.000  C
  H100     1.0000 0.18593  0.91437  0.12027  Biso   1.000  H
  C159     1.0000 0.23363  0.99267  0.11437  Biso   1.000  C
  C160     1.0000 0.23163  0.03987  0.11737  Biso   1.000  C
  H101     1.0000 0.26063  0.07157  0.10557  Biso   1.000  H
  C161     1.0000 0.18743  0.04007  0.13747  Biso   1.000  C
  H102     1.0000 0.18733  0.07197  0.13947  Biso   1.000  H
  C162     1.0000 0.28363  0.99427  0.09767  Biso   1.000  C
  C163     1.0000 0.33093  0.04237  0.09837  Biso   1.000  C
  H103     1.0000 0.33113  0.07317  0.10897  Biso   1.000  H
  C164     1.0000 0.47773  0.09757  0.08127  Biso   1.000  C
  H104     1.0000 0.47873  0.06607  0.08027  Biso   1.000  H
  C165     1.0000 0.52423  0.14587  0.08077  Biso   1.000  C
  H105     1.0000 0.55613  0.14587  0.07857  Biso   1.000  H
  O31      1.0000 0.56450  0.27819  0.52084  Biso   1.000  O
  O32      1.0000 0.60313  0.22864  0.52764  Biso   1.000  O
  C166     1.0000 0.56578  0.23629  0.51434  Biso   1.000  C
  C167     1.0000 0.51744  0.18997  0.48820  Biso   1.000  C
  C168     1.0000 0.47110  0.19040  0.47890  Biso   1.000  C
  H106     1.0000 0.46980  0.22110  0.48600  Biso   1.000  H
  C169     1.0000 0.42590  0.14580  0.45910  Biso   1.000  C
  H107     1.0000 0.39510  0.14740  0.45360  Biso   1.000  H
  C170     1.0000 0.42570  0.09970  0.44770  Biso   1.000  C
  C171     1.0000 0.47490  0.10170  0.45070  Biso   1.000  C
  H108     1.0000 0.47760  0.07270  0.43890  Biso   1.000  H
  C172     1.0000 0.51930  0.14590  0.47080  Biso   1.000  C
  H109     1.0000 0.55130  0.14600  0.47280  Biso   1.000  H
  C173     1.0000 0.37730  0.04970  0.43100  Biso   1.000  C
  C174     1.0000 0.37810  0.00240  0.43170  Biso   1.000  C
  H110     1.0000 0.40870  0.00220  0.44230  Biso   1.000  H
  C175     1.0000 0.28650  0.85560  0.41460  Biso   1.000  C
  H111     1.0000 0.25400  0.85460  0.41360  Biso   1.000  H
  C176     1.0000 0.28830  0.80910  0.41410  Biso   1.000  C
  H112     1.0000 0.25640  0.77720  0.41190  Biso   1.000  H
  O33      1.0000 0.23117  0.61152  0.85417  Biso   1.000  O
  O34      1.0000 0.26980  0.56197  0.86097  Biso   1.000  O
  C177     1.0000 0.23245  0.56962  0.84767  Biso   1.000  C
  C178     1.0000 0.18411  0.52330  0.82153  Biso   1.000  C
  C179     1.0000 0.13777  0.52373  0.81223  Biso   1.000  C
  H113     1.0000 0.13647  0.55443  0.81933  Biso   1.000  H
  C180     1.0000 0.09257  0.47913  0.79243  Biso   1.000  C
  H114     1.0000 0.06177  0.48073  0.78693  Biso   1.000  H
  C181     1.0000 0.09237  0.43303  0.78103  Biso   1.000  C
  C182     1.0000 0.14157  0.43503  0.78403  Biso   1.000  C
  H115     1.0000 0.14427  0.40603  0.77223  Biso   1.000  H
  C183     1.0000 0.18597  0.47923  0.80413  Biso   1.000  C
  H116     1.0000 0.21797  0.47933  0.80613  Biso   1.000  H
  C184     1.0000 0.04397  0.38303  0.76433  Biso   1.000  C
  C185     1.0000 0.04477  0.33573  0.76503  Biso   1.000  C
  H117     1.0000 0.07537  0.33553  0.77563  Biso   1.000  H
  C186     1.0000 0.95317  0.18893  0.74793  Biso   1.000  C
  H118     1.0000 0.92067  0.18793  0.74693  Biso   1.000  H
  C187     1.0000 0.95497  0.14243  0.74743  Biso   1.000  C
  H119     1.0000 0.92307  0.11053  0.74523  Biso   1.000  H
  O35      1.0000 0.89783  0.94486  0.18751  Biso   1.000  O
  O36      1.0000 0.93646  0.89531  0.19431  Biso   1.000  O
  C188     1.0000 0.89911  0.90296  0.18101  Biso   1.000  C
  C189     1.0000 0.85077  0.85664  0.15487  Biso   1.000  C
  C190     1.0000 0.80443  0.85707  0.14557  Biso   1.000  C
  H120     1.0000 0.80313  0.88777  0.15267  Biso   1.000  H
  C191     1.0000 0.75923  0.81247  0.12577  Biso   1.000  C
  H121     1.0000 0.72843  0.81407  0.12027  Biso   1.000  H
  C192     1.0000 0.75903  0.76637  0.11437  Biso   1.000  C
  C193     1.0000 0.80823  0.76837  0.11737  Biso   1.000  C
  H122     1.0000 0.81093  0.73937  0.10557  Biso   1.000  H
  C194     1.0000 0.85263  0.81257  0.13747  Biso   1.000  C
  H123     1.0000 0.88463  0.81267  0.13947  Biso   1.000  H
  C195     1.0000 0.71063  0.71637  0.09767  Biso   1.000  C
  C196     1.0000 0.71143  0.66907  0.09837  Biso   1.000  C
  H124     1.0000 0.74203  0.66887  0.10897  Biso   1.000  H
  C197     1.0000 0.61983  0.52227  0.08127  Biso   1.000  C
  H125     1.0000 0.58733  0.52127  0.08027  Biso   1.000  H
  C198     1.0000 0.62163  0.47577  0.08077  Biso   1.000  C
  H126     1.0000 0.58973  0.44387  0.07857  Biso   1.000  H
  O37      1.0000 0.56450  0.28631  0.02084  Biso   1.000  O
  O38      1.0000 0.60313  0.37449  0.02764  Biso   1.000  O
  C199     1.0000 0.56578  0.32949  0.01434  Biso   1.000  C
  C200     1.0000 0.51744  0.32747  0.98820  Biso   1.000  C
  C201     1.0000 0.47110  0.28070  0.97890  Biso   1.000  C
  H127     1.0000 0.46980  0.24870  0.98600  Biso   1.000  H
  C202     1.0000 0.42590  0.28010  0.95910  Biso   1.000  C
  H128     1.0000 0.39510  0.24770  0.95360  Biso   1.000  H
  C203     1.0000 0.42570  0.32600  0.94770  Biso   1.000  C
  C204     1.0000 0.47490  0.37320  0.95070  Biso   1.000  C
  H129     1.0000 0.47760  0.40490  0.93890  Biso   1.000  H
  C205     1.0000 0.51930  0.37340  0.97080  Biso   1.000  C
  H130     1.0000 0.55130  0.40530  0.97280  Biso   1.000  H
  C206     1.0000 0.37730  0.32760  0.93100  Biso   1.000  C
  C207     1.0000 0.37810  0.37570  0.93170  Biso   1.000  C
  H131     1.0000 0.40870  0.40650  0.94230  Biso   1.000  H
  C208     1.0000 0.28650  0.43090  0.91460  Biso   1.000  C
  H132     1.0000 0.25400  0.39940  0.91360  Biso   1.000  H
  C209     1.0000 0.28830  0.47920  0.91410  Biso   1.000  C
  H133     1.0000 0.25640  0.47920  0.91190  Biso   1.000  H
  O39      1.0000 0.23117  0.61964  0.35417  Biso   1.000  O
  O40      1.0000 0.26980  0.70782  0.36097  Biso   1.000  O
  C210     1.0000 0.23245  0.66282  0.34767  Biso   1.000  C
  C211     1.0000 0.18411  0.66080  0.32153  Biso   1.000  C
  C212     1.0000 0.13777  0.61403  0.31223  Biso   1.000  C
  H134     1.0000 0.13647  0.58203  0.31933  Biso   1.000  H
  C213     1.0000 0.09257  0.61343  0.29243  Biso   1.000  C
  H135     1.0000 0.06177  0.58103  0.28693  Biso   1.000  H
  C214     1.0000 0.09237  0.65933  0.28103  Biso   1.000  C
  C215     1.0000 0.14157  0.70653  0.28403  Biso   1.000  C
  H136     1.0000 0.14427  0.73823  0.27223  Biso   1.000  H
  C216     1.0000 0.18597  0.70673  0.30413  Biso   1.000  C
  H137     1.0000 0.21797  0.73863  0.30613  Biso   1.000  H
  C217     1.0000 0.04397  0.66093  0.26433  Biso   1.000  C
  C218     1.0000 0.04477  0.70903  0.26503  Biso   1.000  C
  H138     1.0000 0.07537  0.73983  0.27563  Biso   1.000  H
  C219     1.0000 0.95317  0.76423  0.24793  Biso   1.000  C
  H139     1.0000 0.92067  0.73273  0.24693  Biso   1.000  H
  C220     1.0000 0.95497  0.81253  0.24743  Biso   1.000  C
  H140     1.0000 0.92307  0.81253  0.24523  Biso   1.000  H
  O41      1.0000 0.89783  0.95298  0.68751  Biso   1.000  O
  O42      1.0000 0.93646  0.04116  0.69431  Biso   1.000  O
  C221     1.0000 0.89911  0.99616  0.68101  Biso   1.000  C
  C222     1.0000 0.85077  0.99414  0.65487  Biso   1.000  C
  C223     1.0000 0.80443  0.94737  0.64557  Biso   1.000  C
  H141     1.0000 0.80313  0.91537  0.65267  Biso   1.000  H
  C224     1.0000 0.75923  0.94677  0.62577  Biso   1.000  C
  H142     1.0000 0.72843  0.91437  0.62027  Biso   1.000  H
  C225     1.0000 0.75903  0.99267  0.61437  Biso   1.000  C
  C226     1.0000 0.80823  0.03987  0.61737  Biso   1.000  C
  H143     1.0000 0.81093  0.07157  0.60557  Biso   1.000  H
  C227     1.0000 0.85263  0.04007  0.63747  Biso   1.000  C
  H144     1.0000 0.88463  0.07197  0.63947  Biso   1.000  H
  C228     1.0000 0.71063  0.99427  0.59767  Biso   1.000  C
  C229     1.0000 0.71143  0.04237  0.59837  Biso   1.000  C
  H145     1.0000 0.74203  0.07317  0.60897  Biso   1.000  H
  C230     1.0000 0.61983  0.09757  0.58127  Biso   1.000  C
  H146     1.0000 0.58733  0.06607  0.58027  Biso   1.000  H
  C231     1.0000 0.62163  0.14587  0.58077  Biso   1.000  C
  H147     1.0000 0.58973  0.14587  0.57857  Biso   1.000  H
  O43      1.0000 0.71369  0.27819  0.02084  Biso   1.000  O
  O44      1.0000 0.62551  0.22864  0.02764  Biso   1.000  O
  C232     1.0000 0.67051  0.23629  0.01434  Biso   1.000  C
  C233     1.0000 0.67253  0.18997  0.98820  Biso   1.000  C
  C234     1.0000 0.71930  0.19040  0.97890  Biso   1.000  C
  H148     1.0000 0.75130  0.22110  0.98600  Biso   1.000  H
  C235     1.0000 0.71990  0.14580  0.95910  Biso   1.000  C
  H149     1.0000 0.75230  0.14740  0.95360  Biso   1.000  H
  C236     1.0000 0.67400  0.09970  0.94770  Biso   1.000  C
  C237     1.0000 0.62680  0.10170  0.95070  Biso   1.000  C
  H150     1.0000 0.59510  0.07270  0.93890  Biso   1.000  H
  C238     1.0000 0.62660  0.14590  0.97080  Biso   1.000  C
  H151     1.0000 0.59470  0.14600  0.97280  Biso   1.000  H
  C239     1.0000 0.67240  0.04970  0.93100  Biso   1.000  C
  C240     1.0000 0.62430  0.00240  0.93170  Biso   1.000  C
  H152     1.0000 0.59350  0.00220  0.94230  Biso   1.000  H
  C241     1.0000 0.56910  0.85560  0.91460  Biso   1.000  C
  H153     1.0000 0.60060  0.85460  0.91360  Biso   1.000  H
  C242     1.0000 0.52080  0.80910  0.91410  Biso   1.000  C
  H154     1.0000 0.52080  0.77720  0.91190  Biso   1.000  H
  O45      1.0000 0.38036  0.61152  0.35417  Biso   1.000  O
  O46      1.0000 0.29218  0.56197  0.36097  Biso   1.000  O
  C243     1.0000 0.33718  0.56962  0.34767  Biso   1.000  C
  C244     1.0000 0.33920  0.52330  0.32153  Biso   1.000  C
  C245     1.0000 0.38597  0.52373  0.31223  Biso   1.000  C
  H155     1.0000 0.41797  0.55443  0.31933  Biso   1.000  H
  C246     1.0000 0.38657  0.47913  0.29243  Biso   1.000  C
  H156     1.0000 0.41897  0.48073  0.28693  Biso   1.000  H
  C247     1.0000 0.34067  0.43303  0.28103  Biso   1.000  C
  C248     1.0000 0.29347  0.43503  0.28403  Biso   1.000  C
  H157     1.0000 0.26177  0.40603  0.27223  Biso   1.000  H
  C249     1.0000 0.29327  0.47923  0.30413  Biso   1.000  C
  H158     1.0000 0.26137  0.47933  0.30613  Biso   1.000  H
  C250     1.0000 0.33907  0.38303  0.26433  Biso   1.000  C
  C251     1.0000 0.29097  0.33573  0.26503  Biso   1.000  C
  H159     1.0000 0.26017  0.33553  0.27563  Biso   1.000  H
  C252     1.0000 0.23577  0.18893  0.24793  Biso   1.000  C
  H160     1.0000 0.26727  0.18793  0.24693  Biso   1.000  H
  C253     1.0000 0.18747  0.14243  0.24743  Biso   1.000  C
  H161     1.0000 0.18747  0.11053  0.24523  Biso   1.000  H
  O47      1.0000 0.04702  0.94486  0.68751  Biso   1.000  O
  O48      1.0000 0.95884  0.89531  0.69431  Biso   1.000  O
  C254     1.0000 0.00384  0.90296  0.68101  Biso   1.000  C
  C255     1.0000 0.00586  0.85664  0.65487  Biso   1.000  C
  C256     1.0000 0.05263  0.85707  0.64557  Biso   1.000  C
  H162     1.0000 0.08463  0.88777  0.65267  Biso   1.000  H
  C257     1.0000 0.05323  0.81247  0.62577  Biso   1.000  C
  H163     1.0000 0.08563  0.81407  0.62027  Biso   1.000  H
  C258     1.0000 0.00733  0.76637  0.61437  Biso   1.000  C
  C259     1.0000 0.96013  0.76837  0.61737  Biso   1.000  C
  H164     1.0000 0.92843  0.73937  0.60557  Biso   1.000  H
  C260     1.0000 0.95993  0.81257  0.63747  Biso   1.000  C
  H165     1.0000 0.92803  0.81267  0.63947  Biso   1.000  H
  C261     1.0000 0.00573  0.71637  0.59767  Biso   1.000  C
  C262     1.0000 0.95763  0.66907  0.59837  Biso   1.000  C
  H166     1.0000 0.92683  0.66887  0.60897  Biso   1.000  H
  C263     1.0000 0.90243  0.52227  0.58127  Biso   1.000  C
  H167     1.0000 0.93393  0.52127  0.58027  Biso   1.000  H
  C264     1.0000 0.85413  0.47577  0.58077  Biso   1.000  C
  H168     1.0000 0.85413  0.44387  0.57857  Biso   1.000  H
  O49      1.0000 0.72181  0.43550  0.02084  Biso   1.000  O
  O50      1.0000 0.77136  0.39687  0.02764  Biso   1.000  O
  C265     1.0000 0.76371  0.43422  0.01434  Biso   1.000  C
  C266     1.0000 0.81003  0.48256  0.98820  Biso   1.000  C
  C267     1.0000 0.80960  0.52890  0.97890  Biso   1.000  C
  H169     1.0000 0.77890  0.53020  0.98600  Biso   1.000  H
  C268     1.0000 0.85420  0.57410  0.95910  Biso   1.000  C
  H170     1.0000 0.85260  0.60490  0.95360  Biso   1.000  H
  C269     1.0000 0.90030  0.57430  0.94770  Biso   1.000  C
  C270     1.0000 0.89830  0.52510  0.95070  Biso   1.000  C
  H171     1.0000 0.92730  0.52240  0.93890  Biso   1.000  H
  C271     1.0000 0.85410  0.48070  0.97080  Biso   1.000  C
  H172     1.0000 0.85400  0.44870  0.97280  Biso   1.000  H
  C272     1.0000 0.95030  0.62270  0.93100  Biso   1.000  C
  C273     1.0000 0.99760  0.62190  0.93170  Biso   1.000  C
  H173     1.0000 0.99780  0.59130  0.94230  Biso   1.000  H
  C274     1.0000 0.14440  0.71350  0.91460  Biso   1.000  C
  H174     1.0000 0.14540  0.74600  0.91360  Biso   1.000  H
  C275     1.0000 0.19090  0.71170  0.91410  Biso   1.000  C
  H175     1.0000 0.22280  0.74360  0.91190  Biso   1.000  H
  O51      1.0000 0.38848  0.76883  0.35417  Biso   1.000  O
  O52      1.0000 0.43803  0.73020  0.36097  Biso   1.000  O
  C276     1.0000 0.43038  0.76755  0.34767  Biso   1.000  C
  C277     1.0000 0.47670  0.81589  0.32153  Biso   1.000  C
  C278     1.0000 0.47627  0.86223  0.31223  Biso   1.000  C
  H176     1.0000 0.44557  0.86353  0.31933  Biso   1.000  H
  C279     1.0000 0.52087  0.90743  0.29243  Biso   1.000  C
  H177     1.0000 0.51927  0.93823  0.28693  Biso   1.000  H
  C280     1.0000 0.56697  0.90763  0.28103  Biso   1.000  C
  C281     1.0000 0.56497  0.85843  0.28403  Biso   1.000  C
  H178     1.0000 0.59397  0.85573  0.27223  Biso   1.000  H
  C282     1.0000 0.52077  0.81403  0.30413  Biso   1.000  C
  H179     1.0000 0.52067  0.78203  0.30613  Biso   1.000  H
  C283     1.0000 0.61697  0.95603  0.26433  Biso   1.000  C
  C284     1.0000 0.66427  0.95523  0.26503  Biso   1.000  C
  H180     1.0000 0.66447  0.92463  0.27563  Biso   1.000  H
  C285     1.0000 0.81107  0.04683  0.24793  Biso   1.000  C
  H181     1.0000 0.81207  0.07933  0.24693  Biso   1.000  H
  C286     1.0000 0.85757  0.04503  0.24743  Biso   1.000  C
  H182     1.0000 0.88947  0.07693  0.24523  Biso   1.000  H
  O53      1.0000 0.05514  0.10217  0.68751  Biso   1.000  O
  O54      1.0000 0.10469  0.06354  0.69431  Biso   1.000  O
  C287     1.0000 0.09704  0.10089  0.68101  Biso   1.000  C
  C288     1.0000 0.14336  0.14923  0.65487  Biso   1.000  C
  C289     1.0000 0.14293  0.19557  0.64557  Biso   1.000  C
  H183     1.0000 0.11223  0.19687  0.65267  Biso   1.000  H
  C290     1.0000 0.18753  0.24077  0.62577  Biso   1.000  C
  H184     1.0000 0.18593  0.27157  0.62027  Biso   1.000  H
  C291     1.0000 0.23363  0.24097  0.61437  Biso   1.000  C
  C292     1.0000 0.23163  0.19177  0.61737  Biso   1.000  C
  H185     1.0000 0.26063  0.18907  0.60557  Biso   1.000  H
  C293     1.0000 0.18743  0.14737  0.63747  Biso   1.000  C
  H186     1.0000 0.18733  0.11537  0.63947  Biso   1.000  H
  C294     1.0000 0.28363  0.28937  0.59767  Biso   1.000  C
  C295     1.0000 0.33093  0.28857  0.59837  Biso   1.000  C
  H187     1.0000 0.33113  0.25797  0.60897  Biso   1.000  H
  C296     1.0000 0.47773  0.38017  0.58127  Biso   1.000  C
  H188     1.0000 0.47873  0.41267  0.58027  Biso   1.000  H
  C297     1.0000 0.52423  0.37837  0.58077  Biso   1.000  C
  H189     1.0000 0.55613  0.41027  0.57857  Biso   1.000  H
  O55      1.0000 0.28631  0.56450  0.47916  Biso   1.000  O
  O56      1.0000 0.37449  0.60313  0.47236  Biso   1.000  O
  C298     1.0000 0.32949  0.56578  0.48566  Biso   1.000  C
  C299     1.0000 0.32747  0.51744  0.51180  Biso   1.000  C
  C300     1.0000 0.28070  0.47110  0.52110  Biso   1.000  C
  H190     1.0000 0.24870  0.46980  0.51400  Biso   1.000  H
  C301     1.0000 0.28010  0.42590  0.54090  Biso   1.000  C
  H191     1.0000 0.24770  0.39510  0.54640  Biso   1.000  H
  C302     1.0000 0.32600  0.42570  0.55230  Biso   1.000  C
  C303     1.0000 0.37320  0.47490  0.54930  Biso   1.000  C
  H192     1.0000 0.40490  0.47760  0.56110  Biso   1.000  H
  C304     1.0000 0.37340  0.51930  0.52920  Biso   1.000  C
  H193     1.0000 0.40530  0.55130  0.52720  Biso   1.000  H
  C305     1.0000 0.32760  0.37730  0.56900  Biso   1.000  C
  C306     1.0000 0.37570  0.37810  0.56830  Biso   1.000  C
  H194     1.0000 0.40650  0.40870  0.55770  Biso   1.000  H
  C307     1.0000 0.43090  0.28650  0.58540  Biso   1.000  C
  H195     1.0000 0.39940  0.25400  0.58640  Biso   1.000  H
  C308     1.0000 0.47920  0.28830  0.58590  Biso   1.000  C
  H196     1.0000 0.47920  0.25640  0.58810  Biso   1.000  H
  O57      1.0000 0.95298  0.89783  0.81249  Biso   1.000  O
  O58      1.0000 0.04116  0.93646  0.80569  Biso   1.000  O
  C309     1.0000 0.99616  0.89911  0.81899  Biso   1.000  C
  C310     1.0000 0.99414  0.85077  0.84513  Biso   1.000  C
  C311     1.0000 0.94737  0.80443  0.85443  Biso   1.000  C
  H197     1.0000 0.91537  0.80313  0.84733  Biso   1.000  H
  C312     1.0000 0.94677  0.75923  0.87423  Biso   1.000  C
  H198     1.0000 0.91437  0.72843  0.87973  Biso   1.000  H
  C313     1.0000 0.99267  0.75903  0.88563  Biso   1.000  C
  C314     1.0000 0.03987  0.80823  0.88263  Biso   1.000  C
  H199     1.0000 0.07157  0.81093  0.89443  Biso   1.000  H
  C315     1.0000 0.04007  0.85263  0.86253  Biso   1.000  C
  H200     1.0000 0.07197  0.88463  0.86053  Biso   1.000  H
  C316     1.0000 0.99427  0.71063  0.90233  Biso   1.000  C
  C317     1.0000 0.04237  0.71143  0.90163  Biso   1.000  C
  H201     1.0000 0.07317  0.74203  0.89103  Biso   1.000  H
  C318     1.0000 0.09757  0.61983  0.91873  Biso   1.000  C
  H202     1.0000 0.06607  0.58733  0.91973  Biso   1.000  H
  C319     1.0000 0.14587  0.62163  0.91923  Biso   1.000  C
  H203     1.0000 0.14587  0.58973  0.92143  Biso   1.000  H
  O59      1.0000 0.61964  0.23117  0.14583  Biso   1.000  O
  O60      1.0000 0.70782  0.26980  0.13903  Biso   1.000  O
  C320     1.0000 0.66282  0.23245  0.15233  Biso   1.000  C
  C321     1.0000 0.66080  0.18411  0.17847  Biso   1.000  C
  C322     1.0000 0.61403  0.13777  0.18777  Biso   1.000  C
  H204     1.0000 0.58203  0.13647  0.18067  Biso   1.000  H
  C323     1.0000 0.61343  0.09257  0.20757  Biso   1.000  C
  H205     1.0000 0.58103  0.06177  0.21307  Biso   1.000  H
  C324     1.0000 0.65933  0.09237  0.21897  Biso   1.000  C
  C325     1.0000 0.70653  0.14157  0.21597  Biso   1.000  C
  H206     1.0000 0.73823  0.14427  0.22777  Biso   1.000  H
  C326     1.0000 0.70673  0.18597  0.19587  Biso   1.000  C
  H207     1.0000 0.73863  0.21797  0.19387  Biso   1.000  H
  C327     1.0000 0.66093  0.04397  0.23567  Biso   1.000  C
  C328     1.0000 0.70903  0.04477  0.23497  Biso   1.000  C
  H208     1.0000 0.73983  0.07537  0.22437  Biso   1.000  H
  C329     1.0000 0.76423  0.95317  0.25207  Biso   1.000  C
  H209     1.0000 0.73273  0.92067  0.25307  Biso   1.000  H
  C330     1.0000 0.81253  0.95497  0.25257  Biso   1.000  C
  H210     1.0000 0.81253  0.92307  0.25477  Biso   1.000  H
  O61      1.0000 0.27819  0.71369  0.47916  Biso   1.000  O
  O62      1.0000 0.22864  0.62551  0.47236  Biso   1.000  O
  C331     1.0000 0.23629  0.67051  0.48566  Biso   1.000  C
  C332     1.0000 0.18997  0.67253  0.51180  Biso   1.000  C
  C333     1.0000 0.19040  0.71930  0.52110  Biso   1.000  C
  H211     1.0000 0.22110  0.75130  0.51400  Biso   1.000  H
  C334     1.0000 0.14580  0.71990  0.54090  Biso   1.000  C
  H212     1.0000 0.14740  0.75230  0.54640  Biso   1.000  H
  C335     1.0000 0.09970  0.67400  0.55230  Biso   1.000  C
  C336     1.0000 0.10170  0.62680  0.54930  Biso   1.000  C
  H213     1.0000 0.07270  0.59510  0.56110  Biso   1.000  H
  C337     1.0000 0.14590  0.62660  0.52920  Biso   1.000  C
  H214     1.0000 0.14600  0.59470  0.52720  Biso   1.000  H
  C338     1.0000 0.04970  0.67240  0.56900  Biso   1.000  C
  C339     1.0000 0.00240  0.62430  0.56830  Biso   1.000  C
  H215     1.0000 0.00220  0.59350  0.55770  Biso   1.000  H
  C340     1.0000 0.85560  0.56910  0.58540  Biso   1.000  C
  H216     1.0000 0.85460  0.60060  0.58640  Biso   1.000  H
  C341     1.0000 0.80910  0.52080  0.58590  Biso   1.000  C
  H217     1.0000 0.77720  0.52080  0.58810  Biso   1.000  H
  O63      1.0000 0.94486  0.04702  0.81249  Biso   1.000  O
  O64      1.0000 0.89531  0.95884  0.80569  Biso   1.000  O
  C342     1.0000 0.90296  0.00384  0.81899  Biso   1.000  C
  C343     1.0000 0.85664  0.00586  0.84513  Biso   1.000  C
  C344     1.0000 0.85707  0.05263  0.85443  Biso   1.000  C
  H218     1.0000 0.88777  0.08463  0.84733  Biso   1.000  H
  C345     1.0000 0.81247  0.05323  0.87423  Biso   1.000  C
  H219     1.0000 0.81407  0.08563  0.87973  Biso   1.000  H
  C346     1.0000 0.76637  0.00733  0.88563  Biso   1.000  C
  C347     1.0000 0.76837  0.96013  0.88263  Biso   1.000  C
  H220     1.0000 0.73937  0.92843  0.89443  Biso   1.000  H
  C348     1.0000 0.81257  0.95993  0.86253  Biso   1.000  C
  H221     1.0000 0.81267  0.92803  0.86053  Biso   1.000  H
  C349     1.0000 0.71637  0.00573  0.90233  Biso   1.000  C
  C350     1.0000 0.66907  0.95763  0.90163  Biso   1.000  C
  H222     1.0000 0.66887  0.92683  0.89103  Biso   1.000  H
  C351     1.0000 0.52227  0.90243  0.91873  Biso   1.000  C
  H223     1.0000 0.52127  0.93393  0.91973  Biso   1.000  H
  C352     1.0000 0.47577  0.85413  0.91923  Biso   1.000  C
  H224     1.0000 0.44387  0.85413  0.92143  Biso   1.000  H
  O65      1.0000 0.61152  0.38036  0.14583  Biso   1.000  O
  O66      1.0000 0.56197  0.29218  0.13903  Biso   1.000  O
  C353     1.0000 0.56962  0.33718  0.15233  Biso   1.000  C
  C354     1.0000 0.52330  0.33920  0.17847  Biso   1.000  C
  C355     1.0000 0.52373  0.38597  0.18777  Biso   1.000  C
  H225     1.0000 0.55443  0.41797  0.18067  Biso   1.000  H
  C356     1.0000 0.47913  0.38657  0.20757  Biso   1.000  C
  H226     1.0000 0.48073  0.41897  0.21307  Biso   1.000  H
  C357     1.0000 0.43303  0.34067  0.21897  Biso   1.000  C
  C358     1.0000 0.43503  0.29347  0.21597  Biso   1.000  C
  H227     1.0000 0.40603  0.26177  0.22777  Biso   1.000  H
  C359     1.0000 0.47923  0.29327  0.19587  Biso   1.000  C
  H228     1.0000 0.47933  0.26137  0.19387  Biso   1.000  H
  C360     1.0000 0.38303  0.33907  0.23567  Biso   1.000  C
  C361     1.0000 0.33573  0.29097  0.23497  Biso   1.000  C
  H229     1.0000 0.33553  0.26017  0.22437  Biso   1.000  H
  C362     1.0000 0.18893  0.23577  0.25207  Biso   1.000  C
  H230     1.0000 0.18793  0.26727  0.25307  Biso   1.000  H
  C363     1.0000 0.14243  0.18747  0.25257  Biso   1.000  C
  H231     1.0000 0.11053  0.18747  0.25477  Biso   1.000  H
  O67      1.0000 0.43550  0.72181  0.47916  Biso   1.000  O
  O68      1.0000 0.39687  0.77136  0.47236  Biso   1.000  O
  C364     1.0000 0.43422  0.76371  0.48566  Biso   1.000  C
  C365     1.0000 0.48256  0.81003  0.51180  Biso   1.000  C
  C366     1.0000 0.52890  0.80960  0.52110  Biso   1.000  C
  H232     1.0000 0.53020  0.77890  0.51400  Biso   1.000  H
  C367     1.0000 0.57410  0.85420  0.54090  Biso   1.000  C
  H233     1.0000 0.60490  0.85260  0.54640  Biso   1.000  H
  C368     1.0000 0.57430  0.90030  0.55230  Biso   1.000  C
  C369     1.0000 0.52510  0.89830  0.54930  Biso   1.000  C
  H234     1.0000 0.52240  0.92730  0.56110  Biso   1.000  H
  C370     1.0000 0.48070  0.85410  0.52920  Biso   1.000  C
  H235     1.0000 0.44870  0.85400  0.52720  Biso   1.000  H
  C371     1.0000 0.62270  0.95030  0.56900  Biso   1.000  C
  C372     1.0000 0.62190  0.99760  0.56830  Biso   1.000  C
  H236     1.0000 0.59130  0.99780  0.55770  Biso   1.000  H
  C373     1.0000 0.71350  0.14440  0.58540  Biso   1.000  C
  H237     1.0000 0.74600  0.14540  0.58640  Biso   1.000  H
  C374     1.0000 0.71170  0.19090  0.58590  Biso   1.000  C
  H238     1.0000 0.74360  0.22280  0.58810  Biso   1.000  H
  O69      1.0000 0.10217  0.05514  0.81249  Biso   1.000  O
  O70      1.0000 0.06354  0.10469  0.80569  Biso   1.000  O
  C375     1.0000 0.10089  0.09704  0.81899  Biso   1.000  C
  C376     1.0000 0.14923  0.14336  0.84513  Biso   1.000  C
  C377     1.0000 0.19557  0.14293  0.85443  Biso   1.000  C
  H239     1.0000 0.19687  0.11223  0.84733  Biso   1.000  H
  C378     1.0000 0.24077  0.18753  0.87423  Biso   1.000  C
  H240     1.0000 0.27157  0.18593  0.87973  Biso   1.000  H
  C379     1.0000 0.24097  0.23363  0.88563  Biso   1.000  C
  C380     1.0000 0.19177  0.23163  0.88263  Biso   1.000  C
  H241     1.0000 0.18907  0.26063  0.89443  Biso   1.000  H
  C381     1.0000 0.14737  0.18743  0.86253  Biso   1.000  C
  H242     1.0000 0.11537  0.18733  0.86053  Biso   1.000  H
  C382     1.0000 0.28937  0.28363  0.90233  Biso   1.000  C
  C383     1.0000 0.28857  0.33093  0.90163  Biso   1.000  C
  H243     1.0000 0.25797  0.33113  0.89103  Biso   1.000  H
  C384     1.0000 0.38017  0.47773  0.91873  Biso   1.000  C
  H244     1.0000 0.41267  0.47873  0.91973  Biso   1.000  H
  C385     1.0000 0.37837  0.52423  0.91923  Biso   1.000  C
  H245     1.0000 0.41027  0.55613  0.92143  Biso   1.000  H
  O71      1.0000 0.76883  0.38848  0.14583  Biso   1.000  O
  O72      1.0000 0.73020  0.43803  0.13903  Biso   1.000  O
  C386     1.0000 0.76755  0.43038  0.15233  Biso   1.000  C
  C387     1.0000 0.81589  0.47670  0.17847  Biso   1.000  C
  C388     1.0000 0.86223  0.47627  0.18777  Biso   1.000  C
  H246     1.0000 0.86353  0.44557  0.18067  Biso   1.000  H
  C389     1.0000 0.90743  0.52087  0.20757  Biso   1.000  C
  H247     1.0000 0.93823  0.51927  0.21307  Biso   1.000  H
  C390     1.0000 0.90763  0.56697  0.21897  Biso   1.000  C
  C391     1.0000 0.85843  0.56497  0.21597  Biso   1.000  C
  H248     1.0000 0.85573  0.59397  0.22777  Biso   1.000  H
  C392     1.0000 0.81403  0.52077  0.19587  Biso   1.000  C
  H249     1.0000 0.78203  0.52067  0.19387  Biso   1.000  H
  C393     1.0000 0.95603  0.61697  0.23567  Biso   1.000  C
  C394     1.0000 0.95523  0.66427  0.23497  Biso   1.000  C
  H250     1.0000 0.92463  0.66447  0.22437  Biso   1.000  H
  C395     1.0000 0.04683  0.81107  0.25207  Biso   1.000  C
  H251     1.0000 0.07933  0.81207  0.25307  Biso   1.000  H
  C396     1.0000 0.04503  0.85757  0.25257  Biso   1.000  C
  H252     1.0000 0.07693  0.88947  0.25477  Biso   1.000  H
  Ni1      1.0000 0.66667  0.40224  0.08333  Biso   1.000  Ni
  N1       1.0000 0.66667  0.47403  0.08333  Biso   1.000  N
  N2       1.0000 0.66667  0.71845  0.08333  Biso   1.000  N
  C397     1.0000 0.66667  0.62188  0.08333  Biso   1.000  C
  C398     1.0000 0.66667  0.57048  0.08333  Biso   1.000  C
  Ni2      1.0000 0.59776  0.26442  0.08333  Biso   1.000  Ni
  N3       1.0000 0.52597  0.19263  0.08333  Biso   1.000  N
  N4       1.0000 0.28155  0.94821  0.08333  Biso   1.000  N
  C399     1.0000 0.37812  0.04478  0.08333  Biso   1.000  C
  C400     1.0000 0.42952  0.09618  0.08333  Biso   1.000  C
  Ni3      1.0000 0.73558  0.33333  0.08333  Biso   1.000  Ni
  N5       1.0000 0.80737  0.33333  0.08333  Biso   1.000  N
  N6       1.0000 0.05179  0.33333  0.08333  Biso   1.000  N
  C401     1.0000 0.95522  0.33333  0.08333  Biso   1.000  C
  C402     1.0000 0.90382  0.33333  0.08333  Biso   1.000  C
  Ni4      1.0000 0.40224  0.66667  0.41667  Biso   1.000  Ni
  N7       1.0000 0.47403  0.66667  0.41667  Biso   1.000  N
  N8       1.0000 0.71845  0.66667  0.41667  Biso   1.000  N
  C403     1.0000 0.62188  0.66667  0.41667  Biso   1.000  C
  C404     1.0000 0.57048  0.66667  0.41667  Biso   1.000  C
  Ni5      1.0000 0.06891  0.00000  0.75000  Biso   1.000  Ni
  N9       1.0000 0.14070  0.00000  0.75000  Biso   1.000  N
  N10      1.0000 0.38512  0.00000  0.75000  Biso   1.000  N
  C405     1.0000 0.28855  0.00000  0.75000  Biso   1.000  C
  C406     1.0000 0.23715  0.00000  0.75000  Biso   1.000  C
  Ni6      1.0000 0.26442  0.59776  0.41667  Biso   1.000  Ni
  N11      1.0000 0.19263  0.52597  0.41667  Biso   1.000  N
  N12      1.0000 0.94821  0.28155  0.41667  Biso   1.000  N
  C407     1.0000 0.04478  0.37812  0.41667  Biso   1.000  C
  C408     1.0000 0.09618  0.42952  0.41667  Biso   1.000  C
  Ni7      1.0000 0.93109  0.93109  0.75000  Biso   1.000  Ni
  N13      1.0000 0.85930  0.85930  0.75000  Biso   1.000  N
  N14      1.0000 0.61488  0.61488  0.75000  Biso   1.000  N
  C409     1.0000 0.71145  0.71145  0.75000  Biso   1.000  C
  C410     1.0000 0.76285  0.76285  0.75000  Biso   1.000  C
  Ni8      1.0000 0.33333  0.73558  0.41667  Biso   1.000  Ni
  N15      1.0000 0.33333  0.80737  0.41667  Biso   1.000  N
  N16      1.0000 0.33333  0.05179  0.41667  Biso   1.000  N
  C411     1.0000 0.33333  0.95522  0.41667  Biso   1.000  C
  C412     1.0000 0.33333  0.90382  0.41667  Biso   1.000  C
  Ni9      1.0000 0.00000  0.06891  0.75000  Biso   1.000  Ni
  N17      1.0000 0.00000  0.14070  0.75000  Biso   1.000  N
  N18      1.0000 0.00000  0.38512  0.75000  Biso   1.000  N
  C413     1.0000 0.00000  0.28855  0.75000  Biso   1.000  C
  C414     1.0000 0.00000  0.23715  0.75000  Biso   1.000  C
  Ni10     1.0000 0.33333  0.59776  0.91667  Biso   1.000  Ni
  N19      1.0000 0.33333  0.52597  0.91667  Biso   1.000  N
  N20      1.0000 0.33333  0.28155  0.91667  Biso   1.000  N
  C415     1.0000 0.33333  0.37812  0.91667  Biso   1.000  C
  C416     1.0000 0.33333  0.42952  0.91667  Biso   1.000  C
  Ni11     1.0000 0.00000  0.93109  0.25000  Biso   1.000  Ni
  N21      1.0000 0.00000  0.85930  0.25000  Biso   1.000  N
  N22      1.0000 0.00000  0.61488  0.25000  Biso   1.000  N
  C417     1.0000 0.00000  0.71145  0.25000  Biso   1.000  C
  C418     1.0000 0.00000  0.76285  0.25000  Biso   1.000  C
  Ni12     1.0000 0.40224  0.73558  0.91667  Biso   1.000  Ni
  N23      1.0000 0.47403  0.80737  0.91667  Biso   1.000  N
  N24      1.0000 0.71845  0.05179  0.91667  Biso   1.000  N
  C419     1.0000 0.62188  0.95522  0.91667  Biso   1.000  C
  C420     1.0000 0.57048  0.90382  0.91667  Biso   1.000  C
  Ni13     1.0000 0.06891  0.06891  0.25000  Biso   1.000  Ni
  N25      1.0000 0.14070  0.14070  0.25000  Biso   1.000  N
  N26      1.0000 0.38512  0.38512  0.25000  Biso   1.000  N
  C421     1.0000 0.28855  0.28855  0.25000  Biso   1.000  C
  C422     1.0000 0.23715  0.23715  0.25000  Biso   1.000  C
  Ni14     1.0000 0.26442  0.66667  0.91667  Biso   1.000  Ni
  N27      1.0000 0.19263  0.66667  0.91667  Biso   1.000  N
  N28      1.0000 0.94821  0.66667  0.91667  Biso   1.000  N
  C423     1.0000 0.04478  0.66667  0.91667  Biso   1.000  C
  C424     1.0000 0.09618  0.66667  0.91667  Biso   1.000  C
  Ni15     1.0000 0.93109  0.00000  0.25000  Biso   1.000  Ni
  N29      1.0000 0.85930  0.00000  0.25000  Biso   1.000  N
  N30      1.0000 0.61488  0.00000  0.25000  Biso   1.000  N
  C425     1.0000 0.71145  0.00000  0.25000  Biso   1.000  C
  C426     1.0000 0.76285  0.00000  0.25000  Biso   1.000  C
  Ni16     1.0000 0.59776  0.33333  0.58333  Biso   1.000  Ni
  N31      1.0000 0.52597  0.33333  0.58333  Biso   1.000  N
  N32      1.0000 0.28155  0.33333  0.58333  Biso   1.000  N
  C427     1.0000 0.37812  0.33333  0.58333  Biso   1.000  C
  C428     1.0000 0.42952  0.33333  0.58333  Biso   1.000  C
  Ni17     1.0000 0.73558  0.40224  0.58333  Biso   1.000  Ni
  N33      1.0000 0.80737  0.47403  0.58333  Biso   1.000  N
  N34      1.0000 0.05179  0.71845  0.58333  Biso   1.000  N
  C429     1.0000 0.95522  0.62188  0.58333  Biso   1.000  C
  C430     1.0000 0.90382  0.57048  0.58333  Biso   1.000  C
  Ni18     1.0000 0.66667  0.26442  0.58333  Biso   1.000  Ni
  N35      1.0000 0.66667  0.19263  0.58333  Biso   1.000  N
  N36      1.0000 0.66667  0.94821  0.58333  Biso   1.000  N
  C431     1.0000 0.66667  0.04478  0.58333  Biso   1.000  C
  C432     1.0000 0.66667  0.09618  0.58333  Biso   1.000  C
  O73      1.0000 0.66667  0.33333  0.08333  Biso   1.000  O
  O74      1.0000 0.00000  0.00000  0.75000  Biso   1.000  O
  O75      1.0000 0.33333  0.66667  0.41667  Biso   1.000  O
  O76      1.0000 0.33333  0.66667  0.91667  Biso   1.000  O
  O77      1.0000 0.00000  0.00000  0.25000  Biso   1.000  O
  O78      1.0000 0.66667  0.33333  0.58333  Biso   1.000  O
  H253     1.0000 0.66667  0.33333  0.12330  Biso   1.000  H
  H254     1.0000 0.33333  0.66667  0.45663  Biso   1.000  H
  H255     1.0000 0.00000  0.00000  0.78997  Biso   1.000  H
  H256     1.0000 0.33333  0.66667  0.37670  Biso   1.000  H
  H257     1.0000 0.00000  0.00000  0.71003  Biso   1.000  H
  H258     1.0000 0.66667  0.33333  0.04337  Biso   1.000  H
  H259     1.0000 0.33333  0.66667  0.87670  Biso   1.000  H
  H260     1.0000 0.00000  0.00000  0.21003  Biso   1.000  H
  H261     1.0000 0.66667  0.33333  0.54337  Biso   1.000  H
  H262     1.0000 0.66667  0.33333  0.62330  Biso   1.000  H
  H263     1.0000 0.33333  0.66667  0.95663  Biso   1.000  H
  H264     1.0000 0.00000  0.00000  0.28997  Biso   1.000  H
