data_image0
_cell_length_a       32.4002
_cell_length_b       32.4002
_cell_length_c       32.4002
_cell_angle_alpha    90
_cell_angle_beta     90
_cell_angle_gamma    90

_symmetry_space_group_name_H-M    "P 1"
_symmetry_int_tables_number       1

loop_
  _symmetry_equiv_pos_as_xyz
  'x, y, z'

loop_
  _atom_site_label
  _atom_site_occupancy
  _atom_site_fract_x
  _atom_site_fract_y
  _atom_site_fract_z
  _atom_site_thermal_displace_type
  _atom_site_B_iso_or_equiv
  _atom_site_type_symbol
  F1       1.0000 0.31570  0.26021  0.91051  Biso   1.000  F
  F2       1.0000 0.25274  0.27836  0.89222  Biso   1.000  F
  F3       1.0000 0.29223  0.32210  0.92620  Biso   1.000  F
  F4       1.0000 0.31570  0.76021  0.41051  Biso   1.000  F
  F5       1.0000 0.25274  0.77836  0.39222  Biso   1.000  F
  F6       1.0000 0.29223  0.82210  0.42620  Biso   1.000  F
  F7       1.0000 0.81570  0.26021  0.41051  Biso   1.000  F
  F8       1.0000 0.75274  0.27836  0.39222  Biso   1.000  F
  F9       1.0000 0.79223  0.32210  0.42620  Biso   1.000  F
  F10      1.0000 0.81570  0.76021  0.91051  Biso   1.000  F
  F11      1.0000 0.75274  0.77836  0.89222  Biso   1.000  F
  F12      1.0000 0.79223  0.82210  0.92620  Biso   1.000  F
  F13      1.0000 0.68430  0.73979  0.91051  Biso   1.000  F
  F14      1.0000 0.74726  0.72164  0.89222  Biso   1.000  F
  F15      1.0000 0.70777  0.67790  0.92620  Biso   1.000  F
  F16      1.0000 0.68430  0.23979  0.41051  Biso   1.000  F
  F17      1.0000 0.74726  0.22164  0.39222  Biso   1.000  F
  F18      1.0000 0.70777  0.17790  0.42620  Biso   1.000  F
  F19      1.0000 0.18430  0.73979  0.41051  Biso   1.000  F
  F20      1.0000 0.24726  0.72164  0.39222  Biso   1.000  F
  F21      1.0000 0.20777  0.67790  0.42620  Biso   1.000  F
  F22      1.0000 0.18430  0.23979  0.91051  Biso   1.000  F
  F23      1.0000 0.24726  0.22164  0.89222  Biso   1.000  F
  F24      1.0000 0.20777  0.17790  0.92620  Biso   1.000  F
  F25      1.0000 0.68430  0.26021  0.08949  Biso   1.000  F
  F26      1.0000 0.74726  0.27836  0.10778  Biso   1.000  F
  F27      1.0000 0.70777  0.32210  0.07380  Biso   1.000  F
  F28      1.0000 0.68430  0.76021  0.58949  Biso   1.000  F
  F29      1.0000 0.74726  0.77836  0.60778  Biso   1.000  F
  F30      1.0000 0.70777  0.82210  0.57380  Biso   1.000  F
  F31      1.0000 0.18430  0.26021  0.58949  Biso   1.000  F
  F32      1.0000 0.24726  0.27836  0.60778  Biso   1.000  F
  F33      1.0000 0.20777  0.32210  0.57380  Biso   1.000  F
  F34      1.0000 0.18430  0.76021  0.08949  Biso   1.000  F
  F35      1.0000 0.24726  0.77836  0.10778  Biso   1.000  F
  F36      1.0000 0.20777  0.82210  0.07380  Biso   1.000  F
  F37      1.0000 0.31570  0.73979  0.08949  Biso   1.000  F
  F38      1.0000 0.25274  0.72164  0.10778  Biso   1.000  F
  F39      1.0000 0.29223  0.67790  0.07380  Biso   1.000  F
  F40      1.0000 0.31570  0.23979  0.58949  Biso   1.000  F
  F41      1.0000 0.25274  0.22164  0.60778  Biso   1.000  F
  F42      1.0000 0.29223  0.17790  0.57380  Biso   1.000  F
  F43      1.0000 0.81570  0.73979  0.58949  Biso   1.000  F
  F44      1.0000 0.75274  0.72164  0.60778  Biso   1.000  F
  F45      1.0000 0.79223  0.67790  0.57380  Biso   1.000  F
  F46      1.0000 0.81570  0.23979  0.08949  Biso   1.000  F
  F47      1.0000 0.75274  0.22164  0.10778  Biso   1.000  F
  F48      1.0000 0.79223  0.17790  0.07380  Biso   1.000  F
  F49      1.0000 0.91051  0.31570  0.26021  Biso   1.000  F
  F50      1.0000 0.89222  0.25274  0.27836  Biso   1.000  F
  F51      1.0000 0.92620  0.29223  0.32210  Biso   1.000  F
  F52      1.0000 0.91051  0.81570  0.76021  Biso   1.000  F
  F53      1.0000 0.89222  0.75274  0.77836  Biso   1.000  F
  F54      1.0000 0.92620  0.79223  0.82210  Biso   1.000  F
  F55      1.0000 0.41051  0.31570  0.76021  Biso   1.000  F
  F56      1.0000 0.39222  0.25274  0.77836  Biso   1.000  F
  F57      1.0000 0.42620  0.29223  0.82210  Biso   1.000  F
  F58      1.0000 0.41051  0.81570  0.26021  Biso   1.000  F
  F59      1.0000 0.39222  0.75274  0.27836  Biso   1.000  F
  F60      1.0000 0.42620  0.79223  0.32210  Biso   1.000  F
  F61      1.0000 0.91051  0.68430  0.73979  Biso   1.000  F
  F62      1.0000 0.89222  0.74726  0.72164  Biso   1.000  F
  F63      1.0000 0.92620  0.70777  0.67790  Biso   1.000  F
  F64      1.0000 0.91051  0.18430  0.23979  Biso   1.000  F
  F65      1.0000 0.89222  0.24726  0.22164  Biso   1.000  F
  F66      1.0000 0.92620  0.20777  0.17790  Biso   1.000  F
  F67      1.0000 0.41051  0.68430  0.23979  Biso   1.000  F
  F68      1.0000 0.39222  0.74726  0.22164  Biso   1.000  F
  F69      1.0000 0.42620  0.70777  0.17790  Biso   1.000  F
  F70      1.0000 0.41051  0.18430  0.73979  Biso   1.000  F
  F71      1.0000 0.39222  0.24726  0.72164  Biso   1.000  F
  F72      1.0000 0.42620  0.20777  0.67790  Biso   1.000  F
  F73      1.0000 0.08949  0.68430  0.26021  Biso   1.000  F
  F74      1.0000 0.10778  0.74726  0.27836  Biso   1.000  F
  F75      1.0000 0.07380  0.70777  0.32210  Biso   1.000  F
  F76      1.0000 0.08949  0.18430  0.76021  Biso   1.000  F
  F77      1.0000 0.10778  0.24726  0.77836  Biso   1.000  F
  F78      1.0000 0.07380  0.20777  0.82210  Biso   1.000  F
  F79      1.0000 0.58949  0.68430  0.76021  Biso   1.000  F
  F80      1.0000 0.60778  0.74726  0.77836  Biso   1.000  F
  F81      1.0000 0.57380  0.70777  0.82210  Biso   1.000  F
  F82      1.0000 0.58949  0.18430  0.26021  Biso   1.000  F
  F83      1.0000 0.60778  0.24726  0.27836  Biso   1.000  F
  F84      1.0000 0.57380  0.20777  0.32210  Biso   1.000  F
  F85      1.0000 0.08949  0.31570  0.73979  Biso   1.000  F
  F86      1.0000 0.10778  0.25274  0.72164  Biso   1.000  F
  F87      1.0000 0.07380  0.29223  0.67790  Biso   1.000  F
  F88      1.0000 0.08949  0.81570  0.23979  Biso   1.000  F
  F89      1.0000 0.10778  0.75274  0.22164  Biso   1.000  F
  F90      1.0000 0.07380  0.79223  0.17790  Biso   1.000  F
  F91      1.0000 0.58949  0.31570  0.23979  Biso   1.000  F
  F92      1.0000 0.60778  0.25274  0.22164  Biso   1.000  F
  F93      1.0000 0.57380  0.29223  0.17790  Biso   1.000  F
  F94      1.0000 0.58949  0.81570  0.73979  Biso   1.000  F
  F95      1.0000 0.60778  0.75274  0.72164  Biso   1.000  F
  F96      1.0000 0.57380  0.79223  0.67790  Biso   1.000  F
  F97      1.0000 0.26021  0.91051  0.31570  Biso   1.000  F
  F98      1.0000 0.27836  0.89222  0.25274  Biso   1.000  F
  F99      1.0000 0.32210  0.92620  0.29223  Biso   1.000  F
  F100     1.0000 0.26021  0.41051  0.81570  Biso   1.000  F
  F101     1.0000 0.27836  0.39222  0.75274  Biso   1.000  F
  F102     1.0000 0.32210  0.42620  0.79223  Biso   1.000  F
  F103     1.0000 0.76021  0.91051  0.81570  Biso   1.000  F
  F104     1.0000 0.77836  0.89222  0.75274  Biso   1.000  F
  F105     1.0000 0.82210  0.92620  0.79223  Biso   1.000  F
  F106     1.0000 0.76021  0.41051  0.31570  Biso   1.000  F
  F107     1.0000 0.77836  0.39222  0.25274  Biso   1.000  F
  F108     1.0000 0.82210  0.42620  0.29223  Biso   1.000  F
  F109     1.0000 0.73979  0.91051  0.68430  Biso   1.000  F
  F110     1.0000 0.72164  0.89222  0.74726  Biso   1.000  F
  F111     1.0000 0.67790  0.92620  0.70777  Biso   1.000  F
  F112     1.0000 0.73979  0.41051  0.18430  Biso   1.000  F
  F113     1.0000 0.72164  0.39222  0.24726  Biso   1.000  F
  F114     1.0000 0.67790  0.42620  0.20777  Biso   1.000  F
  F115     1.0000 0.23979  0.91051  0.18430  Biso   1.000  F
  F116     1.0000 0.22164  0.89222  0.24726  Biso   1.000  F
  F117     1.0000 0.17790  0.92620  0.20777  Biso   1.000  F
  F118     1.0000 0.23979  0.41051  0.68430  Biso   1.000  F
  F119     1.0000 0.22164  0.39222  0.74726  Biso   1.000  F
  F120     1.0000 0.17790  0.42620  0.70777  Biso   1.000  F
  F121     1.0000 0.26021  0.08949  0.68430  Biso   1.000  F
  F122     1.0000 0.27836  0.10778  0.74726  Biso   1.000  F
  F123     1.0000 0.32210  0.07380  0.70777  Biso   1.000  F
  F124     1.0000 0.26021  0.58949  0.18430  Biso   1.000  F
  F125     1.0000 0.27836  0.60778  0.24726  Biso   1.000  F
  F126     1.0000 0.32210  0.57380  0.20777  Biso   1.000  F
  F127     1.0000 0.76021  0.08949  0.18430  Biso   1.000  F
  F128     1.0000 0.77836  0.10778  0.24726  Biso   1.000  F
  F129     1.0000 0.82210  0.07380  0.20777  Biso   1.000  F
  F130     1.0000 0.76021  0.58949  0.68430  Biso   1.000  F
  F131     1.0000 0.77836  0.60778  0.74726  Biso   1.000  F
  F132     1.0000 0.82210  0.57380  0.70777  Biso   1.000  F
  F133     1.0000 0.73979  0.08949  0.31570  Biso   1.000  F
  F134     1.0000 0.72164  0.10778  0.25274  Biso   1.000  F
  F135     1.0000 0.67790  0.07380  0.29223  Biso   1.000  F
  F136     1.0000 0.73979  0.58949  0.81570  Biso   1.000  F
  F137     1.0000 0.72164  0.60778  0.75274  Biso   1.000  F
  F138     1.0000 0.67790  0.57380  0.79223  Biso   1.000  F
  F139     1.0000 0.23979  0.08949  0.81570  Biso   1.000  F
  F140     1.0000 0.22164  0.10778  0.75274  Biso   1.000  F
  F141     1.0000 0.17790  0.07380  0.79223  Biso   1.000  F
  F142     1.0000 0.23979  0.58949  0.31570  Biso   1.000  F
  F143     1.0000 0.22164  0.60778  0.25274  Biso   1.000  F
  F144     1.0000 0.17790  0.57380  0.29223  Biso   1.000  F
  F145     1.0000 0.26021  0.31570  0.08949  Biso   1.000  F
  F146     1.0000 0.27836  0.25274  0.10778  Biso   1.000  F
  F147     1.0000 0.32210  0.29223  0.07380  Biso   1.000  F
  F148     1.0000 0.26021  0.81570  0.58949  Biso   1.000  F
  F149     1.0000 0.27836  0.75274  0.60778  Biso   1.000  F
  F150     1.0000 0.32210  0.79223  0.57380  Biso   1.000  F
  F151     1.0000 0.76021  0.31570  0.58949  Biso   1.000  F
  F152     1.0000 0.77836  0.25274  0.60778  Biso   1.000  F
  F153     1.0000 0.82210  0.29223  0.57380  Biso   1.000  F
  F154     1.0000 0.76021  0.81570  0.08949  Biso   1.000  F
  F155     1.0000 0.77836  0.75274  0.10778  Biso   1.000  F
  F156     1.0000 0.82210  0.79223  0.07380  Biso   1.000  F
  F157     1.0000 0.73979  0.68430  0.08949  Biso   1.000  F
  F158     1.0000 0.72164  0.74726  0.10778  Biso   1.000  F
  F159     1.0000 0.67790  0.70777  0.07380  Biso   1.000  F
  F160     1.0000 0.73979  0.18430  0.58949  Biso   1.000  F
  F161     1.0000 0.72164  0.24726  0.60778  Biso   1.000  F
  F162     1.0000 0.67790  0.20777  0.57380  Biso   1.000  F
  F163     1.0000 0.23979  0.68430  0.58949  Biso   1.000  F
  F164     1.0000 0.22164  0.74726  0.60778  Biso   1.000  F
  F165     1.0000 0.17790  0.70777  0.57380  Biso   1.000  F
  F166     1.0000 0.23979  0.18430  0.08949  Biso   1.000  F
  F167     1.0000 0.22164  0.24726  0.10778  Biso   1.000  F
  F168     1.0000 0.17790  0.20777  0.07380  Biso   1.000  F
  F169     1.0000 0.26021  0.68430  0.91051  Biso   1.000  F
  F170     1.0000 0.27836  0.74726  0.89222  Biso   1.000  F
  F171     1.0000 0.32210  0.70777  0.92620  Biso   1.000  F
  F172     1.0000 0.26021  0.18430  0.41051  Biso   1.000  F
  F173     1.0000 0.27836  0.24726  0.39222  Biso   1.000  F
  F174     1.0000 0.32210  0.20777  0.42620  Biso   1.000  F
  F175     1.0000 0.76021  0.68430  0.41051  Biso   1.000  F
  F176     1.0000 0.77836  0.74726  0.39222  Biso   1.000  F
  F177     1.0000 0.82210  0.70777  0.42620  Biso   1.000  F
  F178     1.0000 0.76021  0.18430  0.91051  Biso   1.000  F
  F179     1.0000 0.77836  0.24726  0.89222  Biso   1.000  F
  F180     1.0000 0.82210  0.20777  0.92620  Biso   1.000  F
  F181     1.0000 0.73979  0.31570  0.91051  Biso   1.000  F
  F182     1.0000 0.72164  0.25274  0.89222  Biso   1.000  F
  F183     1.0000 0.67790  0.29223  0.92620  Biso   1.000  F
  F184     1.0000 0.73979  0.81570  0.41051  Biso   1.000  F
  F185     1.0000 0.72164  0.75274  0.39222  Biso   1.000  F
  F186     1.0000 0.67790  0.79223  0.42620  Biso   1.000  F
  F187     1.0000 0.23979  0.31570  0.41051  Biso   1.000  F
  F188     1.0000 0.22164  0.25274  0.39222  Biso   1.000  F
  F189     1.0000 0.17790  0.29223  0.42620  Biso   1.000  F
  F190     1.0000 0.23979  0.81570  0.91051  Biso   1.000  F
  F191     1.0000 0.22164  0.75274  0.89222  Biso   1.000  F
  F192     1.0000 0.17790  0.79223  0.92620  Biso   1.000  F
  F193     1.0000 0.31570  0.91051  0.73979  Biso   1.000  F
  F194     1.0000 0.25274  0.89222  0.72164  Biso   1.000  F
  F195     1.0000 0.29223  0.92620  0.67790  Biso   1.000  F
  F196     1.0000 0.31570  0.41051  0.23979  Biso   1.000  F
  F197     1.0000 0.25274  0.39222  0.22164  Biso   1.000  F
  F198     1.0000 0.29223  0.42620  0.17790  Biso   1.000  F
  F199     1.0000 0.81570  0.91051  0.23979  Biso   1.000  F
  F200     1.0000 0.75274  0.89222  0.22164  Biso   1.000  F
  F201     1.0000 0.79223  0.92620  0.17790  Biso   1.000  F
  F202     1.0000 0.81570  0.41051  0.73979  Biso   1.000  F
  F203     1.0000 0.75274  0.39222  0.72164  Biso   1.000  F
  F204     1.0000 0.79223  0.42620  0.67790  Biso   1.000  F
  F205     1.0000 0.68430  0.91051  0.26021  Biso   1.000  F
  F206     1.0000 0.74726  0.89222  0.27836  Biso   1.000  F
  F207     1.0000 0.70777  0.92620  0.32210  Biso   1.000  F
  F208     1.0000 0.68430  0.41051  0.76021  Biso   1.000  F
  F209     1.0000 0.74726  0.39222  0.77836  Biso   1.000  F
  F210     1.0000 0.70777  0.42620  0.82210  Biso   1.000  F
  F211     1.0000 0.18430  0.91051  0.76021  Biso   1.000  F
  F212     1.0000 0.24726  0.89222  0.77836  Biso   1.000  F
  F213     1.0000 0.20777  0.92620  0.82210  Biso   1.000  F
  F214     1.0000 0.18430  0.41051  0.26021  Biso   1.000  F
  F215     1.0000 0.24726  0.39222  0.27836  Biso   1.000  F
  F216     1.0000 0.20777  0.42620  0.32210  Biso   1.000  F
  F217     1.0000 0.68430  0.08949  0.73979  Biso   1.000  F
  F218     1.0000 0.74726  0.10778  0.72164  Biso   1.000  F
  F219     1.0000 0.70777  0.07380  0.67790  Biso   1.000  F
  F220     1.0000 0.68430  0.58949  0.23979  Biso   1.000  F
  F221     1.0000 0.74726  0.60778  0.22164  Biso   1.000  F
  F222     1.0000 0.70777  0.57380  0.17790  Biso   1.000  F
  F223     1.0000 0.18430  0.08949  0.23979  Biso   1.000  F
  F224     1.0000 0.24726  0.10778  0.22164  Biso   1.000  F
  F225     1.0000 0.20777  0.07380  0.17790  Biso   1.000  F
  F226     1.0000 0.18430  0.58949  0.73979  Biso   1.000  F
  F227     1.0000 0.24726  0.60778  0.72164  Biso   1.000  F
  F228     1.0000 0.20777  0.57380  0.67790  Biso   1.000  F
  F229     1.0000 0.31570  0.08949  0.26021  Biso   1.000  F
  F230     1.0000 0.25274  0.10778  0.27836  Biso   1.000  F
  F231     1.0000 0.29223  0.07380  0.32210  Biso   1.000  F
  F232     1.0000 0.31570  0.58949  0.76021  Biso   1.000  F
  F233     1.0000 0.25274  0.60778  0.77836  Biso   1.000  F
  F234     1.0000 0.29223  0.57380  0.82210  Biso   1.000  F
  F235     1.0000 0.81570  0.08949  0.76021  Biso   1.000  F
  F236     1.0000 0.75274  0.10778  0.77836  Biso   1.000  F
  F237     1.0000 0.79223  0.07380  0.82210  Biso   1.000  F
  F238     1.0000 0.81570  0.58949  0.26021  Biso   1.000  F
  F239     1.0000 0.75274  0.60778  0.27836  Biso   1.000  F
  F240     1.0000 0.79223  0.57380  0.32210  Biso   1.000  F
  F241     1.0000 0.91051  0.26021  0.68430  Biso   1.000  F
  F242     1.0000 0.89222  0.27836  0.74726  Biso   1.000  F
  F243     1.0000 0.92620  0.32210  0.70777  Biso   1.000  F
  F244     1.0000 0.91051  0.76021  0.18430  Biso   1.000  F
  F245     1.0000 0.89222  0.77836  0.24726  Biso   1.000  F
  F246     1.0000 0.92620  0.82210  0.20777  Biso   1.000  F
  F247     1.0000 0.41051  0.26021  0.18430  Biso   1.000  F
  F248     1.0000 0.39222  0.27836  0.24726  Biso   1.000  F
  F249     1.0000 0.42620  0.32210  0.20777  Biso   1.000  F
  F250     1.0000 0.41051  0.76021  0.68430  Biso   1.000  F
  F251     1.0000 0.39222  0.77836  0.74726  Biso   1.000  F
  F252     1.0000 0.42620  0.82210  0.70777  Biso   1.000  F
  F253     1.0000 0.91051  0.73979  0.31570  Biso   1.000  F
  F254     1.0000 0.89222  0.72164  0.25274  Biso   1.000  F
  F255     1.0000 0.92620  0.67790  0.29223  Biso   1.000  F
  F256     1.0000 0.91051  0.23979  0.81570  Biso   1.000  F
  F257     1.0000 0.89222  0.22164  0.75274  Biso   1.000  F
  F258     1.0000 0.92620  0.17790  0.79223  Biso   1.000  F
  F259     1.0000 0.41051  0.73979  0.81570  Biso   1.000  F
  F260     1.0000 0.39222  0.72164  0.75274  Biso   1.000  F
  F261     1.0000 0.42620  0.67790  0.79223  Biso   1.000  F
  F262     1.0000 0.41051  0.23979  0.31570  Biso   1.000  F
  F263     1.0000 0.39222  0.22164  0.25274  Biso   1.000  F
  F264     1.0000 0.42620  0.17790  0.29223  Biso   1.000  F
  F265     1.0000 0.08949  0.26021  0.31570  Biso   1.000  F
  F266     1.0000 0.10778  0.27836  0.25274  Biso   1.000  F
  F267     1.0000 0.07380  0.32210  0.29223  Biso   1.000  F
  F268     1.0000 0.08949  0.76021  0.81570  Biso   1.000  F
  F269     1.0000 0.10778  0.77836  0.75274  Biso   1.000  F
  F270     1.0000 0.07380  0.82210  0.79223  Biso   1.000  F
  F271     1.0000 0.58949  0.26021  0.81570  Biso   1.000  F
  F272     1.0000 0.60778  0.27836  0.75274  Biso   1.000  F
  F273     1.0000 0.57380  0.32210  0.79223  Biso   1.000  F
  F274     1.0000 0.58949  0.76021  0.31570  Biso   1.000  F
  F275     1.0000 0.60778  0.77836  0.25274  Biso   1.000  F
  F276     1.0000 0.57380  0.82210  0.29223  Biso   1.000  F
  F277     1.0000 0.08949  0.73979  0.68430  Biso   1.000  F
  F278     1.0000 0.10778  0.72164  0.74726  Biso   1.000  F
  F279     1.0000 0.07380  0.67790  0.70777  Biso   1.000  F
  F280     1.0000 0.08949  0.23979  0.18430  Biso   1.000  F
  F281     1.0000 0.10778  0.22164  0.24726  Biso   1.000  F
  F282     1.0000 0.07380  0.17790  0.20777  Biso   1.000  F
  F283     1.0000 0.58949  0.73979  0.18430  Biso   1.000  F
  F284     1.0000 0.60778  0.72164  0.24726  Biso   1.000  F
  F285     1.0000 0.57380  0.67790  0.20777  Biso   1.000  F
  F286     1.0000 0.58949  0.23979  0.68430  Biso   1.000  F
  F287     1.0000 0.60778  0.22164  0.74726  Biso   1.000  F
  F288     1.0000 0.57380  0.17790  0.70777  Biso   1.000  F
  F289     1.0000 0.68430  0.73979  0.08949  Biso   1.000  F
  F290     1.0000 0.74726  0.72164  0.10778  Biso   1.000  F
  F291     1.0000 0.70777  0.67790  0.07380  Biso   1.000  F
  F292     1.0000 0.68430  0.23979  0.58949  Biso   1.000  F
  F293     1.0000 0.74726  0.22164  0.60778  Biso   1.000  F
  F294     1.0000 0.70777  0.17790  0.57380  Biso   1.000  F
  F295     1.0000 0.18430  0.73979  0.58949  Biso   1.000  F
  F296     1.0000 0.24726  0.72164  0.60778  Biso   1.000  F
  F297     1.0000 0.20777  0.67790  0.57380  Biso   1.000  F
  F298     1.0000 0.18430  0.23979  0.08949  Biso   1.000  F
  F299     1.0000 0.24726  0.22164  0.10778  Biso   1.000  F
  F300     1.0000 0.20777  0.17790  0.07380  Biso   1.000  F
  F301     1.0000 0.31570  0.26021  0.08949  Biso   1.000  F
  F302     1.0000 0.25274  0.27836  0.10778  Biso   1.000  F
  F303     1.0000 0.29223  0.32210  0.07380  Biso   1.000  F
  F304     1.0000 0.31570  0.76021  0.58949  Biso   1.000  F
  F305     1.0000 0.25274  0.77836  0.60778  Biso   1.000  F
  F306     1.0000 0.29223  0.82210  0.57380  Biso   1.000  F
  F307     1.0000 0.81570  0.26021  0.58949  Biso   1.000  F
  F308     1.0000 0.75274  0.27836  0.60778  Biso   1.000  F
  F309     1.0000 0.79223  0.32210  0.57380  Biso   1.000  F
  F310     1.0000 0.81570  0.76021  0.08949  Biso   1.000  F
  F311     1.0000 0.75274  0.77836  0.10778  Biso   1.000  F
  F312     1.0000 0.79223  0.82210  0.07380  Biso   1.000  F
  F313     1.0000 0.31570  0.73979  0.91051  Biso   1.000  F
  F314     1.0000 0.25274  0.72164  0.89222  Biso   1.000  F
  F315     1.0000 0.29223  0.67790  0.92620  Biso   1.000  F
  F316     1.0000 0.31570  0.23979  0.41051  Biso   1.000  F
  F317     1.0000 0.25274  0.22164  0.39222  Biso   1.000  F
  F318     1.0000 0.29223  0.17790  0.42620  Biso   1.000  F
  F319     1.0000 0.81570  0.73979  0.41051  Biso   1.000  F
  F320     1.0000 0.75274  0.72164  0.39222  Biso   1.000  F
  F321     1.0000 0.79223  0.67790  0.42620  Biso   1.000  F
  F322     1.0000 0.81570  0.23979  0.91051  Biso   1.000  F
  F323     1.0000 0.75274  0.22164  0.89222  Biso   1.000  F
  F324     1.0000 0.79223  0.17790  0.92620  Biso   1.000  F
  F325     1.0000 0.68430  0.26021  0.91051  Biso   1.000  F
  F326     1.0000 0.74726  0.27836  0.89222  Biso   1.000  F
  F327     1.0000 0.70777  0.32210  0.92620  Biso   1.000  F
  F328     1.0000 0.68430  0.76021  0.41051  Biso   1.000  F
  F329     1.0000 0.74726  0.77836  0.39222  Biso   1.000  F
  F330     1.0000 0.70777  0.82210  0.42620  Biso   1.000  F
  F331     1.0000 0.18430  0.26021  0.41051  Biso   1.000  F
  F332     1.0000 0.24726  0.27836  0.39222  Biso   1.000  F
  F333     1.0000 0.20777  0.32210  0.42620  Biso   1.000  F
  F334     1.0000 0.18430  0.76021  0.91051  Biso   1.000  F
  F335     1.0000 0.24726  0.77836  0.89222  Biso   1.000  F
  F336     1.0000 0.20777  0.82210  0.92620  Biso   1.000  F
  F337     1.0000 0.08949  0.68430  0.73979  Biso   1.000  F
  F338     1.0000 0.10778  0.74726  0.72164  Biso   1.000  F
  F339     1.0000 0.07380  0.70777  0.67790  Biso   1.000  F
  F340     1.0000 0.08949  0.18430  0.23979  Biso   1.000  F
  F341     1.0000 0.10778  0.24726  0.22164  Biso   1.000  F
  F342     1.0000 0.07380  0.20777  0.17790  Biso   1.000  F
  F343     1.0000 0.58949  0.68430  0.23979  Biso   1.000  F
  F344     1.0000 0.60778  0.74726  0.22164  Biso   1.000  F
  F345     1.0000 0.57380  0.70777  0.17790  Biso   1.000  F
  F346     1.0000 0.58949  0.18430  0.73979  Biso   1.000  F
  F347     1.0000 0.60778  0.24726  0.72164  Biso   1.000  F
  F348     1.0000 0.57380  0.20777  0.67790  Biso   1.000  F
  F349     1.0000 0.08949  0.31570  0.26021  Biso   1.000  F
  F350     1.0000 0.10778  0.25274  0.27836  Biso   1.000  F
  F351     1.0000 0.07380  0.29223  0.32210  Biso   1.000  F
  F352     1.0000 0.08949  0.81570  0.76021  Biso   1.000  F
  F353     1.0000 0.10778  0.75274  0.77836  Biso   1.000  F
  F354     1.0000 0.07380  0.79223  0.82210  Biso   1.000  F
  F355     1.0000 0.58949  0.31570  0.76021  Biso   1.000  F
  F356     1.0000 0.60778  0.25274  0.77836  Biso   1.000  F
  F357     1.0000 0.57380  0.29223  0.82210  Biso   1.000  F
  F358     1.0000 0.58949  0.81570  0.26021  Biso   1.000  F
  F359     1.0000 0.60778  0.75274  0.27836  Biso   1.000  F
  F360     1.0000 0.57380  0.79223  0.32210  Biso   1.000  F
  F361     1.0000 0.91051  0.31570  0.73979  Biso   1.000  F
  F362     1.0000 0.89222  0.25274  0.72164  Biso   1.000  F
  F363     1.0000 0.92620  0.29223  0.67790  Biso   1.000  F
  F364     1.0000 0.91051  0.81570  0.23979  Biso   1.000  F
  F365     1.0000 0.89222  0.75274  0.22164  Biso   1.000  F
  F366     1.0000 0.92620  0.79223  0.17790  Biso   1.000  F
  F367     1.0000 0.41051  0.31570  0.23979  Biso   1.000  F
  F368     1.0000 0.39222  0.25274  0.22164  Biso   1.000  F
  F369     1.0000 0.42620  0.29223  0.17790  Biso   1.000  F
  F370     1.0000 0.41051  0.81570  0.73979  Biso   1.000  F
  F371     1.0000 0.39222  0.75274  0.72164  Biso   1.000  F
  F372     1.0000 0.42620  0.79223  0.67790  Biso   1.000  F
  F373     1.0000 0.91051  0.68430  0.26021  Biso   1.000  F
  F374     1.0000 0.89222  0.74726  0.27836  Biso   1.000  F
  F375     1.0000 0.92620  0.70777  0.32210  Biso   1.000  F
  F376     1.0000 0.91051  0.18430  0.76021  Biso   1.000  F
  F377     1.0000 0.89222  0.24726  0.77836  Biso   1.000  F
  F378     1.0000 0.92620  0.20777  0.82210  Biso   1.000  F
  F379     1.0000 0.41051  0.68430  0.76021  Biso   1.000  F
  F380     1.0000 0.39222  0.74726  0.77836  Biso   1.000  F
  F381     1.0000 0.42620  0.70777  0.82210  Biso   1.000  F
  F382     1.0000 0.41051  0.18430  0.26021  Biso   1.000  F
  F383     1.0000 0.39222  0.24726  0.27836  Biso   1.000  F
  F384     1.0000 0.42620  0.20777  0.32210  Biso   1.000  F
  F385     1.0000 0.73979  0.08949  0.68430  Biso   1.000  F
  F386     1.0000 0.72164  0.10778  0.74726  Biso   1.000  F
  F387     1.0000 0.67790  0.07380  0.70777  Biso   1.000  F
  F388     1.0000 0.73979  0.58949  0.18430  Biso   1.000  F
  F389     1.0000 0.72164  0.60778  0.24726  Biso   1.000  F
  F390     1.0000 0.67790  0.57380  0.20777  Biso   1.000  F
  F391     1.0000 0.23979  0.08949  0.18430  Biso   1.000  F
  F392     1.0000 0.22164  0.10778  0.24726  Biso   1.000  F
  F393     1.0000 0.17790  0.07380  0.20777  Biso   1.000  F
  F394     1.0000 0.23979  0.58949  0.68430  Biso   1.000  F
  F395     1.0000 0.22164  0.60778  0.74726  Biso   1.000  F
  F396     1.0000 0.17790  0.57380  0.70777  Biso   1.000  F
  F397     1.0000 0.26021  0.08949  0.31570  Biso   1.000  F
  F398     1.0000 0.27836  0.10778  0.25274  Biso   1.000  F
  F399     1.0000 0.32210  0.07380  0.29223  Biso   1.000  F
  F400     1.0000 0.26021  0.58949  0.81570  Biso   1.000  F
  F401     1.0000 0.27836  0.60778  0.75274  Biso   1.000  F
  F402     1.0000 0.32210  0.57380  0.79223  Biso   1.000  F
  F403     1.0000 0.76021  0.08949  0.81570  Biso   1.000  F
  F404     1.0000 0.77836  0.10778  0.75274  Biso   1.000  F
  F405     1.0000 0.82210  0.07380  0.79223  Biso   1.000  F
  F406     1.0000 0.76021  0.58949  0.31570  Biso   1.000  F
  F407     1.0000 0.77836  0.60778  0.25274  Biso   1.000  F
  F408     1.0000 0.82210  0.57380  0.29223  Biso   1.000  F
  F409     1.0000 0.73979  0.91051  0.31570  Biso   1.000  F
  F410     1.0000 0.72164  0.89222  0.25274  Biso   1.000  F
  F411     1.0000 0.67790  0.92620  0.29223  Biso   1.000  F
  F412     1.0000 0.73979  0.41051  0.81570  Biso   1.000  F
  F413     1.0000 0.72164  0.39222  0.75274  Biso   1.000  F
  F414     1.0000 0.67790  0.42620  0.79223  Biso   1.000  F
  F415     1.0000 0.23979  0.91051  0.81570  Biso   1.000  F
  F416     1.0000 0.22164  0.89222  0.75274  Biso   1.000  F
  F417     1.0000 0.17790  0.92620  0.79223  Biso   1.000  F
  F418     1.0000 0.23979  0.41051  0.31570  Biso   1.000  F
  F419     1.0000 0.22164  0.39222  0.25274  Biso   1.000  F
  F420     1.0000 0.17790  0.42620  0.29223  Biso   1.000  F
  F421     1.0000 0.26021  0.91051  0.68430  Biso   1.000  F
  F422     1.0000 0.27836  0.89222  0.74726  Biso   1.000  F
  F423     1.0000 0.32210  0.92620  0.70777  Biso   1.000  F
  F424     1.0000 0.26021  0.41051  0.18430  Biso   1.000  F
  F425     1.0000 0.27836  0.39222  0.24726  Biso   1.000  F
  F426     1.0000 0.32210  0.42620  0.20777  Biso   1.000  F
  F427     1.0000 0.76021  0.91051  0.18430  Biso   1.000  F
  F428     1.0000 0.77836  0.89222  0.24726  Biso   1.000  F
  F429     1.0000 0.82210  0.92620  0.20777  Biso   1.000  F
  F430     1.0000 0.76021  0.41051  0.68430  Biso   1.000  F
  F431     1.0000 0.77836  0.39222  0.74726  Biso   1.000  F
  F432     1.0000 0.82210  0.42620  0.70777  Biso   1.000  F
  F433     1.0000 0.73979  0.68430  0.91051  Biso   1.000  F
  F434     1.0000 0.72164  0.74726  0.89222  Biso   1.000  F
  F435     1.0000 0.67790  0.70777  0.92620  Biso   1.000  F
  F436     1.0000 0.73979  0.18430  0.41051  Biso   1.000  F
  F437     1.0000 0.72164  0.24726  0.39222  Biso   1.000  F
  F438     1.0000 0.67790  0.20777  0.42620  Biso   1.000  F
  F439     1.0000 0.23979  0.68430  0.41051  Biso   1.000  F
  F440     1.0000 0.22164  0.74726  0.39222  Biso   1.000  F
  F441     1.0000 0.17790  0.70777  0.42620  Biso   1.000  F
  F442     1.0000 0.23979  0.18430  0.91051  Biso   1.000  F
  F443     1.0000 0.22164  0.24726  0.89222  Biso   1.000  F
  F444     1.0000 0.17790  0.20777  0.92620  Biso   1.000  F
  F445     1.0000 0.26021  0.31570  0.91051  Biso   1.000  F
  F446     1.0000 0.27836  0.25274  0.89222  Biso   1.000  F
  F447     1.0000 0.32210  0.29223  0.92620  Biso   1.000  F
  F448     1.0000 0.26021  0.81570  0.41051  Biso   1.000  F
  F449     1.0000 0.27836  0.75274  0.39222  Biso   1.000  F
  F450     1.0000 0.32210  0.79223  0.42620  Biso   1.000  F
  F451     1.0000 0.76021  0.31570  0.41051  Biso   1.000  F
  F452     1.0000 0.77836  0.25274  0.39222  Biso   1.000  F
  F453     1.0000 0.82210  0.29223  0.42620  Biso   1.000  F
  F454     1.0000 0.76021  0.81570  0.91051  Biso   1.000  F
  F455     1.0000 0.77836  0.75274  0.89222  Biso   1.000  F
  F456     1.0000 0.82210  0.79223  0.92620  Biso   1.000  F
  F457     1.0000 0.73979  0.31570  0.08949  Biso   1.000  F
  F458     1.0000 0.72164  0.25274  0.10778  Biso   1.000  F
  F459     1.0000 0.67790  0.29223  0.07380  Biso   1.000  F
  F460     1.0000 0.73979  0.81570  0.58949  Biso   1.000  F
  F461     1.0000 0.72164  0.75274  0.60778  Biso   1.000  F
  F462     1.0000 0.67790  0.79223  0.57380  Biso   1.000  F
  F463     1.0000 0.23979  0.31570  0.58949  Biso   1.000  F
  F464     1.0000 0.22164  0.25274  0.60778  Biso   1.000  F
  F465     1.0000 0.17790  0.29223  0.57380  Biso   1.000  F
  F466     1.0000 0.23979  0.81570  0.08949  Biso   1.000  F
  F467     1.0000 0.22164  0.75274  0.10778  Biso   1.000  F
  F468     1.0000 0.17790  0.79223  0.07380  Biso   1.000  F
  F469     1.0000 0.26021  0.68430  0.08949  Biso   1.000  F
  F470     1.0000 0.27836  0.74726  0.10778  Biso   1.000  F
  F471     1.0000 0.32210  0.70777  0.07380  Biso   1.000  F
  F472     1.0000 0.26021  0.18430  0.58949  Biso   1.000  F
  F473     1.0000 0.27836  0.24726  0.60778  Biso   1.000  F
  F474     1.0000 0.32210  0.20777  0.57380  Biso   1.000  F
  F475     1.0000 0.76021  0.68430  0.58949  Biso   1.000  F
  F476     1.0000 0.77836  0.74726  0.60778  Biso   1.000  F
  F477     1.0000 0.82210  0.70777  0.57380  Biso   1.000  F
  F478     1.0000 0.76021  0.18430  0.08949  Biso   1.000  F
  F479     1.0000 0.77836  0.24726  0.10778  Biso   1.000  F
  F480     1.0000 0.82210  0.20777  0.07380  Biso   1.000  F
  F481     1.0000 0.68430  0.08949  0.26021  Biso   1.000  F
  F482     1.0000 0.74726  0.10778  0.27836  Biso   1.000  F
  F483     1.0000 0.70777  0.07380  0.32210  Biso   1.000  F
  F484     1.0000 0.68430  0.58949  0.76021  Biso   1.000  F
  F485     1.0000 0.74726  0.60778  0.77836  Biso   1.000  F
  F486     1.0000 0.70777  0.57380  0.82210  Biso   1.000  F
  F487     1.0000 0.18430  0.08949  0.76021  Biso   1.000  F
  F488     1.0000 0.24726  0.10778  0.77836  Biso   1.000  F
  F489     1.0000 0.20777  0.07380  0.82210  Biso   1.000  F
  F490     1.0000 0.18430  0.58949  0.26021  Biso   1.000  F
  F491     1.0000 0.24726  0.60778  0.27836  Biso   1.000  F
  F492     1.0000 0.20777  0.57380  0.32210  Biso   1.000  F
  F493     1.0000 0.31570  0.08949  0.73979  Biso   1.000  F
  F494     1.0000 0.25274  0.10778  0.72164  Biso   1.000  F
  F495     1.0000 0.29223  0.07380  0.67790  Biso   1.000  F
  F496     1.0000 0.31570  0.58949  0.23979  Biso   1.000  F
  F497     1.0000 0.25274  0.60778  0.22164  Biso   1.000  F
  F498     1.0000 0.29223  0.57380  0.17790  Biso   1.000  F
  F499     1.0000 0.81570  0.08949  0.23979  Biso   1.000  F
  F500     1.0000 0.75274  0.10778  0.22164  Biso   1.000  F
  F501     1.0000 0.79223  0.07380  0.17790  Biso   1.000  F
  F502     1.0000 0.81570  0.58949  0.73979  Biso   1.000  F
  F503     1.0000 0.75274  0.60778  0.72164  Biso   1.000  F
  F504     1.0000 0.79223  0.57380  0.67790  Biso   1.000  F
  F505     1.0000 0.31570  0.91051  0.26021  Biso   1.000  F
  F506     1.0000 0.25274  0.89222  0.27836  Biso   1.000  F
  F507     1.0000 0.29223  0.92620  0.32210  Biso   1.000  F
  F508     1.0000 0.31570  0.41051  0.76021  Biso   1.000  F
  F509     1.0000 0.25274  0.39222  0.77836  Biso   1.000  F
  F510     1.0000 0.29223  0.42620  0.82210  Biso   1.000  F
  F511     1.0000 0.81570  0.91051  0.76021  Biso   1.000  F
  F512     1.0000 0.75274  0.89222  0.77836  Biso   1.000  F
  F513     1.0000 0.79223  0.92620  0.82210  Biso   1.000  F
  F514     1.0000 0.81570  0.41051  0.26021  Biso   1.000  F
  F515     1.0000 0.75274  0.39222  0.27836  Biso   1.000  F
  F516     1.0000 0.79223  0.42620  0.32210  Biso   1.000  F
  F517     1.0000 0.68430  0.91051  0.73979  Biso   1.000  F
  F518     1.0000 0.74726  0.89222  0.72164  Biso   1.000  F
  F519     1.0000 0.70777  0.92620  0.67790  Biso   1.000  F
  F520     1.0000 0.68430  0.41051  0.23979  Biso   1.000  F
  F521     1.0000 0.74726  0.39222  0.22164  Biso   1.000  F
  F522     1.0000 0.70777  0.42620  0.17790  Biso   1.000  F
  F523     1.0000 0.18430  0.91051  0.23979  Biso   1.000  F
  F524     1.0000 0.24726  0.89222  0.22164  Biso   1.000  F
  F525     1.0000 0.20777  0.92620  0.17790  Biso   1.000  F
  F526     1.0000 0.18430  0.41051  0.73979  Biso   1.000  F
  F527     1.0000 0.24726  0.39222  0.72164  Biso   1.000  F
  F528     1.0000 0.20777  0.42620  0.67790  Biso   1.000  F
  F529     1.0000 0.08949  0.73979  0.31570  Biso   1.000  F
  F530     1.0000 0.10778  0.72164  0.25274  Biso   1.000  F
  F531     1.0000 0.07380  0.67790  0.29223  Biso   1.000  F
  F532     1.0000 0.08949  0.23979  0.81570  Biso   1.000  F
  F533     1.0000 0.10778  0.22164  0.75274  Biso   1.000  F
  F534     1.0000 0.07380  0.17790  0.79223  Biso   1.000  F
  F535     1.0000 0.58949  0.73979  0.81570  Biso   1.000  F
  F536     1.0000 0.60778  0.72164  0.75274  Biso   1.000  F
  F537     1.0000 0.57380  0.67790  0.79223  Biso   1.000  F
  F538     1.0000 0.58949  0.23979  0.31570  Biso   1.000  F
  F539     1.0000 0.60778  0.22164  0.25274  Biso   1.000  F
  F540     1.0000 0.57380  0.17790  0.29223  Biso   1.000  F
  F541     1.0000 0.08949  0.26021  0.68430  Biso   1.000  F
  F542     1.0000 0.10778  0.27836  0.74726  Biso   1.000  F
  F543     1.0000 0.07380  0.32210  0.70777  Biso   1.000  F
  F544     1.0000 0.08949  0.76021  0.18430  Biso   1.000  F
  F545     1.0000 0.10778  0.77836  0.24726  Biso   1.000  F
  F546     1.0000 0.07380  0.82210  0.20777  Biso   1.000  F
  F547     1.0000 0.58949  0.26021  0.18430  Biso   1.000  F
  F548     1.0000 0.60778  0.27836  0.24726  Biso   1.000  F
  F549     1.0000 0.57380  0.32210  0.20777  Biso   1.000  F
  F550     1.0000 0.58949  0.76021  0.68430  Biso   1.000  F
  F551     1.0000 0.60778  0.77836  0.74726  Biso   1.000  F
  F552     1.0000 0.57380  0.82210  0.70777  Biso   1.000  F
  F553     1.0000 0.91051  0.73979  0.68430  Biso   1.000  F
  F554     1.0000 0.89222  0.72164  0.74726  Biso   1.000  F
  F555     1.0000 0.92620  0.67790  0.70777  Biso   1.000  F
  F556     1.0000 0.91051  0.23979  0.18430  Biso   1.000  F
  F557     1.0000 0.89222  0.22164  0.24726  Biso   1.000  F
  F558     1.0000 0.92620  0.17790  0.20777  Biso   1.000  F
  F559     1.0000 0.41051  0.73979  0.18430  Biso   1.000  F
  F560     1.0000 0.39222  0.72164  0.24726  Biso   1.000  F
  F561     1.0000 0.42620  0.67790  0.20777  Biso   1.000  F
  F562     1.0000 0.41051  0.23979  0.68430  Biso   1.000  F
  F563     1.0000 0.39222  0.22164  0.74726  Biso   1.000  F
  F564     1.0000 0.42620  0.17790  0.70777  Biso   1.000  F
  F565     1.0000 0.91051  0.26021  0.31570  Biso   1.000  F
  F566     1.0000 0.89222  0.27836  0.25274  Biso   1.000  F
  F567     1.0000 0.92620  0.32210  0.29223  Biso   1.000  F
  F568     1.0000 0.91051  0.76021  0.81570  Biso   1.000  F
  F569     1.0000 0.89222  0.77836  0.75274  Biso   1.000  F
  F570     1.0000 0.92620  0.82210  0.79223  Biso   1.000  F
  F571     1.0000 0.41051  0.26021  0.81570  Biso   1.000  F
  F572     1.0000 0.39222  0.27836  0.75274  Biso   1.000  F
  F573     1.0000 0.42620  0.32210  0.79223  Biso   1.000  F
  F574     1.0000 0.41051  0.76021  0.31570  Biso   1.000  F
  F575     1.0000 0.39222  0.77836  0.25274  Biso   1.000  F
  F576     1.0000 0.42620  0.82210  0.29223  Biso   1.000  F
  Ni1      1.0000 0.04076  0.04076  0.04076  Biso   1.000  Ni
  Ni2      1.0000 0.04076  0.54076  0.54076  Biso   1.000  Ni
  Ni3      1.0000 0.54076  0.04076  0.54076  Biso   1.000  Ni
  Ni4      1.0000 0.54076  0.54076  0.04076  Biso   1.000  Ni
  Ni5      1.0000 0.95924  0.95924  0.04076  Biso   1.000  Ni
  Ni6      1.0000 0.95924  0.45924  0.54076  Biso   1.000  Ni
  Ni7      1.0000 0.45924  0.95924  0.54076  Biso   1.000  Ni
  Ni8      1.0000 0.45924  0.45924  0.04076  Biso   1.000  Ni
  Ni9      1.0000 0.95924  0.04076  0.95924  Biso   1.000  Ni
  Ni10     1.0000 0.95924  0.54076  0.45924  Biso   1.000  Ni
  Ni11     1.0000 0.45924  0.04076  0.45924  Biso   1.000  Ni
  Ni12     1.0000 0.45924  0.54076  0.95924  Biso   1.000  Ni
  Ni13     1.0000 0.04076  0.95924  0.95924  Biso   1.000  Ni
  Ni14     1.0000 0.04076  0.45924  0.45924  Biso   1.000  Ni
  Ni15     1.0000 0.54076  0.95924  0.45924  Biso   1.000  Ni
  Ni16     1.0000 0.54076  0.45924  0.95924  Biso   1.000  Ni
  Ni17     1.0000 0.04076  0.04076  0.95924  Biso   1.000  Ni
  Ni18     1.0000 0.04076  0.54076  0.45924  Biso   1.000  Ni
  Ni19     1.0000 0.54076  0.04076  0.45924  Biso   1.000  Ni
  Ni20     1.0000 0.54076  0.54076  0.95924  Biso   1.000  Ni
  Ni21     1.0000 0.95924  0.95924  0.95924  Biso   1.000  Ni
  Ni22     1.0000 0.95924  0.45924  0.45924  Biso   1.000  Ni
  Ni23     1.0000 0.45924  0.95924  0.45924  Biso   1.000  Ni
  Ni24     1.0000 0.45924  0.45924  0.95924  Biso   1.000  Ni
  Ni25     1.0000 0.04076  0.95924  0.04076  Biso   1.000  Ni
  Ni26     1.0000 0.04076  0.45924  0.54076  Biso   1.000  Ni
  Ni27     1.0000 0.54076  0.95924  0.54076  Biso   1.000  Ni
  Ni28     1.0000 0.54076  0.45924  0.04076  Biso   1.000  Ni
  Ni29     1.0000 0.95924  0.04076  0.04076  Biso   1.000  Ni
  Ni30     1.0000 0.95924  0.54076  0.54076  Biso   1.000  Ni
  Ni31     1.0000 0.45924  0.04076  0.54076  Biso   1.000  Ni
  Ni32     1.0000 0.45924  0.54076  0.04076  Biso   1.000  Ni
  O1       1.0000 0.04707  0.00000  0.00000  Biso   1.000  O
  H1       1.0000 0.07639  0.00000  0.00000  Biso   1.000  H
  O2       1.0000 0.04707  0.50000  0.50000  Biso   1.000  O
  H2       1.0000 0.07639  0.50000  0.50000  Biso   1.000  H
  O3       1.0000 0.54707  0.00000  0.50000  Biso   1.000  O
  H3       1.0000 0.57639  0.00000  0.50000  Biso   1.000  H
  O4       1.0000 0.54707  0.50000  0.00000  Biso   1.000  O
  H4       1.0000 0.57639  0.50000  0.00000  Biso   1.000  H
  O5       1.0000 0.95293  0.00000  0.00000  Biso   1.000  O
  H5       1.0000 0.92361  0.00000  0.00000  Biso   1.000  H
  O6       1.0000 0.95293  0.50000  0.50000  Biso   1.000  O
  H6       1.0000 0.92361  0.50000  0.50000  Biso   1.000  H
  O7       1.0000 0.45293  0.00000  0.50000  Biso   1.000  O
  H7       1.0000 0.42361  0.00000  0.50000  Biso   1.000  H
  O8       1.0000 0.45293  0.50000  0.00000  Biso   1.000  O
  H8       1.0000 0.42361  0.50000  0.00000  Biso   1.000  H
  O9       1.0000 0.00000  0.04707  0.00000  Biso   1.000  O
  H9       1.0000 0.00000  0.07639  0.00000  Biso   1.000  H
  O10      1.0000 0.00000  0.54707  0.50000  Biso   1.000  O
  H10      1.0000 0.00000  0.57639  0.50000  Biso   1.000  H
  O11      1.0000 0.50000  0.04707  0.50000  Biso   1.000  O
  H11      1.0000 0.50000  0.07639  0.50000  Biso   1.000  H
  O12      1.0000 0.50000  0.54707  0.00000  Biso   1.000  O
  H12      1.0000 0.50000  0.57639  0.00000  Biso   1.000  H
  O13      1.0000 0.00000  0.95293  0.00000  Biso   1.000  O
  H13      1.0000 0.00000  0.92361  0.00000  Biso   1.000  H
  O14      1.0000 0.00000  0.45293  0.50000  Biso   1.000  O
  H14      1.0000 0.00000  0.42361  0.50000  Biso   1.000  H
  O15      1.0000 0.50000  0.95293  0.50000  Biso   1.000  O
  H15      1.0000 0.50000  0.92361  0.50000  Biso   1.000  H
  O16      1.0000 0.50000  0.45293  0.00000  Biso   1.000  O
  H16      1.0000 0.50000  0.42361  0.00000  Biso   1.000  H
  O17      1.0000 0.00000  0.00000  0.04707  Biso   1.000  O
  H17      1.0000 0.00000  0.00000  0.07639  Biso   1.000  H
  O18      1.0000 0.00000  0.50000  0.54707  Biso   1.000  O
  H18      1.0000 0.00000  0.50000  0.57639  Biso   1.000  H
  O19      1.0000 0.50000  0.00000  0.54707  Biso   1.000  O
  H19      1.0000 0.50000  0.00000  0.57639  Biso   1.000  H
  O20      1.0000 0.50000  0.50000  0.04707  Biso   1.000  O
  H20      1.0000 0.50000  0.50000  0.07639  Biso   1.000  H
  O21      1.0000 0.00000  0.00000  0.95293  Biso   1.000  O
  H21      1.0000 0.00000  0.00000  0.92361  Biso   1.000  H
  O22      1.0000 0.00000  0.50000  0.45293  Biso   1.000  O
  H22      1.0000 0.00000  0.50000  0.42361  Biso   1.000  H
  O23      1.0000 0.50000  0.00000  0.45293  Biso   1.000  O
  H23      1.0000 0.50000  0.00000  0.42361  Biso   1.000  H
  O24      1.0000 0.50000  0.50000  0.95293  Biso   1.000  O
  H24      1.0000 0.50000  0.50000  0.92361  Biso   1.000  H
  C1       1.0000 0.28034  0.28034  0.00000  Biso   1.000  C
  C2       1.0000 0.31307  0.31307  0.00000  Biso   1.000  C
  C3       1.0000 0.34013  0.34013  0.00000  Biso   1.000  C
  C4       1.0000 0.37287  0.37287  0.00000  Biso   1.000  C
  C5       1.0000 0.28034  0.78034  0.50000  Biso   1.000  C
  C6       1.0000 0.31307  0.81307  0.50000  Biso   1.000  C
  C7       1.0000 0.34013  0.84013  0.50000  Biso   1.000  C
  C8       1.0000 0.37287  0.87287  0.50000  Biso   1.000  C
  C9       1.0000 0.78034  0.28034  0.50000  Biso   1.000  C
  C10      1.0000 0.81307  0.31307  0.50000  Biso   1.000  C
  C11      1.0000 0.84013  0.34013  0.50000  Biso   1.000  C
  C12      1.0000 0.87287  0.37287  0.50000  Biso   1.000  C
  C13      1.0000 0.78034  0.78034  0.00000  Biso   1.000  C
  C14      1.0000 0.81307  0.81307  0.00000  Biso   1.000  C
  C15      1.0000 0.84013  0.84013  0.00000  Biso   1.000  C
  C16      1.0000 0.87287  0.87287  0.00000  Biso   1.000  C
  C17      1.0000 0.71966  0.71966  0.00000  Biso   1.000  C
  C18      1.0000 0.68693  0.68693  0.00000  Biso   1.000  C
  C19      1.0000 0.65987  0.65987  0.00000  Biso   1.000  C
  C20      1.0000 0.62713  0.62713  0.00000  Biso   1.000  C
  C21      1.0000 0.71966  0.21966  0.50000  Biso   1.000  C
  C22      1.0000 0.68693  0.18693  0.50000  Biso   1.000  C
  C23      1.0000 0.65987  0.15987  0.50000  Biso   1.000  C
  C24      1.0000 0.62713  0.12713  0.50000  Biso   1.000  C
  C25      1.0000 0.21966  0.71966  0.50000  Biso   1.000  C
  C26      1.0000 0.18693  0.68693  0.50000  Biso   1.000  C
  C27      1.0000 0.15987  0.65987  0.50000  Biso   1.000  C
  C28      1.0000 0.12713  0.62713  0.50000  Biso   1.000  C
  C29      1.0000 0.21966  0.21966  0.00000  Biso   1.000  C
  C30      1.0000 0.18693  0.18693  0.00000  Biso   1.000  C
  C31      1.0000 0.15987  0.15987  0.00000  Biso   1.000  C
  C32      1.0000 0.12713  0.12713  0.00000  Biso   1.000  C
  C33      1.0000 0.71966  0.28034  0.00000  Biso   1.000  C
  C34      1.0000 0.68693  0.31307  0.00000  Biso   1.000  C
  C35      1.0000 0.65987  0.34013  0.00000  Biso   1.000  C
  C36      1.0000 0.62713  0.37287  0.00000  Biso   1.000  C
  C37      1.0000 0.71966  0.78034  0.50000  Biso   1.000  C
  C38      1.0000 0.68693  0.81307  0.50000  Biso   1.000  C
  C39      1.0000 0.65987  0.84013  0.50000  Biso   1.000  C
  C40      1.0000 0.62713  0.87287  0.50000  Biso   1.000  C
  C41      1.0000 0.21966  0.28034  0.50000  Biso   1.000  C
  C42      1.0000 0.18693  0.31307  0.50000  Biso   1.000  C
  C43      1.0000 0.15987  0.34013  0.50000  Biso   1.000  C
  C44      1.0000 0.12713  0.37287  0.50000  Biso   1.000  C
  C45      1.0000 0.21966  0.78034  0.00000  Biso   1.000  C
  C46      1.0000 0.18693  0.81307  0.00000  Biso   1.000  C
  C47      1.0000 0.15987  0.84013  0.00000  Biso   1.000  C
  C48      1.0000 0.12713  0.87287  0.00000  Biso   1.000  C
  C49      1.0000 0.28034  0.71966  0.00000  Biso   1.000  C
  C50      1.0000 0.31307  0.68693  0.00000  Biso   1.000  C
  C51      1.0000 0.34013  0.65987  0.00000  Biso   1.000  C
  C52      1.0000 0.37287  0.62713  0.00000  Biso   1.000  C
  C53      1.0000 0.28034  0.21966  0.50000  Biso   1.000  C
  C54      1.0000 0.31307  0.18693  0.50000  Biso   1.000  C
  C55      1.0000 0.34013  0.15987  0.50000  Biso   1.000  C
  C56      1.0000 0.37287  0.12713  0.50000  Biso   1.000  C
  C57      1.0000 0.78034  0.71966  0.50000  Biso   1.000  C
  C58      1.0000 0.81307  0.68693  0.50000  Biso   1.000  C
  C59      1.0000 0.84013  0.65987  0.50000  Biso   1.000  C
  C60      1.0000 0.87287  0.62713  0.50000  Biso   1.000  C
  C61      1.0000 0.78034  0.21966  0.00000  Biso   1.000  C
  C62      1.0000 0.81307  0.18693  0.00000  Biso   1.000  C
  C63      1.0000 0.84013  0.15987  0.00000  Biso   1.000  C
  C64      1.0000 0.87287  0.12713  0.00000  Biso   1.000  C
  C65      1.0000 0.00000  0.28034  0.28034  Biso   1.000  C
  C66      1.0000 0.00000  0.31307  0.31307  Biso   1.000  C
  C67      1.0000 0.00000  0.34013  0.34013  Biso   1.000  C
  C68      1.0000 0.00000  0.37287  0.37287  Biso   1.000  C
  C69      1.0000 0.00000  0.78034  0.78034  Biso   1.000  C
  C70      1.0000 0.00000  0.81307  0.81307  Biso   1.000  C
  C71      1.0000 0.00000  0.84013  0.84013  Biso   1.000  C
  C72      1.0000 0.00000  0.87287  0.87287  Biso   1.000  C
  C73      1.0000 0.50000  0.28034  0.78034  Biso   1.000  C
  C74      1.0000 0.50000  0.31307  0.81307  Biso   1.000  C
  C75      1.0000 0.50000  0.34013  0.84013  Biso   1.000  C
  C76      1.0000 0.50000  0.37287  0.87287  Biso   1.000  C
  C77      1.0000 0.50000  0.78034  0.28034  Biso   1.000  C
  C78      1.0000 0.50000  0.81307  0.31307  Biso   1.000  C
  C79      1.0000 0.50000  0.84013  0.34013  Biso   1.000  C
  C80      1.0000 0.50000  0.87287  0.37287  Biso   1.000  C
  C81      1.0000 0.00000  0.71966  0.71966  Biso   1.000  C
  C82      1.0000 0.00000  0.68693  0.68693  Biso   1.000  C
  C83      1.0000 0.00000  0.65987  0.65987  Biso   1.000  C
  C84      1.0000 0.00000  0.62713  0.62713  Biso   1.000  C
  C85      1.0000 0.00000  0.21966  0.21966  Biso   1.000  C
  C86      1.0000 0.00000  0.18693  0.18693  Biso   1.000  C
  C87      1.0000 0.00000  0.15987  0.15987  Biso   1.000  C
  C88      1.0000 0.00000  0.12713  0.12713  Biso   1.000  C
  C89      1.0000 0.50000  0.71966  0.21966  Biso   1.000  C
  C90      1.0000 0.50000  0.68693  0.18693  Biso   1.000  C
  C91      1.0000 0.50000  0.65987  0.15987  Biso   1.000  C
  C92      1.0000 0.50000  0.62713  0.12713  Biso   1.000  C
  C93      1.0000 0.50000  0.21966  0.71966  Biso   1.000  C
  C94      1.0000 0.50000  0.18693  0.68693  Biso   1.000  C
  C95      1.0000 0.50000  0.15987  0.65987  Biso   1.000  C
  C96      1.0000 0.50000  0.12713  0.62713  Biso   1.000  C
  C97      1.0000 0.00000  0.71966  0.28034  Biso   1.000  C
  C98      1.0000 0.00000  0.68693  0.31307  Biso   1.000  C
  C99      1.0000 0.00000  0.65987  0.34013  Biso   1.000  C
  C100     1.0000 0.00000  0.62713  0.37287  Biso   1.000  C
  C101     1.0000 0.00000  0.21966  0.78034  Biso   1.000  C
  C102     1.0000 0.00000  0.18693  0.81307  Biso   1.000  C
  C103     1.0000 0.00000  0.15987  0.84013  Biso   1.000  C
  C104     1.0000 0.00000  0.12713  0.87287  Biso   1.000  C
  C105     1.0000 0.50000  0.71966  0.78034  Biso   1.000  C
  C106     1.0000 0.50000  0.68693  0.81307  Biso   1.000  C
  C107     1.0000 0.50000  0.65987  0.84013  Biso   1.000  C
  C108     1.0000 0.50000  0.62713  0.87287  Biso   1.000  C
  C109     1.0000 0.50000  0.21966  0.28034  Biso   1.000  C
  C110     1.0000 0.50000  0.18693  0.31307  Biso   1.000  C
  C111     1.0000 0.50000  0.15987  0.34013  Biso   1.000  C
  C112     1.0000 0.50000  0.12713  0.37287  Biso   1.000  C
  C113     1.0000 0.00000  0.28034  0.71966  Biso   1.000  C
  C114     1.0000 0.00000  0.31307  0.68693  Biso   1.000  C
  C115     1.0000 0.00000  0.34013  0.65987  Biso   1.000  C
  C116     1.0000 0.00000  0.37287  0.62713  Biso   1.000  C
  C117     1.0000 0.00000  0.78034  0.21966  Biso   1.000  C
  C118     1.0000 0.00000  0.81307  0.18693  Biso   1.000  C
  C119     1.0000 0.00000  0.84013  0.15987  Biso   1.000  C
  C120     1.0000 0.00000  0.87287  0.12713  Biso   1.000  C
  C121     1.0000 0.50000  0.28034  0.21966  Biso   1.000  C
  C122     1.0000 0.50000  0.31307  0.18693  Biso   1.000  C
  C123     1.0000 0.50000  0.34013  0.15987  Biso   1.000  C
  C124     1.0000 0.50000  0.37287  0.12713  Biso   1.000  C
  C125     1.0000 0.50000  0.78034  0.71966  Biso   1.000  C
  C126     1.0000 0.50000  0.81307  0.68693  Biso   1.000  C
  C127     1.0000 0.50000  0.84013  0.65987  Biso   1.000  C
  C128     1.0000 0.50000  0.87287  0.62713  Biso   1.000  C
  C129     1.0000 0.28034  0.00000  0.28034  Biso   1.000  C
  C130     1.0000 0.31307  0.00000  0.31307  Biso   1.000  C
  C131     1.0000 0.34013  0.00000  0.34013  Biso   1.000  C
  C132     1.0000 0.37287  0.00000  0.37287  Biso   1.000  C
  C133     1.0000 0.28034  0.50000  0.78034  Biso   1.000  C
  C134     1.0000 0.31307  0.50000  0.81307  Biso   1.000  C
  C135     1.0000 0.34013  0.50000  0.84013  Biso   1.000  C
  C136     1.0000 0.37287  0.50000  0.87287  Biso   1.000  C
  C137     1.0000 0.78034  0.00000  0.78034  Biso   1.000  C
  C138     1.0000 0.81307  0.00000  0.81307  Biso   1.000  C
  C139     1.0000 0.84013  0.00000  0.84013  Biso   1.000  C
  C140     1.0000 0.87287  0.00000  0.87287  Biso   1.000  C
  C141     1.0000 0.78034  0.50000  0.28034  Biso   1.000  C
  C142     1.0000 0.81307  0.50000  0.31307  Biso   1.000  C
  C143     1.0000 0.84013  0.50000  0.34013  Biso   1.000  C
  C144     1.0000 0.87287  0.50000  0.37287  Biso   1.000  C
  C145     1.0000 0.71966  0.00000  0.71966  Biso   1.000  C
  C146     1.0000 0.68693  0.00000  0.68693  Biso   1.000  C
  C147     1.0000 0.65987  0.00000  0.65987  Biso   1.000  C
  C148     1.0000 0.62713  0.00000  0.62713  Biso   1.000  C
  C149     1.0000 0.71966  0.50000  0.21966  Biso   1.000  C
  C150     1.0000 0.68693  0.50000  0.18693  Biso   1.000  C
  C151     1.0000 0.65987  0.50000  0.15987  Biso   1.000  C
  C152     1.0000 0.62713  0.50000  0.12713  Biso   1.000  C
  C153     1.0000 0.21966  0.00000  0.21966  Biso   1.000  C
  C154     1.0000 0.18693  0.00000  0.18693  Biso   1.000  C
  C155     1.0000 0.15987  0.00000  0.15987  Biso   1.000  C
  C156     1.0000 0.12713  0.00000  0.12713  Biso   1.000  C
  C157     1.0000 0.21966  0.50000  0.71966  Biso   1.000  C
  C158     1.0000 0.18693  0.50000  0.68693  Biso   1.000  C
  C159     1.0000 0.15987  0.50000  0.65987  Biso   1.000  C
  C160     1.0000 0.12713  0.50000  0.62713  Biso   1.000  C
  C161     1.0000 0.28034  0.00000  0.71966  Biso   1.000  C
  C162     1.0000 0.31307  0.00000  0.68693  Biso   1.000  C
  C163     1.0000 0.34013  0.00000  0.65987  Biso   1.000  C
  C164     1.0000 0.37287  0.00000  0.62713  Biso   1.000  C
  C165     1.0000 0.28034  0.50000  0.21966  Biso   1.000  C
  C166     1.0000 0.31307  0.50000  0.18693  Biso   1.000  C
  C167     1.0000 0.34013  0.50000  0.15987  Biso   1.000  C
  C168     1.0000 0.37287  0.50000  0.12713  Biso   1.000  C
  C169     1.0000 0.78034  0.00000  0.21966  Biso   1.000  C
  C170     1.0000 0.81307  0.00000  0.18693  Biso   1.000  C
  C171     1.0000 0.84013  0.00000  0.15987  Biso   1.000  C
  C172     1.0000 0.87287  0.00000  0.12713  Biso   1.000  C
  C173     1.0000 0.78034  0.50000  0.71966  Biso   1.000  C
  C174     1.0000 0.81307  0.50000  0.68693  Biso   1.000  C
  C175     1.0000 0.84013  0.50000  0.65987  Biso   1.000  C
  C176     1.0000 0.87287  0.50000  0.62713  Biso   1.000  C
  C177     1.0000 0.71966  0.00000  0.28034  Biso   1.000  C
  C178     1.0000 0.68693  0.00000  0.31307  Biso   1.000  C
  C179     1.0000 0.65987  0.00000  0.34013  Biso   1.000  C
  C180     1.0000 0.62713  0.00000  0.37287  Biso   1.000  C
  C181     1.0000 0.71966  0.50000  0.78034  Biso   1.000  C
  C182     1.0000 0.68693  0.50000  0.81307  Biso   1.000  C
  C183     1.0000 0.65987  0.50000  0.84013  Biso   1.000  C
  C184     1.0000 0.62713  0.50000  0.87287  Biso   1.000  C
  C185     1.0000 0.21966  0.00000  0.78034  Biso   1.000  C
  C186     1.0000 0.18693  0.00000  0.81307  Biso   1.000  C
  C187     1.0000 0.15987  0.00000  0.84013  Biso   1.000  C
  C188     1.0000 0.12713  0.00000  0.87287  Biso   1.000  C
  C189     1.0000 0.21966  0.50000  0.28034  Biso   1.000  C
  C190     1.0000 0.18693  0.50000  0.31307  Biso   1.000  C
  C191     1.0000 0.15987  0.50000  0.34013  Biso   1.000  C
  C192     1.0000 0.12713  0.50000  0.37287  Biso   1.000  C
  C193     1.0000 0.26517  0.26517  0.96285  Biso   1.000  C
  C194     1.0000 0.28197  0.28197  0.92168  Biso   1.000  C
  C195     1.0000 0.39032  0.39032  0.96604  Biso   1.000  C
  H25      1.0000 0.38391  0.38391  0.93816  Biso   1.000  H
  N1       1.0000 0.41854  0.41854  0.97901  Biso   1.000  N
  C196     1.0000 0.26517  0.76517  0.46285  Biso   1.000  C
  C197     1.0000 0.28197  0.78197  0.42168  Biso   1.000  C
  C198     1.0000 0.39032  0.89032  0.46604  Biso   1.000  C
  H26      1.0000 0.38391  0.88391  0.43816  Biso   1.000  H
  N2       1.0000 0.41854  0.91854  0.47901  Biso   1.000  N
  C199     1.0000 0.76517  0.26517  0.46285  Biso   1.000  C
  C200     1.0000 0.78197  0.28197  0.42168  Biso   1.000  C
  C201     1.0000 0.89032  0.39032  0.46604  Biso   1.000  C
  H27      1.0000 0.88391  0.38391  0.43816  Biso   1.000  H
  N3       1.0000 0.91854  0.41854  0.47901  Biso   1.000  N
  C202     1.0000 0.76517  0.76517  0.96285  Biso   1.000  C
  C203     1.0000 0.78197  0.78197  0.92168  Biso   1.000  C
  C204     1.0000 0.89032  0.89032  0.96604  Biso   1.000  C
  H28      1.0000 0.88391  0.88391  0.93816  Biso   1.000  H
  N4       1.0000 0.91854  0.91854  0.97901  Biso   1.000  N
  C205     1.0000 0.73483  0.73483  0.96285  Biso   1.000  C
  C206     1.0000 0.71803  0.71803  0.92168  Biso   1.000  C
  C207     1.0000 0.60968  0.60968  0.96604  Biso   1.000  C
  H29      1.0000 0.61609  0.61609  0.93816  Biso   1.000  H
  N5       1.0000 0.58146  0.58146  0.97901  Biso   1.000  N
  C208     1.0000 0.73483  0.23483  0.46285  Biso   1.000  C
  C209     1.0000 0.71803  0.21803  0.42168  Biso   1.000  C
  C210     1.0000 0.60968  0.10968  0.46604  Biso   1.000  C
  H30      1.0000 0.61609  0.11609  0.43816  Biso   1.000  H
  N6       1.0000 0.58146  0.08146  0.47901  Biso   1.000  N
  C211     1.0000 0.23483  0.73483  0.46285  Biso   1.000  C
  C212     1.0000 0.21803  0.71803  0.42168  Biso   1.000  C
  C213     1.0000 0.10968  0.60968  0.46604  Biso   1.000  C
  H31      1.0000 0.11609  0.61609  0.43816  Biso   1.000  H
  N7       1.0000 0.08146  0.58146  0.47901  Biso   1.000  N
  C214     1.0000 0.23483  0.23483  0.96285  Biso   1.000  C
  C215     1.0000 0.21803  0.21803  0.92168  Biso   1.000  C
  C216     1.0000 0.10968  0.10968  0.96604  Biso   1.000  C
  H32      1.0000 0.11609  0.11609  0.93816  Biso   1.000  H
  N8       1.0000 0.08146  0.08146  0.97901  Biso   1.000  N
  C217     1.0000 0.73483  0.26517  0.03715  Biso   1.000  C
  C218     1.0000 0.71803  0.28197  0.07832  Biso   1.000  C
  C219     1.0000 0.60968  0.39032  0.03396  Biso   1.000  C
  H33      1.0000 0.61609  0.38391  0.06184  Biso   1.000  H
  N9       1.0000 0.58146  0.41854  0.02099  Biso   1.000  N
  C220     1.0000 0.73483  0.76517  0.53715  Biso   1.000  C
  C221     1.0000 0.71803  0.78197  0.57832  Biso   1.000  C
  C222     1.0000 0.60968  0.89032  0.53396  Biso   1.000  C
  H34      1.0000 0.61609  0.88391  0.56184  Biso   1.000  H
  N10      1.0000 0.58146  0.91854  0.52099  Biso   1.000  N
  C223     1.0000 0.23483  0.26517  0.53715  Biso   1.000  C
  C224     1.0000 0.21803  0.28197  0.57832  Biso   1.000  C
  C225     1.0000 0.10968  0.39032  0.53396  Biso   1.000  C
  H35      1.0000 0.11609  0.38391  0.56184  Biso   1.000  H
  N11      1.0000 0.08146  0.41854  0.52099  Biso   1.000  N
  C226     1.0000 0.23483  0.76517  0.03715  Biso   1.000  C
  C227     1.0000 0.21803  0.78197  0.07832  Biso   1.000  C
  C228     1.0000 0.10968  0.89032  0.03396  Biso   1.000  C
  H36      1.0000 0.11609  0.88391  0.06184  Biso   1.000  H
  N12      1.0000 0.08146  0.91854  0.02099  Biso   1.000  N
  C229     1.0000 0.26517  0.73483  0.03715  Biso   1.000  C
  C230     1.0000 0.28197  0.71803  0.07832  Biso   1.000  C
  C231     1.0000 0.39032  0.60968  0.03396  Biso   1.000  C
  H37      1.0000 0.38391  0.61609  0.06184  Biso   1.000  H
  N13      1.0000 0.41854  0.58146  0.02099  Biso   1.000  N
  C232     1.0000 0.26517  0.23483  0.53715  Biso   1.000  C
  C233     1.0000 0.28197  0.21803  0.57832  Biso   1.000  C
  C234     1.0000 0.39032  0.10968  0.53396  Biso   1.000  C
  H38      1.0000 0.38391  0.11609  0.56184  Biso   1.000  H
  N14      1.0000 0.41854  0.08146  0.52099  Biso   1.000  N
  C235     1.0000 0.76517  0.73483  0.53715  Biso   1.000  C
  C236     1.0000 0.78197  0.71803  0.57832  Biso   1.000  C
  C237     1.0000 0.89032  0.60968  0.53396  Biso   1.000  C
  H39      1.0000 0.88391  0.61609  0.56184  Biso   1.000  H
  N15      1.0000 0.91854  0.58146  0.52099  Biso   1.000  N
  C238     1.0000 0.76517  0.23483  0.03715  Biso   1.000  C
  C239     1.0000 0.78197  0.21803  0.07832  Biso   1.000  C
  C240     1.0000 0.89032  0.10968  0.03396  Biso   1.000  C
  H40      1.0000 0.88391  0.11609  0.06184  Biso   1.000  H
  N16      1.0000 0.91854  0.08146  0.02099  Biso   1.000  N
  C241     1.0000 0.96285  0.26517  0.26517  Biso   1.000  C
  C242     1.0000 0.92168  0.28197  0.28197  Biso   1.000  C
  C243     1.0000 0.96604  0.39032  0.39032  Biso   1.000  C
  H41      1.0000 0.93816  0.38391  0.38391  Biso   1.000  H
  N17      1.0000 0.97901  0.41854  0.41854  Biso   1.000  N
  C244     1.0000 0.96285  0.76517  0.76517  Biso   1.000  C
  C245     1.0000 0.92168  0.78197  0.78197  Biso   1.000  C
  C246     1.0000 0.96604  0.89032  0.89032  Biso   1.000  C
  H42      1.0000 0.93816  0.88391  0.88391  Biso   1.000  H
  N18      1.0000 0.97901  0.91854  0.91854  Biso   1.000  N
  C247     1.0000 0.46285  0.26517  0.76517  Biso   1.000  C
  C248     1.0000 0.42168  0.28197  0.78197  Biso   1.000  C
  C249     1.0000 0.46604  0.39032  0.89032  Biso   1.000  C
  H43      1.0000 0.43816  0.38391  0.88391  Biso   1.000  H
  N19      1.0000 0.47901  0.41854  0.91854  Biso   1.000  N
  C250     1.0000 0.46285  0.76517  0.26517  Biso   1.000  C
  C251     1.0000 0.42168  0.78197  0.28197  Biso   1.000  C
  C252     1.0000 0.46604  0.89032  0.39032  Biso   1.000  C
  H44      1.0000 0.43816  0.88391  0.38391  Biso   1.000  H
  N20      1.0000 0.47901  0.91854  0.41854  Biso   1.000  N
  C253     1.0000 0.96285  0.73483  0.73483  Biso   1.000  C
  C254     1.0000 0.92168  0.71803  0.71803  Biso   1.000  C
  C255     1.0000 0.96604  0.60968  0.60968  Biso   1.000  C
  H45      1.0000 0.93816  0.61609  0.61609  Biso   1.000  H
  N21      1.0000 0.97901  0.58146  0.58146  Biso   1.000  N
  C256     1.0000 0.96285  0.23483  0.23483  Biso   1.000  C
  C257     1.0000 0.92168  0.21803  0.21803  Biso   1.000  C
  C258     1.0000 0.96604  0.10968  0.10968  Biso   1.000  C
  H46      1.0000 0.93816  0.11609  0.11609  Biso   1.000  H
  N22      1.0000 0.97901  0.08146  0.08146  Biso   1.000  N
  C259     1.0000 0.46285  0.73483  0.23483  Biso   1.000  C
  C260     1.0000 0.42168  0.71803  0.21803  Biso   1.000  C
  C261     1.0000 0.46604  0.60968  0.10968  Biso   1.000  C
  H47      1.0000 0.43816  0.61609  0.11609  Biso   1.000  H
  N23      1.0000 0.47901  0.58146  0.08146  Biso   1.000  N
  C262     1.0000 0.46285  0.23483  0.73483  Biso   1.000  C
  C263     1.0000 0.42168  0.21803  0.71803  Biso   1.000  C
  C264     1.0000 0.46604  0.10968  0.60968  Biso   1.000  C
  H48      1.0000 0.43816  0.11609  0.61609  Biso   1.000  H
  N24      1.0000 0.47901  0.08146  0.58146  Biso   1.000  N
  C265     1.0000 0.03715  0.73483  0.26517  Biso   1.000  C
  C266     1.0000 0.07832  0.71803  0.28197  Biso   1.000  C
  C267     1.0000 0.03396  0.60968  0.39032  Biso   1.000  C
  H49      1.0000 0.06184  0.61609  0.38391  Biso   1.000  H
  N25      1.0000 0.02099  0.58146  0.41854  Biso   1.000  N
  C268     1.0000 0.03715  0.23483  0.76517  Biso   1.000  C
  C269     1.0000 0.07832  0.21803  0.78197  Biso   1.000  C
  C270     1.0000 0.03396  0.10968  0.89032  Biso   1.000  C
  H50      1.0000 0.06184  0.11609  0.88391  Biso   1.000  H
  N26      1.0000 0.02099  0.08146  0.91854  Biso   1.000  N
  C271     1.0000 0.53715  0.73483  0.76517  Biso   1.000  C
  C272     1.0000 0.57832  0.71803  0.78197  Biso   1.000  C
  C273     1.0000 0.53396  0.60968  0.89032  Biso   1.000  C
  H51      1.0000 0.56184  0.61609  0.88391  Biso   1.000  H
  N27      1.0000 0.52099  0.58146  0.91854  Biso   1.000  N
  C274     1.0000 0.53715  0.23483  0.26517  Biso   1.000  C
  C275     1.0000 0.57832  0.21803  0.28197  Biso   1.000  C
  C276     1.0000 0.53396  0.10968  0.39032  Biso   1.000  C
  H52      1.0000 0.56184  0.11609  0.38391  Biso   1.000  H
  N28      1.0000 0.52099  0.08146  0.41854  Biso   1.000  N
  C277     1.0000 0.03715  0.26517  0.73483  Biso   1.000  C
  C278     1.0000 0.07832  0.28197  0.71803  Biso   1.000  C
  C279     1.0000 0.03396  0.39032  0.60968  Biso   1.000  C
  H53      1.0000 0.06184  0.38391  0.61609  Biso   1.000  H
  N29      1.0000 0.02099  0.41854  0.58146  Biso   1.000  N
  C280     1.0000 0.03715  0.76517  0.23483  Biso   1.000  C
  C281     1.0000 0.07832  0.78197  0.21803  Biso   1.000  C
  C282     1.0000 0.03396  0.89032  0.10968  Biso   1.000  C
  H54      1.0000 0.06184  0.88391  0.11609  Biso   1.000  H
  N30      1.0000 0.02099  0.91854  0.08146  Biso   1.000  N
  C283     1.0000 0.53715  0.26517  0.23483  Biso   1.000  C
  C284     1.0000 0.57832  0.28197  0.21803  Biso   1.000  C
  C285     1.0000 0.53396  0.39032  0.10968  Biso   1.000  C
  H55      1.0000 0.56184  0.38391  0.11609  Biso   1.000  H
  N31      1.0000 0.52099  0.41854  0.08146  Biso   1.000  N
  C286     1.0000 0.53715  0.76517  0.73483  Biso   1.000  C
  C287     1.0000 0.57832  0.78197  0.71803  Biso   1.000  C
  C288     1.0000 0.53396  0.89032  0.60968  Biso   1.000  C
  H56      1.0000 0.56184  0.88391  0.61609  Biso   1.000  H
  N32      1.0000 0.52099  0.91854  0.58146  Biso   1.000  N
  C289     1.0000 0.26517  0.96285  0.26517  Biso   1.000  C
  C290     1.0000 0.28197  0.92168  0.28197  Biso   1.000  C
  C291     1.0000 0.39032  0.96604  0.39032  Biso   1.000  C
  H57      1.0000 0.38391  0.93816  0.38391  Biso   1.000  H
  N33      1.0000 0.41854  0.97901  0.41854  Biso   1.000  N
  C292     1.0000 0.26517  0.46285  0.76517  Biso   1.000  C
  C293     1.0000 0.28197  0.42168  0.78197  Biso   1.000  C
  C294     1.0000 0.39032  0.46604  0.89032  Biso   1.000  C
  H58      1.0000 0.38391  0.43816  0.88391  Biso   1.000  H
  N34      1.0000 0.41854  0.47901  0.91854  Biso   1.000  N
  C295     1.0000 0.76517  0.96285  0.76517  Biso   1.000  C
  C296     1.0000 0.78197  0.92168  0.78197  Biso   1.000  C
  C297     1.0000 0.89032  0.96604  0.89032  Biso   1.000  C
  H59      1.0000 0.88391  0.93816  0.88391  Biso   1.000  H
  N35      1.0000 0.91854  0.97901  0.91854  Biso   1.000  N
  C298     1.0000 0.76517  0.46285  0.26517  Biso   1.000  C
  C299     1.0000 0.78197  0.42168  0.28197  Biso   1.000  C
  C300     1.0000 0.89032  0.46604  0.39032  Biso   1.000  C
  H60      1.0000 0.88391  0.43816  0.38391  Biso   1.000  H
  N36      1.0000 0.91854  0.47901  0.41854  Biso   1.000  N
  C301     1.0000 0.73483  0.96285  0.73483  Biso   1.000  C
  C302     1.0000 0.71803  0.92168  0.71803  Biso   1.000  C
  C303     1.0000 0.60968  0.96604  0.60968  Biso   1.000  C
  H61      1.0000 0.61609  0.93816  0.61609  Biso   1.000  H
  N37      1.0000 0.58146  0.97901  0.58146  Biso   1.000  N
  C304     1.0000 0.73483  0.46285  0.23483  Biso   1.000  C
  C305     1.0000 0.71803  0.42168  0.21803  Biso   1.000  C
  C306     1.0000 0.60968  0.46604  0.10968  Biso   1.000  C
  H62      1.0000 0.61609  0.43816  0.11609  Biso   1.000  H
  N38      1.0000 0.58146  0.47901  0.08146  Biso   1.000  N
  C307     1.0000 0.23483  0.96285  0.23483  Biso   1.000  C
  C308     1.0000 0.21803  0.92168  0.21803  Biso   1.000  C
  C309     1.0000 0.10968  0.96604  0.10968  Biso   1.000  C
  H63      1.0000 0.11609  0.93816  0.11609  Biso   1.000  H
  N39      1.0000 0.08146  0.97901  0.08146  Biso   1.000  N
  C310     1.0000 0.23483  0.46285  0.73483  Biso   1.000  C
  C311     1.0000 0.21803  0.42168  0.71803  Biso   1.000  C
  C312     1.0000 0.10968  0.46604  0.60968  Biso   1.000  C
  H64      1.0000 0.11609  0.43816  0.61609  Biso   1.000  H
  N40      1.0000 0.08146  0.47901  0.58146  Biso   1.000  N
  C313     1.0000 0.26517  0.03715  0.73483  Biso   1.000  C
  C314     1.0000 0.28197  0.07832  0.71803  Biso   1.000  C
  C315     1.0000 0.39032  0.03396  0.60968  Biso   1.000  C
  H65      1.0000 0.38391  0.06184  0.61609  Biso   1.000  H
  N41      1.0000 0.41854  0.02099  0.58146  Biso   1.000  N
  C316     1.0000 0.26517  0.53715  0.23483  Biso   1.000  C
  C317     1.0000 0.28197  0.57832  0.21803  Biso   1.000  C
  C318     1.0000 0.39032  0.53396  0.10968  Biso   1.000  C
  H66      1.0000 0.38391  0.56184  0.11609  Biso   1.000  H
  N42      1.0000 0.41854  0.52099  0.08146  Biso   1.000  N
  C319     1.0000 0.76517  0.03715  0.23483  Biso   1.000  C
  C320     1.0000 0.78197  0.07832  0.21803  Biso   1.000  C
  C321     1.0000 0.89032  0.03396  0.10968  Biso   1.000  C
  H67      1.0000 0.88391  0.06184  0.11609  Biso   1.000  H
  N43      1.0000 0.91854  0.02099  0.08146  Biso   1.000  N
  C322     1.0000 0.76517  0.53715  0.73483  Biso   1.000  C
  C323     1.0000 0.78197  0.57832  0.71803  Biso   1.000  C
  C324     1.0000 0.89032  0.53396  0.60968  Biso   1.000  C
  H68      1.0000 0.88391  0.56184  0.61609  Biso   1.000  H
  N44      1.0000 0.91854  0.52099  0.58146  Biso   1.000  N
  C325     1.0000 0.73483  0.03715  0.26517  Biso   1.000  C
  C326     1.0000 0.71803  0.07832  0.28197  Biso   1.000  C
  C327     1.0000 0.60968  0.03396  0.39032  Biso   1.000  C
  H69      1.0000 0.61609  0.06184  0.38391  Biso   1.000  H
  N45      1.0000 0.58146  0.02099  0.41854  Biso   1.000  N
  C328     1.0000 0.73483  0.53715  0.76517  Biso   1.000  C
  C329     1.0000 0.71803  0.57832  0.78197  Biso   1.000  C
  C330     1.0000 0.60968  0.53396  0.89032  Biso   1.000  C
  H70      1.0000 0.61609  0.56184  0.88391  Biso   1.000  H
  N46      1.0000 0.58146  0.52099  0.91854  Biso   1.000  N
  C331     1.0000 0.23483  0.03715  0.76517  Biso   1.000  C
  C332     1.0000 0.21803  0.07832  0.78197  Biso   1.000  C
  C333     1.0000 0.10968  0.03396  0.89032  Biso   1.000  C
  H71      1.0000 0.11609  0.06184  0.88391  Biso   1.000  H
  N47      1.0000 0.08146  0.02099  0.91854  Biso   1.000  N
  C334     1.0000 0.23483  0.53715  0.26517  Biso   1.000  C
  C335     1.0000 0.21803  0.57832  0.28197  Biso   1.000  C
  C336     1.0000 0.10968  0.53396  0.39032  Biso   1.000  C
  H72      1.0000 0.11609  0.56184  0.38391  Biso   1.000  H
  N48      1.0000 0.08146  0.52099  0.41854  Biso   1.000  N
  C337     1.0000 0.26517  0.26517  0.03715  Biso   1.000  C
  C338     1.0000 0.28197  0.28197  0.07832  Biso   1.000  C
  C339     1.0000 0.39032  0.39032  0.03396  Biso   1.000  C
  H73      1.0000 0.38391  0.38391  0.06184  Biso   1.000  H
  N49      1.0000 0.41854  0.41854  0.02099  Biso   1.000  N
  C340     1.0000 0.26517  0.76517  0.53715  Biso   1.000  C
  C341     1.0000 0.28197  0.78197  0.57832  Biso   1.000  C
  C342     1.0000 0.39032  0.89032  0.53396  Biso   1.000  C
  H74      1.0000 0.38391  0.88391  0.56184  Biso   1.000  H
  N50      1.0000 0.41854  0.91854  0.52099  Biso   1.000  N
  C343     1.0000 0.76517  0.26517  0.53715  Biso   1.000  C
  C344     1.0000 0.78197  0.28197  0.57832  Biso   1.000  C
  C345     1.0000 0.89032  0.39032  0.53396  Biso   1.000  C
  H75      1.0000 0.88391  0.38391  0.56184  Biso   1.000  H
  N51      1.0000 0.91854  0.41854  0.52099  Biso   1.000  N
  C346     1.0000 0.76517  0.76517  0.03715  Biso   1.000  C
  C347     1.0000 0.78197  0.78197  0.07832  Biso   1.000  C
  C348     1.0000 0.89032  0.89032  0.03396  Biso   1.000  C
  H76      1.0000 0.88391  0.88391  0.06184  Biso   1.000  H
  N52      1.0000 0.91854  0.91854  0.02099  Biso   1.000  N
  C349     1.0000 0.73483  0.73483  0.03715  Biso   1.000  C
  C350     1.0000 0.71803  0.71803  0.07832  Biso   1.000  C
  C351     1.0000 0.60968  0.60968  0.03396  Biso   1.000  C
  H77      1.0000 0.61609  0.61609  0.06184  Biso   1.000  H
  N53      1.0000 0.58146  0.58146  0.02099  Biso   1.000  N
  C352     1.0000 0.73483  0.23483  0.53715  Biso   1.000  C
  C353     1.0000 0.71803  0.21803  0.57832  Biso   1.000  C
  C354     1.0000 0.60968  0.10968  0.53396  Biso   1.000  C
  H78      1.0000 0.61609  0.11609  0.56184  Biso   1.000  H
  N54      1.0000 0.58146  0.08146  0.52099  Biso   1.000  N
  C355     1.0000 0.23483  0.73483  0.53715  Biso   1.000  C
  C356     1.0000 0.21803  0.71803  0.57832  Biso   1.000  C
  C357     1.0000 0.10968  0.60968  0.53396  Biso   1.000  C
  H79      1.0000 0.11609  0.61609  0.56184  Biso   1.000  H
  N55      1.0000 0.08146  0.58146  0.52099  Biso   1.000  N
  C358     1.0000 0.23483  0.23483  0.03715  Biso   1.000  C
  C359     1.0000 0.21803  0.21803  0.07832  Biso   1.000  C
  C360     1.0000 0.10968  0.10968  0.03396  Biso   1.000  C
  H80      1.0000 0.11609  0.11609  0.06184  Biso   1.000  H
  N56      1.0000 0.08146  0.08146  0.02099  Biso   1.000  N
  C361     1.0000 0.26517  0.73483  0.96285  Biso   1.000  C
  C362     1.0000 0.28197  0.71803  0.92168  Biso   1.000  C
  C363     1.0000 0.39032  0.60968  0.96604  Biso   1.000  C
  H81      1.0000 0.38391  0.61609  0.93816  Biso   1.000  H
  N57      1.0000 0.41854  0.58146  0.97901  Biso   1.000  N
  C364     1.0000 0.26517  0.23483  0.46285  Biso   1.000  C
  C365     1.0000 0.28197  0.21803  0.42168  Biso   1.000  C
  C366     1.0000 0.39032  0.10968  0.46604  Biso   1.000  C
  H82      1.0000 0.38391  0.11609  0.43816  Biso   1.000  H
  N58      1.0000 0.41854  0.08146  0.47901  Biso   1.000  N
  C367     1.0000 0.76517  0.73483  0.46285  Biso   1.000  C
  C368     1.0000 0.78197  0.71803  0.42168  Biso   1.000  C
  C369     1.0000 0.89032  0.60968  0.46604  Biso   1.000  C
  H83      1.0000 0.88391  0.61609  0.43816  Biso   1.000  H
  N59      1.0000 0.91854  0.58146  0.47901  Biso   1.000  N
  C370     1.0000 0.76517  0.23483  0.96285  Biso   1.000  C
  C371     1.0000 0.78197  0.21803  0.92168  Biso   1.000  C
  C372     1.0000 0.89032  0.10968  0.96604  Biso   1.000  C
  H84      1.0000 0.88391  0.11609  0.93816  Biso   1.000  H
  N60      1.0000 0.91854  0.08146  0.97901  Biso   1.000  N
  C373     1.0000 0.73483  0.26517  0.96285  Biso   1.000  C
  C374     1.0000 0.71803  0.28197  0.92168  Biso   1.000  C
  C375     1.0000 0.60968  0.39032  0.96604  Biso   1.000  C
  H85      1.0000 0.61609  0.38391  0.93816  Biso   1.000  H
  N61      1.0000 0.58146  0.41854  0.97901  Biso   1.000  N
  C376     1.0000 0.73483  0.76517  0.46285  Biso   1.000  C
  C377     1.0000 0.71803  0.78197  0.42168  Biso   1.000  C
  C378     1.0000 0.60968  0.89032  0.46604  Biso   1.000  C
  H86      1.0000 0.61609  0.88391  0.43816  Biso   1.000  H
  N62      1.0000 0.58146  0.91854  0.47901  Biso   1.000  N
  C379     1.0000 0.23483  0.26517  0.46285  Biso   1.000  C
  C380     1.0000 0.21803  0.28197  0.42168  Biso   1.000  C
  C381     1.0000 0.10968  0.39032  0.46604  Biso   1.000  C
  H87      1.0000 0.11609  0.38391  0.43816  Biso   1.000  H
  N63      1.0000 0.08146  0.41854  0.47901  Biso   1.000  N
  C382     1.0000 0.23483  0.76517  0.96285  Biso   1.000  C
  C383     1.0000 0.21803  0.78197  0.92168  Biso   1.000  C
  C384     1.0000 0.10968  0.89032  0.96604  Biso   1.000  C
  H88      1.0000 0.11609  0.88391  0.93816  Biso   1.000  H
  N64      1.0000 0.08146  0.91854  0.97901  Biso   1.000  N
  C385     1.0000 0.26517  0.96285  0.73483  Biso   1.000  C
  C386     1.0000 0.28197  0.92168  0.71803  Biso   1.000  C
  C387     1.0000 0.39032  0.96604  0.60968  Biso   1.000  C
  H89      1.0000 0.38391  0.93816  0.61609  Biso   1.000  H
  N65      1.0000 0.41854  0.97901  0.58146  Biso   1.000  N
  C388     1.0000 0.26517  0.46285  0.23483  Biso   1.000  C
  C389     1.0000 0.28197  0.42168  0.21803  Biso   1.000  C
  C390     1.0000 0.39032  0.46604  0.10968  Biso   1.000  C
  H90      1.0000 0.38391  0.43816  0.11609  Biso   1.000  H
  N66      1.0000 0.41854  0.47901  0.08146  Biso   1.000  N
  C391     1.0000 0.76517  0.96285  0.23483  Biso   1.000  C
  C392     1.0000 0.78197  0.92168  0.21803  Biso   1.000  C
  C393     1.0000 0.89032  0.96604  0.10968  Biso   1.000  C
  H91      1.0000 0.88391  0.93816  0.11609  Biso   1.000  H
  N67      1.0000 0.91854  0.97901  0.08146  Biso   1.000  N
  C394     1.0000 0.76517  0.46285  0.73483  Biso   1.000  C
  C395     1.0000 0.78197  0.42168  0.71803  Biso   1.000  C
  C396     1.0000 0.89032  0.46604  0.60968  Biso   1.000  C
  H92      1.0000 0.88391  0.43816  0.61609  Biso   1.000  H
  N68      1.0000 0.91854  0.47901  0.58146  Biso   1.000  N
  C397     1.0000 0.73483  0.96285  0.26517  Biso   1.000  C
  C398     1.0000 0.71803  0.92168  0.28197  Biso   1.000  C
  C399     1.0000 0.60968  0.96604  0.39032  Biso   1.000  C
  H93      1.0000 0.61609  0.93816  0.38391  Biso   1.000  H
  N69      1.0000 0.58146  0.97901  0.41854  Biso   1.000  N
  C400     1.0000 0.73483  0.46285  0.76517  Biso   1.000  C
  C401     1.0000 0.71803  0.42168  0.78197  Biso   1.000  C
  C402     1.0000 0.60968  0.46604  0.89032  Biso   1.000  C
  H94      1.0000 0.61609  0.43816  0.88391  Biso   1.000  H
  N70      1.0000 0.58146  0.47901  0.91854  Biso   1.000  N
  C403     1.0000 0.23483  0.96285  0.76517  Biso   1.000  C
  C404     1.0000 0.21803  0.92168  0.78197  Biso   1.000  C
  C405     1.0000 0.10968  0.96604  0.89032  Biso   1.000  C
  H95      1.0000 0.11609  0.93816  0.88391  Biso   1.000  H
  N71      1.0000 0.08146  0.97901  0.91854  Biso   1.000  N
  C406     1.0000 0.23483  0.46285  0.26517  Biso   1.000  C
  C407     1.0000 0.21803  0.42168  0.28197  Biso   1.000  C
  C408     1.0000 0.10968  0.46604  0.39032  Biso   1.000  C
  H96      1.0000 0.11609  0.43816  0.38391  Biso   1.000  H
  N72      1.0000 0.08146  0.47901  0.41854  Biso   1.000  N
  C409     1.0000 0.73483  0.03715  0.73483  Biso   1.000  C
  C410     1.0000 0.71803  0.07832  0.71803  Biso   1.000  C
  C411     1.0000 0.60968  0.03396  0.60968  Biso   1.000  C
  H97      1.0000 0.61609  0.06184  0.61609  Biso   1.000  H
  N73      1.0000 0.58146  0.02099  0.58146  Biso   1.000  N
  C412     1.0000 0.73483  0.53715  0.23483  Biso   1.000  C
  C413     1.0000 0.71803  0.57832  0.21803  Biso   1.000  C
  C414     1.0000 0.60968  0.53396  0.10968  Biso   1.000  C
  H98      1.0000 0.61609  0.56184  0.11609  Biso   1.000  H
  N74      1.0000 0.58146  0.52099  0.08146  Biso   1.000  N
  C415     1.0000 0.23483  0.03715  0.23483  Biso   1.000  C
  C416     1.0000 0.21803  0.07832  0.21803  Biso   1.000  C
  C417     1.0000 0.10968  0.03396  0.10968  Biso   1.000  C
  H99      1.0000 0.11609  0.06184  0.11609  Biso   1.000  H
  N75      1.0000 0.08146  0.02099  0.08146  Biso   1.000  N
  C418     1.0000 0.23483  0.53715  0.73483  Biso   1.000  C
  C419     1.0000 0.21803  0.57832  0.71803  Biso   1.000  C
  C420     1.0000 0.10968  0.53396  0.60968  Biso   1.000  C
  H100     1.0000 0.11609  0.56184  0.61609  Biso   1.000  H
  N76      1.0000 0.08146  0.52099  0.58146  Biso   1.000  N
  C421     1.0000 0.26517  0.03715  0.26517  Biso   1.000  C
  C422     1.0000 0.28197  0.07832  0.28197  Biso   1.000  C
  C423     1.0000 0.39032  0.03396  0.39032  Biso   1.000  C
  H101     1.0000 0.38391  0.06184  0.38391  Biso   1.000  H
  N77      1.0000 0.41854  0.02099  0.41854  Biso   1.000  N
  C424     1.0000 0.26517  0.53715  0.76517  Biso   1.000  C
  C425     1.0000 0.28197  0.57832  0.78197  Biso   1.000  C
  C426     1.0000 0.39032  0.53396  0.89032  Biso   1.000  C
  H102     1.0000 0.38391  0.56184  0.88391  Biso   1.000  H
  N78      1.0000 0.41854  0.52099  0.91854  Biso   1.000  N
  C427     1.0000 0.76517  0.03715  0.76517  Biso   1.000  C
  C428     1.0000 0.78197  0.07832  0.78197  Biso   1.000  C
  C429     1.0000 0.89032  0.03396  0.89032  Biso   1.000  C
  H103     1.0000 0.88391  0.06184  0.88391  Biso   1.000  H
  N79      1.0000 0.91854  0.02099  0.91854  Biso   1.000  N
  C430     1.0000 0.76517  0.53715  0.26517  Biso   1.000  C
  C431     1.0000 0.78197  0.57832  0.28197  Biso   1.000  C
  C432     1.0000 0.89032  0.53396  0.39032  Biso   1.000  C
  H104     1.0000 0.88391  0.56184  0.38391  Biso   1.000  H
  N80      1.0000 0.91854  0.52099  0.41854  Biso   1.000  N
  C433     1.0000 0.96285  0.26517  0.73483  Biso   1.000  C
  C434     1.0000 0.92168  0.28197  0.71803  Biso   1.000  C
  C435     1.0000 0.96604  0.39032  0.60968  Biso   1.000  C
  H105     1.0000 0.93816  0.38391  0.61609  Biso   1.000  H
  N81      1.0000 0.97901  0.41854  0.58146  Biso   1.000  N
  C436     1.0000 0.96285  0.76517  0.23483  Biso   1.000  C
  C437     1.0000 0.92168  0.78197  0.21803  Biso   1.000  C
  C438     1.0000 0.96604  0.89032  0.10968  Biso   1.000  C
  H106     1.0000 0.93816  0.88391  0.11609  Biso   1.000  H
  N82      1.0000 0.97901  0.91854  0.08146  Biso   1.000  N
  C439     1.0000 0.46285  0.26517  0.23483  Biso   1.000  C
  C440     1.0000 0.42168  0.28197  0.21803  Biso   1.000  C
  C441     1.0000 0.46604  0.39032  0.10968  Biso   1.000  C
  H107     1.0000 0.43816  0.38391  0.11609  Biso   1.000  H
  N83      1.0000 0.47901  0.41854  0.08146  Biso   1.000  N
  C442     1.0000 0.46285  0.76517  0.73483  Biso   1.000  C
  C443     1.0000 0.42168  0.78197  0.71803  Biso   1.000  C
  C444     1.0000 0.46604  0.89032  0.60968  Biso   1.000  C
  H108     1.0000 0.43816  0.88391  0.61609  Biso   1.000  H
  N84      1.0000 0.47901  0.91854  0.58146  Biso   1.000  N
  C445     1.0000 0.96285  0.73483  0.26517  Biso   1.000  C
  C446     1.0000 0.92168  0.71803  0.28197  Biso   1.000  C
  C447     1.0000 0.96604  0.60968  0.39032  Biso   1.000  C
  H109     1.0000 0.93816  0.61609  0.38391  Biso   1.000  H
  N85      1.0000 0.97901  0.58146  0.41854  Biso   1.000  N
  C448     1.0000 0.96285  0.23483  0.76517  Biso   1.000  C
  C449     1.0000 0.92168  0.21803  0.78197  Biso   1.000  C
  C450     1.0000 0.96604  0.10968  0.89032  Biso   1.000  C
  H110     1.0000 0.93816  0.11609  0.88391  Biso   1.000  H
  N86      1.0000 0.97901  0.08146  0.91854  Biso   1.000  N
  C451     1.0000 0.46285  0.73483  0.76517  Biso   1.000  C
  C452     1.0000 0.42168  0.71803  0.78197  Biso   1.000  C
  C453     1.0000 0.46604  0.60968  0.89032  Biso   1.000  C
  H111     1.0000 0.43816  0.61609  0.88391  Biso   1.000  H
  N87      1.0000 0.47901  0.58146  0.91854  Biso   1.000  N
  C454     1.0000 0.46285  0.23483  0.26517  Biso   1.000  C
  C455     1.0000 0.42168  0.21803  0.28197  Biso   1.000  C
  C456     1.0000 0.46604  0.10968  0.39032  Biso   1.000  C
  H112     1.0000 0.43816  0.11609  0.38391  Biso   1.000  H
  N88      1.0000 0.47901  0.08146  0.41854  Biso   1.000  N
  C457     1.0000 0.03715  0.26517  0.26517  Biso   1.000  C
  C458     1.0000 0.07832  0.28197  0.28197  Biso   1.000  C
  C459     1.0000 0.03396  0.39032  0.39032  Biso   1.000  C
  H113     1.0000 0.06184  0.38391  0.38391  Biso   1.000  H
  N89      1.0000 0.02099  0.41854  0.41854  Biso   1.000  N
  C460     1.0000 0.03715  0.76517  0.76517  Biso   1.000  C
  C461     1.0000 0.07832  0.78197  0.78197  Biso   1.000  C
  C462     1.0000 0.03396  0.89032  0.89032  Biso   1.000  C
  H114     1.0000 0.06184  0.88391  0.88391  Biso   1.000  H
  N90      1.0000 0.02099  0.91854  0.91854  Biso   1.000  N
  C463     1.0000 0.53715  0.26517  0.76517  Biso   1.000  C
  C464     1.0000 0.57832  0.28197  0.78197  Biso   1.000  C
  C465     1.0000 0.53396  0.39032  0.89032  Biso   1.000  C
  H115     1.0000 0.56184  0.38391  0.88391  Biso   1.000  H
  N91      1.0000 0.52099  0.41854  0.91854  Biso   1.000  N
  C466     1.0000 0.53715  0.76517  0.26517  Biso   1.000  C
  C467     1.0000 0.57832  0.78197  0.28197  Biso   1.000  C
  C468     1.0000 0.53396  0.89032  0.39032  Biso   1.000  C
  H116     1.0000 0.56184  0.88391  0.38391  Biso   1.000  H
  N92      1.0000 0.52099  0.91854  0.41854  Biso   1.000  N
  C469     1.0000 0.03715  0.73483  0.73483  Biso   1.000  C
  C470     1.0000 0.07832  0.71803  0.71803  Biso   1.000  C
  C471     1.0000 0.03396  0.60968  0.60968  Biso   1.000  C
  H117     1.0000 0.06184  0.61609  0.61609  Biso   1.000  H
  N93      1.0000 0.02099  0.58146  0.58146  Biso   1.000  N
  C472     1.0000 0.03715  0.23483  0.23483  Biso   1.000  C
  C473     1.0000 0.07832  0.21803  0.21803  Biso   1.000  C
  C474     1.0000 0.03396  0.10968  0.10968  Biso   1.000  C
  H118     1.0000 0.06184  0.11609  0.11609  Biso   1.000  H
  N94      1.0000 0.02099  0.08146  0.08146  Biso   1.000  N
  C475     1.0000 0.53715  0.73483  0.23483  Biso   1.000  C
  C476     1.0000 0.57832  0.71803  0.21803  Biso   1.000  C
  C477     1.0000 0.53396  0.60968  0.10968  Biso   1.000  C
  H119     1.0000 0.56184  0.61609  0.11609  Biso   1.000  H
  N95      1.0000 0.52099  0.58146  0.08146  Biso   1.000  N
  C478     1.0000 0.53715  0.23483  0.73483  Biso   1.000  C
  C479     1.0000 0.57832  0.21803  0.71803  Biso   1.000  C
  C480     1.0000 0.53396  0.10968  0.60968  Biso   1.000  C
  H120     1.0000 0.56184  0.11609  0.61609  Biso   1.000  H
  N96      1.0000 0.52099  0.08146  0.58146  Biso   1.000  N
