data_image0
_cell_length_a       24.62
_cell_length_b       24.62
_cell_length_c       83.68
_cell_angle_alpha    90
_cell_angle_beta     90
_cell_angle_gamma    90

_symmetry_space_group_name_H-M    "P 1"
_symmetry_int_tables_number       1

loop_
  _symmetry_equiv_pos_as_xyz
  'x, y, z'

loop_
  _atom_site_label
  _atom_site_occupancy
  _atom_site_fract_x
  _atom_site_fract_y
  _atom_site_fract_z
  _atom_site_thermal_displace_type
  _atom_site_B_iso_or_equiv
  _atom_site_type_symbol
  Cr1      1.0000 0.78735  0.29120  0.01820  Biso   1.000  Cr
  Cr2      1.0000 0.84410  0.27463  0.05395  Biso   1.000  Cr
  Cr3      1.0000 0.71380  0.29650  0.05030  Biso   1.000  Cr
  Ag1      1.0000 0.79051  0.51751  0.13078  Biso   1.000  Ag
  Ag2      1.0000 0.06967  0.51908  0.01079  Biso   1.000  Ag
  O1       1.0000 0.77420  0.28860  0.04000  Biso   1.000  O
  O2       1.0000 0.74470  0.35920  0.01856  Biso   1.000  O
  O3       1.0000 0.69020  0.36040  0.03852  Biso   1.000  O
  C1       1.0000 0.70550  0.37950  0.02580  Biso   1.000  C
  C2       1.0000 0.67930  0.43020  0.01985  Biso   1.000  C
  C3       1.0000 0.64030  0.45690  0.02904  Biso   1.000  C
  H1       1.0000 0.62940  0.44240  0.03910  Biso   1.000  H
  C4       1.0000 0.61750  0.50500  0.02350  Biso   1.000  C
  H2       1.0000 0.59010  0.52210  0.02960  Biso   1.000  H
  N1       1.0000 0.63270  0.52790  0.00970  Biso   1.000  N
  C5       1.0000 0.67100  0.50300  0.00103  Biso   1.000  C
  H3       1.0000 0.68260  0.51930  0.99130  Biso   1.000  H
  C6       1.0000 0.69470  0.45420  0.00566  Biso   1.000  C
  H4       1.0000 0.72130  0.43750  0.99910  Biso   1.000  H
  O4       1.0000 0.74130  0.33430  0.06760  Biso   1.000  O
  O5       1.0000 0.82910  0.33010  0.07075  Biso   1.000  O
  C7       1.0000 0.78280  0.34950  0.07345  Biso   1.000  C
  C8       1.0000 0.78370  0.39520  0.08484  Biso   1.000  C
  C9       1.0000 0.73820  0.42710  0.08813  Biso   1.000  C
  H5       1.0000 0.70620  0.42340  0.08190  Biso   1.000  H
  C10      1.0000 0.74010  0.46440  0.10060  Biso   1.000  C
  H6       1.0000 0.70940  0.48680  0.10250  Biso   1.000  H
  N2       1.0000 0.78370  0.46990  0.11000  Biso   1.000  N
  C11      1.0000 0.82680  0.43850  0.10709  Biso   1.000  C
  H7       1.0000 0.85770  0.44160  0.11380  Biso   1.000  H
  C12      1.0000 0.82840  0.40130  0.09460  Biso   1.000  C
  H8       1.0000 0.86010  0.38010  0.09280  Biso   1.000  H
  O6       1.0000 0.88910  0.32610  0.04399  Biso   1.000  O
  O7       1.0000 0.84860  0.33310  0.02013  Biso   1.000  O
  C13      1.0000 0.88530  0.34520  0.03050  Biso   1.000  C
  C14      1.0000 0.92630  0.38660  0.02500  Biso   1.000  C
  C15      1.0000 0.97050  0.40010  0.03462  Biso   1.000  C
  H9       1.0000 0.97510  0.38320  0.04480  Biso   1.000  H
  C16      1.0000 0.00790  0.43830  0.02930  Biso   1.000  C
  H10      1.0000 0.03720  0.44800  0.03610  Biso   1.000  H
  N3       1.0000 0.00410  0.46170  0.01490  Biso   1.000  N
  C17      1.0000 0.96240  0.44790  0.00553  Biso   1.000  C
  H11      1.0000 0.95980  0.46390  0.99520  Biso   1.000  H
  C18      1.0000 0.92270  0.41100  0.01022  Biso   1.000  C
  H12      1.0000 0.89330  0.40280  0.00330  Biso   1.000  H
  O8       1.0000 0.71870  0.23410  0.06426  Biso   1.000  O
  O9       1.0000 0.80290  0.22080  0.06520  Biso   1.000  O
  C19      1.0000 0.75650  0.20970  0.06902  Biso   1.000  C
  C20      1.0000 0.75040  0.16130  0.07903  Biso   1.000  C
  C21      1.0000 0.69950  0.14610  0.08480  Biso   1.000  C
  H13      1.0000 0.66810  0.16630  0.08200  Biso   1.000  H
  C22      1.0000 0.69500  0.10120  0.09480  Biso   1.000  C
  H14      1.0000 0.66030  0.09200  0.09900  Biso   1.000  H
  N4       1.0000 0.73780  0.07060  0.09876  Biso   1.000  N
  C23      1.0000 0.78640  0.08440  0.09290  Biso   1.000  C
  H15      1.0000 0.81690  0.06240  0.09550  Biso   1.000  H
  C24      1.0000 0.79420  0.12950  0.08320  Biso   1.000  C
  H16      1.0000 0.82960  0.13830  0.07940  Biso   1.000  H
  O10      1.0000 0.72450  0.24800  0.01400  Biso   1.000  O
  O11      1.0000 0.68120  0.24630  0.03610  Biso   1.000  O
  C25      1.0000 0.68600  0.23200  0.02210  Biso   1.000  C
  C26      1.0000 0.64460  0.19550  0.01528  Biso   1.000  C
  C27      1.0000 0.65050  0.17480  0.99986  Biso   1.000  C
  H17      1.0000 0.68170  0.18380  0.99370  Biso   1.000  H
  C28      1.0000 0.61070  0.14100  0.99358  Biso   1.000  C
  H18      1.0000 0.61460  0.12820  0.98290  Biso   1.000  H
  N5       1.0000 0.56700  0.12590  0.00200  Biso   1.000  N
  C29      1.0000 0.56190  0.14470  0.01690  Biso   1.000  C
  H19      1.0000 0.53140  0.13360  0.02300  Biso   1.000  H
  C30      1.0000 0.59940  0.17970  0.02384  Biso   1.000  C
  H20      1.0000 0.59400  0.19260  0.03440  Biso   1.000  H
  O12      1.0000 0.82720  0.22410  0.01615  Biso   1.000  O
  O13      1.0000 0.86620  0.21290  0.03943  Biso   1.000  O
  C31      1.0000 0.85900  0.20020  0.02540  Biso   1.000  C
  C32      1.0000 0.89090  0.15350  0.01888  Biso   1.000  C
  C33      1.0000 0.93200  0.12990  0.02801  Biso   1.000  C
  H21      1.0000 0.93910  0.14260  0.03850  Biso   1.000  H
  C34      1.0000 0.96250  0.08770  0.02160  Biso   1.000  C
  H22      1.0000 0.99120  0.07270  0.02780  Biso   1.000  H
  N6       1.0000 0.95290  0.06730  0.00710  Biso   1.000  N
  C35      1.0000 0.91270  0.08900  0.99847  Biso   1.000  C
  H23      1.0000 0.90520  0.07430  0.98820  Biso   1.000  H
  C36      1.0000 0.88130  0.13220  0.00390  Biso   1.000  C
  H24      1.0000 0.85350  0.14690  0.99730  Biso   1.000  H
  Cr4      1.0000 0.21265  0.70880  0.51820  Biso   1.000  Cr
  Cr5      1.0000 0.15590  0.72537  0.55395  Biso   1.000  Cr
  Cr6      1.0000 0.28620  0.70350  0.55030  Biso   1.000  Cr
  Ag3      1.0000 0.20949  0.48249  0.63078  Biso   1.000  Ag
  Ag4      1.0000 0.93033  0.48092  0.51079  Biso   1.000  Ag
  O14      1.0000 0.22580  0.71140  0.54000  Biso   1.000  O
  O15      1.0000 0.25530  0.64080  0.51856  Biso   1.000  O
  O16      1.0000 0.30980  0.63960  0.53852  Biso   1.000  O
  C37      1.0000 0.29450  0.62050  0.52580  Biso   1.000  C
  C38      1.0000 0.32070  0.56980  0.51985  Biso   1.000  C
  C39      1.0000 0.35970  0.54310  0.52904  Biso   1.000  C
  H25      1.0000 0.37060  0.55760  0.53910  Biso   1.000  H
  C40      1.0000 0.38250  0.49500  0.52350  Biso   1.000  C
  H26      1.0000 0.40990  0.47790  0.52960  Biso   1.000  H
  N7       1.0000 0.36730  0.47210  0.50970  Biso   1.000  N
  C41      1.0000 0.32900  0.49700  0.50103  Biso   1.000  C
  H27      1.0000 0.31740  0.48070  0.49130  Biso   1.000  H
  C42      1.0000 0.30530  0.54580  0.50566  Biso   1.000  C
  H28      1.0000 0.27870  0.56250  0.49910  Biso   1.000  H
  O17      1.0000 0.25870  0.66570  0.56760  Biso   1.000  O
  O18      1.0000 0.17090  0.66990  0.57075  Biso   1.000  O
  C43      1.0000 0.21720  0.65050  0.57345  Biso   1.000  C
  C44      1.0000 0.21630  0.60480  0.58484  Biso   1.000  C
  C45      1.0000 0.26180  0.57290  0.58813  Biso   1.000  C
  H29      1.0000 0.29380  0.57660  0.58190  Biso   1.000  H
  C46      1.0000 0.25990  0.53560  0.60060  Biso   1.000  C
  H30      1.0000 0.29060  0.51320  0.60250  Biso   1.000  H
  N8       1.0000 0.21630  0.53010  0.61000  Biso   1.000  N
  C47      1.0000 0.17320  0.56150  0.60709  Biso   1.000  C
  H31      1.0000 0.14230  0.55840  0.61380  Biso   1.000  H
  C48      1.0000 0.17160  0.59870  0.59460  Biso   1.000  C
  H32      1.0000 0.13990  0.61990  0.59280  Biso   1.000  H
  O19      1.0000 0.11090  0.67390  0.54399  Biso   1.000  O
  O20      1.0000 0.15140  0.66690  0.52013  Biso   1.000  O
  C49      1.0000 0.11470  0.65480  0.53050  Biso   1.000  C
  C50      1.0000 0.07370  0.61340  0.52500  Biso   1.000  C
  C51      1.0000 0.02950  0.59990  0.53462  Biso   1.000  C
  H33      1.0000 0.02490  0.61680  0.54480  Biso   1.000  H
  C52      1.0000 0.99210  0.56170  0.52930  Biso   1.000  C
  H34      1.0000 0.96280  0.55200  0.53610  Biso   1.000  H
  N9       1.0000 0.99590  0.53830  0.51490  Biso   1.000  N
  C53      1.0000 0.03760  0.55210  0.50553  Biso   1.000  C
  H35      1.0000 0.04020  0.53610  0.49520  Biso   1.000  H
  C54      1.0000 0.07730  0.58900  0.51022  Biso   1.000  C
  H36      1.0000 0.10670  0.59720  0.50330  Biso   1.000  H
  O21      1.0000 0.28130  0.76590  0.56426  Biso   1.000  O
  O22      1.0000 0.19710  0.77920  0.56520  Biso   1.000  O
  C55      1.0000 0.24350  0.79030  0.56902  Biso   1.000  C
  C56      1.0000 0.24960  0.83870  0.57903  Biso   1.000  C
  C57      1.0000 0.30050  0.85390  0.58480  Biso   1.000  C
  H37      1.0000 0.33190  0.83370  0.58200  Biso   1.000  H
  C58      1.0000 0.30500  0.89880  0.59480  Biso   1.000  C
  H38      1.0000 0.33970  0.90800  0.59900  Biso   1.000  H
  N10      1.0000 0.26220  0.92940  0.59876  Biso   1.000  N
  C59      1.0000 0.21360  0.91560  0.59290  Biso   1.000  C
  H39      1.0000 0.18310  0.93760  0.59550  Biso   1.000  H
  C60      1.0000 0.20580  0.87050  0.58320  Biso   1.000  C
  H40      1.0000 0.17040  0.86170  0.57940  Biso   1.000  H
  O23      1.0000 0.27550  0.75200  0.51400  Biso   1.000  O
  O24      1.0000 0.31880  0.75370  0.53610  Biso   1.000  O
  C61      1.0000 0.31400  0.76800  0.52210  Biso   1.000  C
  C62      1.0000 0.35540  0.80450  0.51528  Biso   1.000  C
  C63      1.0000 0.34950  0.82520  0.49986  Biso   1.000  C
  H41      1.0000 0.31830  0.81620  0.49370  Biso   1.000  H
  C64      1.0000 0.38930  0.85900  0.49358  Biso   1.000  C
  H42      1.0000 0.38540  0.87180  0.48290  Biso   1.000  H
  N11      1.0000 0.43300  0.87410  0.50200  Biso   1.000  N
  C65      1.0000 0.43810  0.85530  0.51690  Biso   1.000  C
  H43      1.0000 0.46860  0.86640  0.52300  Biso   1.000  H
  C66      1.0000 0.40060  0.82030  0.52384  Biso   1.000  C
  H44      1.0000 0.40600  0.80740  0.53440  Biso   1.000  H
  O25      1.0000 0.17280  0.77590  0.51615  Biso   1.000  O
  O26      1.0000 0.13380  0.78710  0.53943  Biso   1.000  O
  C67      1.0000 0.14100  0.79980  0.52540  Biso   1.000  C
  C68      1.0000 0.10910  0.84650  0.51888  Biso   1.000  C
  C69      1.0000 0.06800  0.87010  0.52801  Biso   1.000  C
  H45      1.0000 0.06090  0.85740  0.53850  Biso   1.000  H
  C70      1.0000 0.03750  0.91230  0.52160  Biso   1.000  C
  H46      1.0000 0.00880  0.92730  0.52780  Biso   1.000  H
  N12      1.0000 0.04710  0.93270  0.50710  Biso   1.000  N
  C71      1.0000 0.08730  0.91100  0.49847  Biso   1.000  C
  H47      1.0000 0.09480  0.92570  0.48820  Biso   1.000  H
  C72      1.0000 0.11870  0.86780  0.50390  Biso   1.000  C
  H48      1.0000 0.14650  0.85310  0.49730  Biso   1.000  H
  Cr7      1.0000 0.20880  0.28735  0.26820  Biso   1.000  Cr
  Cr8      1.0000 0.22537  0.34410  0.30395  Biso   1.000  Cr
  Cr9      1.0000 0.20350  0.21380  0.30030  Biso   1.000  Cr
  Ag5      1.0000 0.98249  0.29051  0.38078  Biso   1.000  Ag
  Ag6      1.0000 0.98092  0.56967  0.26079  Biso   1.000  Ag
  O27      1.0000 0.21140  0.27420  0.29000  Biso   1.000  O
  O28      1.0000 0.14080  0.24470  0.26856  Biso   1.000  O
  O29      1.0000 0.13960  0.19020  0.28852  Biso   1.000  O
  C73      1.0000 0.12050  0.20550  0.27580  Biso   1.000  C
  C74      1.0000 0.06980  0.17930  0.26985  Biso   1.000  C
  C75      1.0000 0.04310  0.14030  0.27904  Biso   1.000  C
  H49      1.0000 0.05760  0.12940  0.28910  Biso   1.000  H
  C76      1.0000 0.99500  0.11750  0.27350  Biso   1.000  C
  H50      1.0000 0.97790  0.09010  0.27960  Biso   1.000  H
  N13      1.0000 0.97210  0.13270  0.25970  Biso   1.000  N
  C77      1.0000 0.99700  0.17100  0.25103  Biso   1.000  C
  H51      1.0000 0.98070  0.18260  0.24130  Biso   1.000  H
  C78      1.0000 0.04580  0.19470  0.25566  Biso   1.000  C
  H52      1.0000 0.06250  0.22130  0.24910  Biso   1.000  H
  O30      1.0000 0.16570  0.24130  0.31760  Biso   1.000  O
  O31      1.0000 0.16990  0.32910  0.32075  Biso   1.000  O
  C79      1.0000 0.15050  0.28280  0.32345  Biso   1.000  C
  C80      1.0000 0.10480  0.28370  0.33484  Biso   1.000  C
  C81      1.0000 0.07290  0.23820  0.33813  Biso   1.000  C
  H53      1.0000 0.07660  0.20620  0.33190  Biso   1.000  H
  C82      1.0000 0.03560  0.24010  0.35060  Biso   1.000  C
  H54      1.0000 0.01320  0.20940  0.35250  Biso   1.000  H
  N14      1.0000 0.03010  0.28370  0.36000  Biso   1.000  N
  C83      1.0000 0.06150  0.32680  0.35709  Biso   1.000  C
  H55      1.0000 0.05840  0.35770  0.36380  Biso   1.000  H
  C84      1.0000 0.09870  0.32840  0.34460  Biso   1.000  C
  H56      1.0000 0.11990  0.36010  0.34280  Biso   1.000  H
  O32      1.0000 0.17390  0.38910  0.29399  Biso   1.000  O
  O33      1.0000 0.16690  0.34860  0.27013  Biso   1.000  O
  C85      1.0000 0.15480  0.38530  0.28050  Biso   1.000  C
  C86      1.0000 0.11340  0.42630  0.27500  Biso   1.000  C
  C87      1.0000 0.09990  0.47050  0.28462  Biso   1.000  C
  H57      1.0000 0.11680  0.47510  0.29480  Biso   1.000  H
  C88      1.0000 0.06170  0.50790  0.27930  Biso   1.000  C
  H58      1.0000 0.05200  0.53720  0.28610  Biso   1.000  H
  N15      1.0000 0.03830  0.50410  0.26490  Biso   1.000  N
  C89      1.0000 0.05210  0.46240  0.25553  Biso   1.000  C
  H59      1.0000 0.03610  0.45980  0.24520  Biso   1.000  H
  C90      1.0000 0.08900  0.42270  0.26022  Biso   1.000  C
  H60      1.0000 0.09720  0.39330  0.25330  Biso   1.000  H
  O34      1.0000 0.26590  0.21870  0.31426  Biso   1.000  O
  O35      1.0000 0.27920  0.30290  0.31520  Biso   1.000  O
  C91      1.0000 0.29030  0.25650  0.31902  Biso   1.000  C
  C92      1.0000 0.33870  0.25040  0.32903  Biso   1.000  C
  C93      1.0000 0.35390  0.19950  0.33480  Biso   1.000  C
  H61      1.0000 0.33370  0.16810  0.33200  Biso   1.000  H
  C94      1.0000 0.39880  0.19500  0.34480  Biso   1.000  C
  H62      1.0000 0.40800  0.16030  0.34900  Biso   1.000  H
  N16      1.0000 0.42940  0.23780  0.34876  Biso   1.000  N
  C95      1.0000 0.41560  0.28640  0.34290  Biso   1.000  C
  H63      1.0000 0.43760  0.31690  0.34550  Biso   1.000  H
  C96      1.0000 0.37050  0.29420  0.33320  Biso   1.000  C
  H64      1.0000 0.36170  0.32960  0.32940  Biso   1.000  H
  O36      1.0000 0.25200  0.22450  0.26400  Biso   1.000  O
  O37      1.0000 0.25370  0.18120  0.28610  Biso   1.000  O
  C97      1.0000 0.26800  0.18600  0.27210  Biso   1.000  C
  C98      1.0000 0.30450  0.14460  0.26528  Biso   1.000  C
  C99      1.0000 0.32520  0.15050  0.24986  Biso   1.000  C
  H65      1.0000 0.31620  0.18170  0.24370  Biso   1.000  H
  C100     1.0000 0.35900  0.11070  0.24358  Biso   1.000  C
  H66      1.0000 0.37180  0.11460  0.23290  Biso   1.000  H
  N17      1.0000 0.37410  0.06700  0.25200  Biso   1.000  N
  C101     1.0000 0.35530  0.06190  0.26690  Biso   1.000  C
  H67      1.0000 0.36640  0.03140  0.27300  Biso   1.000  H
  C102     1.0000 0.32030  0.09940  0.27384  Biso   1.000  C
  H68      1.0000 0.30740  0.09400  0.28440  Biso   1.000  H
  O38      1.0000 0.27590  0.32720  0.26615  Biso   1.000  O
  O39      1.0000 0.28710  0.36620  0.28943  Biso   1.000  O
  C103     1.0000 0.29980  0.35900  0.27540  Biso   1.000  C
  C104     1.0000 0.34650  0.39090  0.26888  Biso   1.000  C
  C105     1.0000 0.37010  0.43200  0.27801  Biso   1.000  C
  H69      1.0000 0.35740  0.43910  0.28850  Biso   1.000  H
  C106     1.0000 0.41230  0.46250  0.27160  Biso   1.000  C
  H70      1.0000 0.42730  0.49120  0.27780  Biso   1.000  H
  N18      1.0000 0.43270  0.45290  0.25710  Biso   1.000  N
  C107     1.0000 0.41100  0.41270  0.24847  Biso   1.000  C
  H71      1.0000 0.42570  0.40520  0.23820  Biso   1.000  H
  C108     1.0000 0.36780  0.38130  0.25390  Biso   1.000  C
  H72      1.0000 0.35310  0.35350  0.24730  Biso   1.000  H
  Cr10     1.0000 0.79120  0.71265  0.76820  Biso   1.000  Cr
  Cr11     1.0000 0.77463  0.65590  0.80395  Biso   1.000  Cr
  Cr12     1.0000 0.79650  0.78620  0.80030  Biso   1.000  Cr
  Ag7      1.0000 0.01751  0.70949  0.88078  Biso   1.000  Ag
  Ag8      1.0000 0.01908  0.43033  0.76079  Biso   1.000  Ag
  O40      1.0000 0.78860  0.72580  0.79000  Biso   1.000  O
  O41      1.0000 0.85920  0.75530  0.76856  Biso   1.000  O
  O42      1.0000 0.86040  0.80980  0.78852  Biso   1.000  O
  C109     1.0000 0.87950  0.79450  0.77580  Biso   1.000  C
  C110     1.0000 0.93020  0.82070  0.76985  Biso   1.000  C
  C111     1.0000 0.95690  0.85970  0.77904  Biso   1.000  C
  H73      1.0000 0.94240  0.87060  0.78910  Biso   1.000  H
  C112     1.0000 0.00500  0.88250  0.77350  Biso   1.000  C
  H74      1.0000 0.02210  0.90990  0.77960  Biso   1.000  H
  N19      1.0000 0.02790  0.86730  0.75970  Biso   1.000  N
  C113     1.0000 0.00300  0.82900  0.75103  Biso   1.000  C
  H75      1.0000 0.01930  0.81740  0.74130  Biso   1.000  H
  C114     1.0000 0.95420  0.80530  0.75566  Biso   1.000  C
  H76      1.0000 0.93750  0.77870  0.74910  Biso   1.000  H
  O43      1.0000 0.83430  0.75870  0.81760  Biso   1.000  O
  O44      1.0000 0.83010  0.67090  0.82075  Biso   1.000  O
  C115     1.0000 0.84950  0.71720  0.82345  Biso   1.000  C
  C116     1.0000 0.89520  0.71630  0.83484  Biso   1.000  C
  C117     1.0000 0.92710  0.76180  0.83813  Biso   1.000  C
  H77      1.0000 0.92340  0.79380  0.83190  Biso   1.000  H
  C118     1.0000 0.96440  0.75990  0.85060  Biso   1.000  C
  H78      1.0000 0.98680  0.79060  0.85250  Biso   1.000  H
  N20      1.0000 0.96990  0.71630  0.86000  Biso   1.000  N
  C119     1.0000 0.93850  0.67320  0.85709  Biso   1.000  C
  H79      1.0000 0.94160  0.64230  0.86380  Biso   1.000  H
  C120     1.0000 0.90130  0.67160  0.84460  Biso   1.000  C
  H80      1.0000 0.88010  0.63990  0.84280  Biso   1.000  H
  O45      1.0000 0.82610  0.61090  0.79399  Biso   1.000  O
  O46      1.0000 0.83310  0.65140  0.77013  Biso   1.000  O
  C121     1.0000 0.84520  0.61470  0.78050  Biso   1.000  C
  C122     1.0000 0.88660  0.57370  0.77500  Biso   1.000  C
  C123     1.0000 0.90010  0.52950  0.78462  Biso   1.000  C
  H81      1.0000 0.88320  0.52490  0.79480  Biso   1.000  H
  C124     1.0000 0.93830  0.49210  0.77930  Biso   1.000  C
  H82      1.0000 0.94800  0.46280  0.78610  Biso   1.000  H
  N21      1.0000 0.96170  0.49590  0.76490  Biso   1.000  N
  C125     1.0000 0.94790  0.53760  0.75553  Biso   1.000  C
  H83      1.0000 0.96390  0.54020  0.74520  Biso   1.000  H
  C126     1.0000 0.91100  0.57730  0.76022  Biso   1.000  C
  H84      1.0000 0.90280  0.60670  0.75330  Biso   1.000  H
  O47      1.0000 0.73410  0.78130  0.81426  Biso   1.000  O
  O48      1.0000 0.72080  0.69710  0.81520  Biso   1.000  O
  C127     1.0000 0.70970  0.74350  0.81902  Biso   1.000  C
  C128     1.0000 0.66130  0.74960  0.82903  Biso   1.000  C
  C129     1.0000 0.64610  0.80050  0.83480  Biso   1.000  C
  H85      1.0000 0.66630  0.83190  0.83200  Biso   1.000  H
  C130     1.0000 0.60120  0.80500  0.84480  Biso   1.000  C
  H86      1.0000 0.59200  0.83970  0.84900  Biso   1.000  H
  N22      1.0000 0.57060  0.76220  0.84876  Biso   1.000  N
  C131     1.0000 0.58440  0.71360  0.84290  Biso   1.000  C
  H87      1.0000 0.56240  0.68310  0.84550  Biso   1.000  H
  C132     1.0000 0.62950  0.70580  0.83320  Biso   1.000  C
  H88      1.0000 0.63830  0.67040  0.82940  Biso   1.000  H
  O49      1.0000 0.74800  0.77550  0.76400  Biso   1.000  O
  O50      1.0000 0.74630  0.81880  0.78610  Biso   1.000  O
  C133     1.0000 0.73200  0.81400  0.77210  Biso   1.000  C
  C134     1.0000 0.69550  0.85540  0.76528  Biso   1.000  C
  C135     1.0000 0.67480  0.84950  0.74986  Biso   1.000  C
  H89      1.0000 0.68380  0.81830  0.74370  Biso   1.000  H
  C136     1.0000 0.64100  0.88930  0.74358  Biso   1.000  C
  H90      1.0000 0.62820  0.88540  0.73290  Biso   1.000  H
  N23      1.0000 0.62590  0.93300  0.75200  Biso   1.000  N
  C137     1.0000 0.64470  0.93810  0.76690  Biso   1.000  C
  H91      1.0000 0.63360  0.96860  0.77300  Biso   1.000  H
  C138     1.0000 0.67970  0.90060  0.77384  Biso   1.000  C
  H92      1.0000 0.69260  0.90600  0.78440  Biso   1.000  H
  O51      1.0000 0.72410  0.67280  0.76615  Biso   1.000  O
  O52      1.0000 0.71290  0.63380  0.78943  Biso   1.000  O
  C139     1.0000 0.70020  0.64100  0.77540  Biso   1.000  C
  C140     1.0000 0.65350  0.60910  0.76888  Biso   1.000  C
  C141     1.0000 0.62990  0.56800  0.77801  Biso   1.000  C
  H93      1.0000 0.64260  0.56090  0.78850  Biso   1.000  H
  C142     1.0000 0.58770  0.53750  0.77160  Biso   1.000  C
  H94      1.0000 0.57270  0.50880  0.77780  Biso   1.000  H
  N24      1.0000 0.56730  0.54710  0.75710  Biso   1.000  N
  C143     1.0000 0.58900  0.58730  0.74847  Biso   1.000  C
  H95      1.0000 0.57430  0.59480  0.73820  Biso   1.000  H
  C144     1.0000 0.63220  0.61870  0.75390  Biso   1.000  C
  H96      1.0000 0.64690  0.64650  0.74730  Biso   1.000  H
  Cr13     1.0000 0.71265  0.79120  0.23180  Biso   1.000  Cr
  Cr14     1.0000 0.65590  0.77463  0.19605  Biso   1.000  Cr
  Cr15     1.0000 0.78620  0.79650  0.19970  Biso   1.000  Cr
  Ag9      1.0000 0.70949  0.01751  0.11922  Biso   1.000  Ag
  Ag10     1.0000 0.43033  0.01908  0.23921  Biso   1.000  Ag
  O53      1.0000 0.72580  0.78860  0.21000  Biso   1.000  O
  O54      1.0000 0.75530  0.85920  0.23144  Biso   1.000  O
  O55      1.0000 0.80980  0.86040  0.21148  Biso   1.000  O
  C145     1.0000 0.79450  0.87950  0.22420  Biso   1.000  C
  C146     1.0000 0.82070  0.93020  0.23015  Biso   1.000  C
  C147     1.0000 0.85970  0.95690  0.22096  Biso   1.000  C
  H97      1.0000 0.87060  0.94240  0.21090  Biso   1.000  H
  C148     1.0000 0.88250  0.00500  0.22650  Biso   1.000  C
  H98      1.0000 0.90990  0.02210  0.22040  Biso   1.000  H
  N25      1.0000 0.86730  0.02790  0.24030  Biso   1.000  N
  C149     1.0000 0.82900  0.00300  0.24897  Biso   1.000  C
  H99      1.0000 0.81740  0.01930  0.25870  Biso   1.000  H
  C150     1.0000 0.80530  0.95420  0.24434  Biso   1.000  C
  H100     1.0000 0.77870  0.93750  0.25090  Biso   1.000  H
  O56      1.0000 0.75870  0.83430  0.18240  Biso   1.000  O
  O57      1.0000 0.67090  0.83010  0.17925  Biso   1.000  O
  C151     1.0000 0.71720  0.84950  0.17655  Biso   1.000  C
  C152     1.0000 0.71630  0.89520  0.16516  Biso   1.000  C
  C153     1.0000 0.76180  0.92710  0.16187  Biso   1.000  C
  H101     1.0000 0.79380  0.92340  0.16810  Biso   1.000  H
  C154     1.0000 0.75990  0.96440  0.14940  Biso   1.000  C
  H102     1.0000 0.79060  0.98680  0.14750  Biso   1.000  H
  N26      1.0000 0.71630  0.96990  0.14000  Biso   1.000  N
  C155     1.0000 0.67320  0.93850  0.14291  Biso   1.000  C
  H103     1.0000 0.64230  0.94160  0.13620  Biso   1.000  H
  C156     1.0000 0.67160  0.90130  0.15540  Biso   1.000  C
  H104     1.0000 0.63990  0.88010  0.15720  Biso   1.000  H
  O58      1.0000 0.61090  0.82610  0.20601  Biso   1.000  O
  O59      1.0000 0.65140  0.83310  0.22987  Biso   1.000  O
  C157     1.0000 0.61470  0.84520  0.21950  Biso   1.000  C
  C158     1.0000 0.57370  0.88660  0.22500  Biso   1.000  C
  C159     1.0000 0.52950  0.90010  0.21538  Biso   1.000  C
  H105     1.0000 0.52490  0.88320  0.20520  Biso   1.000  H
  C160     1.0000 0.49210  0.93830  0.22070  Biso   1.000  C
  H106     1.0000 0.46280  0.94800  0.21390  Biso   1.000  H
  N27      1.0000 0.49590  0.96170  0.23510  Biso   1.000  N
  C161     1.0000 0.53760  0.94790  0.24447  Biso   1.000  C
  H107     1.0000 0.54020  0.96390  0.25480  Biso   1.000  H
  C162     1.0000 0.57730  0.91100  0.23978  Biso   1.000  C
  H108     1.0000 0.60670  0.90280  0.24670  Biso   1.000  H
  O60      1.0000 0.78130  0.73410  0.18574  Biso   1.000  O
  O61      1.0000 0.69710  0.72080  0.18480  Biso   1.000  O
  C163     1.0000 0.74350  0.70970  0.18098  Biso   1.000  C
  C164     1.0000 0.74960  0.66130  0.17097  Biso   1.000  C
  C165     1.0000 0.80050  0.64610  0.16520  Biso   1.000  C
  H109     1.0000 0.83190  0.66630  0.16800  Biso   1.000  H
  C166     1.0000 0.80500  0.60120  0.15520  Biso   1.000  C
  H110     1.0000 0.83970  0.59200  0.15100  Biso   1.000  H
  N28      1.0000 0.76220  0.57060  0.15124  Biso   1.000  N
  C167     1.0000 0.71360  0.58440  0.15710  Biso   1.000  C
  H111     1.0000 0.68310  0.56240  0.15450  Biso   1.000  H
  C168     1.0000 0.70580  0.62950  0.16680  Biso   1.000  C
  H112     1.0000 0.67040  0.63830  0.17060  Biso   1.000  H
  O62      1.0000 0.77550  0.74800  0.23600  Biso   1.000  O
  O63      1.0000 0.81880  0.74630  0.21390  Biso   1.000  O
  C169     1.0000 0.81400  0.73200  0.22790  Biso   1.000  C
  C170     1.0000 0.85540  0.69550  0.23472  Biso   1.000  C
  C171     1.0000 0.84950  0.67480  0.25014  Biso   1.000  C
  H113     1.0000 0.81830  0.68380  0.25630  Biso   1.000  H
  C172     1.0000 0.88930  0.64100  0.25642  Biso   1.000  C
  H114     1.0000 0.88540  0.62820  0.26710  Biso   1.000  H
  N29      1.0000 0.93300  0.62590  0.24800  Biso   1.000  N
  C173     1.0000 0.93810  0.64470  0.23310  Biso   1.000  C
  H115     1.0000 0.96860  0.63360  0.22700  Biso   1.000  H
  C174     1.0000 0.90060  0.67970  0.22616  Biso   1.000  C
  H116     1.0000 0.90600  0.69260  0.21560  Biso   1.000  H
  O64      1.0000 0.67280  0.72410  0.23385  Biso   1.000  O
  O65      1.0000 0.63380  0.71290  0.21057  Biso   1.000  O
  C175     1.0000 0.64100  0.70020  0.22460  Biso   1.000  C
  C176     1.0000 0.60910  0.65350  0.23112  Biso   1.000  C
  C177     1.0000 0.56800  0.62990  0.22199  Biso   1.000  C
  H117     1.0000 0.56090  0.64260  0.21150  Biso   1.000  H
  C178     1.0000 0.53750  0.58770  0.22840  Biso   1.000  C
  H118     1.0000 0.50880  0.57270  0.22220  Biso   1.000  H
  N30      1.0000 0.54710  0.56730  0.24290  Biso   1.000  N
  C179     1.0000 0.58730  0.58900  0.25153  Biso   1.000  C
  H119     1.0000 0.59480  0.57430  0.26180  Biso   1.000  H
  C180     1.0000 0.61870  0.63220  0.24610  Biso   1.000  C
  H120     1.0000 0.64650  0.64690  0.25270  Biso   1.000  H
  Cr16     1.0000 0.28735  0.20880  0.73180  Biso   1.000  Cr
  Cr17     1.0000 0.34410  0.22537  0.69605  Biso   1.000  Cr
  Cr18     1.0000 0.21380  0.20350  0.69970  Biso   1.000  Cr
  Ag11     1.0000 0.29051  0.98249  0.61922  Biso   1.000  Ag
  Ag12     1.0000 0.56967  0.98092  0.73921  Biso   1.000  Ag
  O66      1.0000 0.27420  0.21140  0.71000  Biso   1.000  O
  O67      1.0000 0.24470  0.14080  0.73144  Biso   1.000  O
  O68      1.0000 0.19020  0.13960  0.71148  Biso   1.000  O
  C181     1.0000 0.20550  0.12050  0.72420  Biso   1.000  C
  C182     1.0000 0.17930  0.06980  0.73015  Biso   1.000  C
  C183     1.0000 0.14030  0.04310  0.72096  Biso   1.000  C
  H121     1.0000 0.12940  0.05760  0.71090  Biso   1.000  H
  C184     1.0000 0.11750  0.99500  0.72650  Biso   1.000  C
  H122     1.0000 0.09010  0.97790  0.72040  Biso   1.000  H
  N31      1.0000 0.13270  0.97210  0.74030  Biso   1.000  N
  C185     1.0000 0.17100  0.99700  0.74897  Biso   1.000  C
  H123     1.0000 0.18260  0.98070  0.75870  Biso   1.000  H
  C186     1.0000 0.19470  0.04580  0.74434  Biso   1.000  C
  H124     1.0000 0.22130  0.06250  0.75090  Biso   1.000  H
  O69      1.0000 0.24130  0.16570  0.68240  Biso   1.000  O
  O70      1.0000 0.32910  0.16990  0.67925  Biso   1.000  O
  C187     1.0000 0.28280  0.15050  0.67655  Biso   1.000  C
  C188     1.0000 0.28370  0.10480  0.66516  Biso   1.000  C
  C189     1.0000 0.23820  0.07290  0.66187  Biso   1.000  C
  H125     1.0000 0.20620  0.07660  0.66810  Biso   1.000  H
  C190     1.0000 0.24010  0.03560  0.64940  Biso   1.000  C
  H126     1.0000 0.20940  0.01320  0.64750  Biso   1.000  H
  N32      1.0000 0.28370  0.03010  0.64000  Biso   1.000  N
  C191     1.0000 0.32680  0.06150  0.64291  Biso   1.000  C
  H127     1.0000 0.35770  0.05840  0.63620  Biso   1.000  H
  C192     1.0000 0.32840  0.09870  0.65540  Biso   1.000  C
  H128     1.0000 0.36010  0.11990  0.65720  Biso   1.000  H
  O71      1.0000 0.38910  0.17390  0.70601  Biso   1.000  O
  O72      1.0000 0.34860  0.16690  0.72987  Biso   1.000  O
  C193     1.0000 0.38530  0.15480  0.71950  Biso   1.000  C
  C194     1.0000 0.42630  0.11340  0.72500  Biso   1.000  C
  C195     1.0000 0.47050  0.09990  0.71538  Biso   1.000  C
  H129     1.0000 0.47510  0.11680  0.70520  Biso   1.000  H
  C196     1.0000 0.50790  0.06170  0.72070  Biso   1.000  C
  H130     1.0000 0.53720  0.05200  0.71390  Biso   1.000  H
  N33      1.0000 0.50410  0.03830  0.73510  Biso   1.000  N
  C197     1.0000 0.46240  0.05210  0.74447  Biso   1.000  C
  H131     1.0000 0.45980  0.03610  0.75480  Biso   1.000  H
  C198     1.0000 0.42270  0.08900  0.73978  Biso   1.000  C
  H132     1.0000 0.39330  0.09720  0.74670  Biso   1.000  H
  O73      1.0000 0.21870  0.26590  0.68574  Biso   1.000  O
  O74      1.0000 0.30290  0.27920  0.68480  Biso   1.000  O
  C199     1.0000 0.25650  0.29030  0.68098  Biso   1.000  C
  C200     1.0000 0.25040  0.33870  0.67097  Biso   1.000  C
  C201     1.0000 0.19950  0.35390  0.66520  Biso   1.000  C
  H133     1.0000 0.16810  0.33370  0.66800  Biso   1.000  H
  C202     1.0000 0.19500  0.39880  0.65520  Biso   1.000  C
  H134     1.0000 0.16030  0.40800  0.65100  Biso   1.000  H
  N34      1.0000 0.23780  0.42940  0.65124  Biso   1.000  N
  C203     1.0000 0.28640  0.41560  0.65710  Biso   1.000  C
  H135     1.0000 0.31690  0.43760  0.65450  Biso   1.000  H
  C204     1.0000 0.29420  0.37050  0.66680  Biso   1.000  C
  H136     1.0000 0.32960  0.36170  0.67060  Biso   1.000  H
  O75      1.0000 0.22450  0.25200  0.73600  Biso   1.000  O
  O76      1.0000 0.18120  0.25370  0.71390  Biso   1.000  O
  C205     1.0000 0.18600  0.26800  0.72790  Biso   1.000  C
  C206     1.0000 0.14460  0.30450  0.73472  Biso   1.000  C
  C207     1.0000 0.15050  0.32520  0.75014  Biso   1.000  C
  H137     1.0000 0.18170  0.31620  0.75630  Biso   1.000  H
  C208     1.0000 0.11070  0.35900  0.75642  Biso   1.000  C
  H138     1.0000 0.11460  0.37180  0.76710  Biso   1.000  H
  N35      1.0000 0.06700  0.37410  0.74800  Biso   1.000  N
  C209     1.0000 0.06190  0.35530  0.73310  Biso   1.000  C
  H139     1.0000 0.03140  0.36640  0.72700  Biso   1.000  H
  C210     1.0000 0.09940  0.32030  0.72616  Biso   1.000  C
  H140     1.0000 0.09400  0.30740  0.71560  Biso   1.000  H
  O77      1.0000 0.32720  0.27590  0.73385  Biso   1.000  O
  O78      1.0000 0.36620  0.28710  0.71057  Biso   1.000  O
  C211     1.0000 0.35900  0.29980  0.72460  Biso   1.000  C
  C212     1.0000 0.39090  0.34650  0.73112  Biso   1.000  C
  C213     1.0000 0.43200  0.37010  0.72199  Biso   1.000  C
  H141     1.0000 0.43910  0.35740  0.71150  Biso   1.000  H
  C214     1.0000 0.46250  0.41230  0.72840  Biso   1.000  C
  H142     1.0000 0.49120  0.42730  0.72220  Biso   1.000  H
  N36      1.0000 0.45290  0.43270  0.74290  Biso   1.000  N
  C215     1.0000 0.41270  0.41100  0.75153  Biso   1.000  C
  H143     1.0000 0.40520  0.42570  0.76180  Biso   1.000  H
  C216     1.0000 0.38130  0.36780  0.74610  Biso   1.000  C
  H144     1.0000 0.35350  0.35310  0.75270  Biso   1.000  H
  Cr19     1.0000 0.29120  0.78735  0.98180  Biso   1.000  Cr
  Cr20     1.0000 0.27463  0.84410  0.94605  Biso   1.000  Cr
  Cr21     1.0000 0.29650  0.71380  0.94970  Biso   1.000  Cr
  Ag13     1.0000 0.51751  0.79051  0.86922  Biso   1.000  Ag
  Ag14     1.0000 0.51908  0.06967  0.98921  Biso   1.000  Ag
  O79      1.0000 0.28860  0.77420  0.96000  Biso   1.000  O
  O80      1.0000 0.35920  0.74470  0.98144  Biso   1.000  O
  O81      1.0000 0.36040  0.69020  0.96148  Biso   1.000  O
  C217     1.0000 0.37950  0.70550  0.97420  Biso   1.000  C
  C218     1.0000 0.43020  0.67930  0.98015  Biso   1.000  C
  C219     1.0000 0.45690  0.64030  0.97096  Biso   1.000  C
  H145     1.0000 0.44240  0.62940  0.96090  Biso   1.000  H
  C220     1.0000 0.50500  0.61750  0.97650  Biso   1.000  C
  H146     1.0000 0.52210  0.59010  0.97040  Biso   1.000  H
  N37      1.0000 0.52790  0.63270  0.99030  Biso   1.000  N
  C221     1.0000 0.50300  0.67100  0.99897  Biso   1.000  C
  H147     1.0000 0.51930  0.68260  0.00870  Biso   1.000  H
  C222     1.0000 0.45420  0.69470  0.99434  Biso   1.000  C
  H148     1.0000 0.43750  0.72130  0.00090  Biso   1.000  H
  O82      1.0000 0.33430  0.74130  0.93240  Biso   1.000  O
  O83      1.0000 0.33010  0.82910  0.92925  Biso   1.000  O
  C223     1.0000 0.34950  0.78280  0.92655  Biso   1.000  C
  C224     1.0000 0.39520  0.78370  0.91516  Biso   1.000  C
  C225     1.0000 0.42710  0.73820  0.91187  Biso   1.000  C
  H149     1.0000 0.42340  0.70620  0.91810  Biso   1.000  H
  C226     1.0000 0.46440  0.74010  0.89940  Biso   1.000  C
  H150     1.0000 0.48680  0.70940  0.89750  Biso   1.000  H
  N38      1.0000 0.46990  0.78370  0.89000  Biso   1.000  N
  C227     1.0000 0.43850  0.82680  0.89291  Biso   1.000  C
  H151     1.0000 0.44160  0.85770  0.88620  Biso   1.000  H
  C228     1.0000 0.40130  0.82840  0.90540  Biso   1.000  C
  H152     1.0000 0.38010  0.86010  0.90720  Biso   1.000  H
  O84      1.0000 0.32610  0.88910  0.95601  Biso   1.000  O
  O85      1.0000 0.33310  0.84860  0.97987  Biso   1.000  O
  C229     1.0000 0.34520  0.88530  0.96950  Biso   1.000  C
  C230     1.0000 0.38660  0.92630  0.97500  Biso   1.000  C
  C231     1.0000 0.40010  0.97050  0.96538  Biso   1.000  C
  H153     1.0000 0.38320  0.97510  0.95520  Biso   1.000  H
  C232     1.0000 0.43830  0.00790  0.97070  Biso   1.000  C
  H154     1.0000 0.44800  0.03720  0.96390  Biso   1.000  H
  N39      1.0000 0.46170  0.00410  0.98510  Biso   1.000  N
  C233     1.0000 0.44790  0.96240  0.99447  Biso   1.000  C
  H155     1.0000 0.46390  0.95980  0.00480  Biso   1.000  H
  C234     1.0000 0.41100  0.92270  0.98978  Biso   1.000  C
  H156     1.0000 0.40280  0.89330  0.99670  Biso   1.000  H
  O86      1.0000 0.23410  0.71870  0.93574  Biso   1.000  O
  O87      1.0000 0.22080  0.80290  0.93480  Biso   1.000  O
  C235     1.0000 0.20970  0.75650  0.93098  Biso   1.000  C
  C236     1.0000 0.16130  0.75040  0.92097  Biso   1.000  C
  C237     1.0000 0.14610  0.69950  0.91520  Biso   1.000  C
  H157     1.0000 0.16630  0.66810  0.91800  Biso   1.000  H
  C238     1.0000 0.10120  0.69500  0.90520  Biso   1.000  C
  H158     1.0000 0.09200  0.66030  0.90100  Biso   1.000  H
  N40      1.0000 0.07060  0.73780  0.90124  Biso   1.000  N
  C239     1.0000 0.08440  0.78640  0.90710  Biso   1.000  C
  H159     1.0000 0.06240  0.81690  0.90450  Biso   1.000  H
  C240     1.0000 0.12950  0.79420  0.91680  Biso   1.000  C
  H160     1.0000 0.13830  0.82960  0.92060  Biso   1.000  H
  O88      1.0000 0.24800  0.72450  0.98600  Biso   1.000  O
  O89      1.0000 0.24630  0.68120  0.96390  Biso   1.000  O
  C241     1.0000 0.23200  0.68600  0.97790  Biso   1.000  C
  C242     1.0000 0.19550  0.64460  0.98472  Biso   1.000  C
  C243     1.0000 0.17480  0.65050  0.00014  Biso   1.000  C
  H161     1.0000 0.18380  0.68170  0.00630  Biso   1.000  H
  C244     1.0000 0.14100  0.61070  0.00642  Biso   1.000  C
  H162     1.0000 0.12820  0.61460  0.01710  Biso   1.000  H
  N41      1.0000 0.12590  0.56700  0.99800  Biso   1.000  N
  C245     1.0000 0.14470  0.56190  0.98310  Biso   1.000  C
  H163     1.0000 0.13360  0.53140  0.97700  Biso   1.000  H
  C246     1.0000 0.17970  0.59940  0.97616  Biso   1.000  C
  H164     1.0000 0.19260  0.59400  0.96560  Biso   1.000  H
  O90      1.0000 0.22410  0.82720  0.98385  Biso   1.000  O
  O91      1.0000 0.21290  0.86620  0.96057  Biso   1.000  O
  C247     1.0000 0.20020  0.85900  0.97460  Biso   1.000  C
  C248     1.0000 0.15350  0.89090  0.98112  Biso   1.000  C
  C249     1.0000 0.12990  0.93200  0.97199  Biso   1.000  C
  H165     1.0000 0.14260  0.93910  0.96150  Biso   1.000  H
  C250     1.0000 0.08770  0.96250  0.97840  Biso   1.000  C
  H166     1.0000 0.07270  0.99120  0.97220  Biso   1.000  H
  N42      1.0000 0.06730  0.95290  0.99290  Biso   1.000  N
  C251     1.0000 0.08900  0.91270  0.00153  Biso   1.000  C
  H167     1.0000 0.07430  0.90520  0.01180  Biso   1.000  H
  C252     1.0000 0.13220  0.88130  0.99610  Biso   1.000  C
  H168     1.0000 0.14690  0.85350  0.00270  Biso   1.000  H
  Cr22     1.0000 0.70880  0.21265  0.48180  Biso   1.000  Cr
  Cr23     1.0000 0.72537  0.15590  0.44605  Biso   1.000  Cr
  Cr24     1.0000 0.70350  0.28620  0.44970  Biso   1.000  Cr
  Ag15     1.0000 0.48249  0.20949  0.36922  Biso   1.000  Ag
  Ag16     1.0000 0.48092  0.93033  0.48921  Biso   1.000  Ag
  O92      1.0000 0.71140  0.22580  0.46000  Biso   1.000  O
  O93      1.0000 0.64080  0.25530  0.48144  Biso   1.000  O
  O94      1.0000 0.63960  0.30980  0.46148  Biso   1.000  O
  C253     1.0000 0.62050  0.29450  0.47420  Biso   1.000  C
  C254     1.0000 0.56980  0.32070  0.48015  Biso   1.000  C
  C255     1.0000 0.54310  0.35970  0.47096  Biso   1.000  C
  H169     1.0000 0.55760  0.37060  0.46090  Biso   1.000  H
  C256     1.0000 0.49500  0.38250  0.47650  Biso   1.000  C
  H170     1.0000 0.47790  0.40990  0.47040  Biso   1.000  H
  N43      1.0000 0.47210  0.36730  0.49030  Biso   1.000  N
  C257     1.0000 0.49700  0.32900  0.49897  Biso   1.000  C
  H171     1.0000 0.48070  0.31740  0.50870  Biso   1.000  H
  C258     1.0000 0.54580  0.30530  0.49434  Biso   1.000  C
  H172     1.0000 0.56250  0.27870  0.50090  Biso   1.000  H
  O95      1.0000 0.66570  0.25870  0.43240  Biso   1.000  O
  O96      1.0000 0.66990  0.17090  0.42925  Biso   1.000  O
  C259     1.0000 0.65050  0.21720  0.42655  Biso   1.000  C
  C260     1.0000 0.60480  0.21630  0.41516  Biso   1.000  C
  C261     1.0000 0.57290  0.26180  0.41187  Biso   1.000  C
  H173     1.0000 0.57660  0.29380  0.41810  Biso   1.000  H
  C262     1.0000 0.53560  0.25990  0.39940  Biso   1.000  C
  H174     1.0000 0.51320  0.29060  0.39750  Biso   1.000  H
  N44      1.0000 0.53010  0.21630  0.39000  Biso   1.000  N
  C263     1.0000 0.56150  0.17320  0.39291  Biso   1.000  C
  H175     1.0000 0.55840  0.14230  0.38620  Biso   1.000  H
  C264     1.0000 0.59870  0.17160  0.40540  Biso   1.000  C
  H176     1.0000 0.61990  0.13990  0.40720  Biso   1.000  H
  O97      1.0000 0.67390  0.11090  0.45601  Biso   1.000  O
  O98      1.0000 0.66690  0.15140  0.47987  Biso   1.000  O
  C265     1.0000 0.65480  0.11470  0.46950  Biso   1.000  C
  C266     1.0000 0.61340  0.07370  0.47500  Biso   1.000  C
  C267     1.0000 0.59990  0.02950  0.46538  Biso   1.000  C
  H177     1.0000 0.61680  0.02490  0.45520  Biso   1.000  H
  C268     1.0000 0.56170  0.99210  0.47070  Biso   1.000  C
  H178     1.0000 0.55200  0.96280  0.46390  Biso   1.000  H
  N45      1.0000 0.53830  0.99590  0.48510  Biso   1.000  N
  C269     1.0000 0.55210  0.03760  0.49447  Biso   1.000  C
  H179     1.0000 0.53610  0.04020  0.50480  Biso   1.000  H
  C270     1.0000 0.58900  0.07730  0.48978  Biso   1.000  C
  H180     1.0000 0.59720  0.10670  0.49670  Biso   1.000  H
  O99      1.0000 0.76590  0.28130  0.43574  Biso   1.000  O
  O100     1.0000 0.77920  0.19710  0.43480  Biso   1.000  O
  C271     1.0000 0.79030  0.24350  0.43098  Biso   1.000  C
  C272     1.0000 0.83870  0.24960  0.42097  Biso   1.000  C
  C273     1.0000 0.85390  0.30050  0.41520  Biso   1.000  C
  H181     1.0000 0.83370  0.33190  0.41800  Biso   1.000  H
  C274     1.0000 0.89880  0.30500  0.40520  Biso   1.000  C
  H182     1.0000 0.90800  0.33970  0.40100  Biso   1.000  H
  N46      1.0000 0.92940  0.26220  0.40124  Biso   1.000  N
  C275     1.0000 0.91560  0.21360  0.40710  Biso   1.000  C
  H183     1.0000 0.93760  0.18310  0.40450  Biso   1.000  H
  C276     1.0000 0.87050  0.20580  0.41680  Biso   1.000  C
  H184     1.0000 0.86170  0.17040  0.42060  Biso   1.000  H
  O101     1.0000 0.75200  0.27550  0.48600  Biso   1.000  O
  O102     1.0000 0.75370  0.31880  0.46390  Biso   1.000  O
  C277     1.0000 0.76800  0.31400  0.47790  Biso   1.000  C
  C278     1.0000 0.80450  0.35540  0.48472  Biso   1.000  C
  C279     1.0000 0.82520  0.34950  0.50014  Biso   1.000  C
  H185     1.0000 0.81620  0.31830  0.50630  Biso   1.000  H
  C280     1.0000 0.85900  0.38930  0.50642  Biso   1.000  C
  H186     1.0000 0.87180  0.38540  0.51710  Biso   1.000  H
  N47      1.0000 0.87410  0.43300  0.49800  Biso   1.000  N
  C281     1.0000 0.85530  0.43810  0.48310  Biso   1.000  C
  H187     1.0000 0.86640  0.46860  0.47700  Biso   1.000  H
  C282     1.0000 0.82030  0.40060  0.47616  Biso   1.000  C
  H188     1.0000 0.80740  0.40600  0.46560  Biso   1.000  H
  O103     1.0000 0.77590  0.17280  0.48385  Biso   1.000  O
  O104     1.0000 0.78710  0.13380  0.46057  Biso   1.000  O
  C283     1.0000 0.79980  0.14100  0.47460  Biso   1.000  C
  C284     1.0000 0.84650  0.10910  0.48112  Biso   1.000  C
  C285     1.0000 0.87010  0.06800  0.47199  Biso   1.000  C
  H189     1.0000 0.85740  0.06090  0.46150  Biso   1.000  H
  C286     1.0000 0.91230  0.03750  0.47840  Biso   1.000  C
  H190     1.0000 0.92730  0.00880  0.47220  Biso   1.000  H
  N48      1.0000 0.93270  0.04710  0.49290  Biso   1.000  N
  C287     1.0000 0.91100  0.08730  0.50153  Biso   1.000  C
  H191     1.0000 0.92570  0.09480  0.51180  Biso   1.000  H
  C288     1.0000 0.86780  0.11870  0.49610  Biso   1.000  C
  H192     1.0000 0.85310  0.14650  0.50270  Biso   1.000  H
  Ag17     1.0000 0.00456  0.00456  0.00000  Biso   1.000  Ag
  Ag18     1.0000 0.99544  0.99544  0.50000  Biso   1.000  Ag
  Ag19     1.0000 0.49544  0.50456  0.25000  Biso   1.000  Ag
  Ag20     1.0000 0.50456  0.49544  0.75000  Biso   1.000  Ag
  Ag21     1.0000 0.59376  0.59376  0.00000  Biso   1.000  Ag
  Ag22     1.0000 0.40624  0.40624  0.50000  Biso   1.000  Ag
  Ag23     1.0000 0.90624  0.09376  0.25000  Biso   1.000  Ag
  Ag24     1.0000 0.09376  0.90624  0.75000  Biso   1.000  Ag
