data_BIJDUV_clean
_audit_creation_date              2014-07-02
_audit_creation_method            'Materials Studio'
_symmetry_space_group_name_H-M    'P1'
_symmetry_Int_Tables_number       1
_symmetry_cell_setting            triclinic
loop_
_symmetry_equiv_pos_as_xyz
  x,y,z
_cell_length_a                    16.7622
_cell_length_b                    34.4419
_cell_length_c                    18.4473
_cell_angle_alpha                 90.0000
_cell_angle_beta                  90.0000
_cell_angle_gamma                 90.0000
loop_
_atom_site_label
_atom_site_type_symbol
_atom_site_fract_x
_atom_site_fract_y
_atom_site_fract_z
_atom_site_U_iso_or_equiv
_atom_site_adp_type
_atom_site_occupancy
Ti1    Ti    0.34691   0.17775   0.82996   0.01267  Uiso   1.00
Ti2    Ti    0.22486   0.16174   0.67204   0.01267  Uiso   1.00
Ti3    Ti    0.65309   0.82225   0.82996   0.01267  Uiso   1.00
Ti4    Ti    0.77514   0.83826   0.67204   0.01267  Uiso   1.00
Ti5    Ti    0.84691   0.32225   0.17004   0.01267  Uiso   1.00
Ti6    Ti    0.72486   0.33826   0.32796   0.01267  Uiso   1.00
Ti7    Ti    0.15309   0.67775   0.17004   0.01267  Uiso   1.00
Ti8    Ti    0.27514   0.66174   0.32796   0.01267  Uiso   1.00
Cd1    Cd    0.37731   0.00581   0.25016   0.01267  Uiso   1.00
Cd2    Cd    0.62269   0.99419   0.25016   0.01267  Uiso   1.00
Cd3    Cd    0.87731   0.49419   0.74984   0.01267  Uiso   1.00
Cd4    Cd    0.12269   0.50581   0.74984   0.01267  Uiso   1.00
Cd5    Cd    0.50000   0.00000   0.41060   0.01267  Uiso   1.00
Cd6    Cd    0.00000   0.50000   0.58940   0.01267  Uiso   1.00
H1     H     0.34130   0.05260   0.00680   0.01267  Uiso   1.00
H2     H     0.45280   0.12670   0.14110   0.01267  Uiso   1.00
H3     H     0.52210   0.21720   0.14710   0.01267  Uiso   1.00
H4     H     0.53430   0.17210   0.15110   0.01267  Uiso   1.00
H5     H     0.45040   0.19010   0.16750   0.01267  Uiso   1.00
H6     H     0.57660   0.21580   0.01820   0.01267  Uiso   1.00
H7     H     0.53520   0.19000   0.95920   0.01267  Uiso   1.00
H8     H     0.58540   0.17050   0.02090   0.01267  Uiso   1.00
H9     H     0.44650   0.24720   0.05000   0.01267  Uiso   1.00
H10    H     0.37190   0.22140   0.06740   0.01267  Uiso   1.00
H11    H     0.40620   0.22270   0.98840   0.01267  Uiso   1.00
H12    H     0.37790   0.09460   0.84990   0.01267  Uiso   1.00
H13    H     0.30740   0.07100   0.88450   0.01267  Uiso   1.00
H14    H     0.23840   0.13840   0.96110   0.01267  Uiso   1.00
H15    H     0.18110   0.07920   0.94060   0.01267  Uiso   1.00
H16    H     0.13270   0.09530   0.87440   0.01267  Uiso   1.00
H17    H     0.04310   0.09310   0.97200   0.01267  Uiso   1.00
H18    H     0.10340   0.11480   0.02300   0.01267  Uiso   1.00
H19    H     0.00740   0.15820   0.98740   0.01267  Uiso   1.00
H20    H     0.02200   0.14820   0.90550   0.01267  Uiso   1.00
H21    H     0.08520   0.20790   0.93190   0.01267  Uiso   1.00
H22    H     0.13420   0.18840   0.99480   0.01267  Uiso   1.00
H23    H     0.14960   0.16980   0.84630   0.01267  Uiso   1.00
H24    H     0.16420   0.24690   0.87670   0.01267  Uiso   1.00
H25    H     0.19070   0.22840   0.80320   0.01267  Uiso   1.00
H26    H     0.17900   0.30970   0.83620   0.01267  Uiso   1.00
H27    H     0.39670   0.35520   0.80270   0.01267  Uiso   1.00
H28    H     0.58220   0.26950   0.87310   0.01267  Uiso   1.00
H29    H     0.50190   0.24680   0.88300   0.01267  Uiso   1.00
H30    H     0.51370   0.28720   0.92060   0.01267  Uiso   1.00
H31    H     0.59240   0.32680   0.79840   0.01267  Uiso   1.00
H32    H     0.52740   0.34710   0.84650   0.01267  Uiso   1.00
H33    H     0.51720   0.34570   0.76200   0.01267  Uiso   1.00
H34    H     0.56310   0.26800   0.73570   0.01267  Uiso   1.00
H35    H     0.48460   0.28490   0.70190   0.01267  Uiso   1.00
H36    H     0.48230   0.24570   0.74510   0.01267  Uiso   1.00
H37    H     0.08620   0.42820   0.83440   0.01267  Uiso   1.00
H38    H     0.14720   0.36990   0.86390   0.01267  Uiso   1.00
H39    H     0.33140   0.39660   0.73370   0.01267  Uiso   1.00
H40    H     0.27040   0.45490   0.70420   0.01267  Uiso   1.00
H41    H     0.17490   0.07760   0.37380   0.01267  Uiso   1.00
H42    H     0.36040   0.05070   0.50230   0.01267  Uiso   1.00
H43    H     0.05050   0.18540   0.45200   0.01267  Uiso   1.00
H44    H     0.13900   0.18180   0.42530   0.01267  Uiso   1.00
H45    H     0.11950   0.17960   0.50830   0.01267  Uiso   1.00
H46    H     0.98230   0.12510   0.50670   0.01267  Uiso   1.00
H47    H     0.05420   0.12020   0.56030   0.01267  Uiso   1.00
H48    H     0.02880   0.08560   0.51000   0.01267  Uiso   1.00
H49    H     0.00510   0.12750   0.37010   0.01267  Uiso   1.00
H50    H     0.04810   0.08730   0.37740   0.01267  Uiso   1.00
H51    H     0.09180   0.12220   0.34000   0.01267  Uiso   1.00
H52    H     0.35950   0.15640   0.53650   0.01267  Uiso   1.00
H53    H     0.49780   0.15390   0.62940   0.01267  Uiso   1.00
H54    H     0.48200   0.12430   0.56600   0.01267  Uiso   1.00
H55    H     0.49230   0.17350   0.48170   0.01267  Uiso   1.00
H56    H     0.57070   0.17160   0.52780   0.01267  Uiso   1.00
H57    H     0.53190   0.23600   0.51250   0.01267  Uiso   1.00
H58    H     0.52880   0.22520   0.59540   0.01267  Uiso   1.00
H59    H     0.39410   0.22540   0.50180   0.01267  Uiso   1.00
H60    H     0.40870   0.25620   0.56320   0.01267  Uiso   1.00
H61    H     0.39530   0.20650   0.65340   0.01267  Uiso   1.00
H62    H     0.29010   0.24650   0.69720   0.01267  Uiso   1.00
H63    H     0.30150   0.26850   0.62350   0.01267  Uiso   1.00
H64    H     0.20850   0.31780   0.63030   0.01267  Uiso   1.00
H65    H     0.97690   0.29650   0.67050   0.01267  Uiso   1.00
H66    H     0.00020   0.21540   0.80160   0.01267  Uiso   1.00
H67    H     0.04090   0.18250   0.75600   0.01267  Uiso   1.00
H68    H     0.94930   0.18040   0.77290   0.01267  Uiso   1.00
H69    H     0.92440   0.17360   0.63950   0.01267  Uiso   1.00
H70    H     0.01610   0.17710   0.62420   0.01267  Uiso   1.00
H71    H     0.95590   0.20500   0.58500   0.01267  Uiso   1.00
H72    H     0.89940   0.25890   0.73830   0.01267  Uiso   1.00
H73    H     0.85590   0.22140   0.71090   0.01267  Uiso   1.00
H74    H     0.88280   0.25330   0.65540   0.01267  Uiso   1.00
H75    H     0.13700   0.43470   0.55620   0.01267  Uiso   1.00
H76    H     0.16970   0.37040   0.57950   0.01267  Uiso   1.00
H77    H     0.96340   0.35680   0.68740   0.01267  Uiso   1.00
H78    H     0.93070   0.42100   0.66420   0.01267  Uiso   1.00
H79    H     0.29970   0.08190   0.65410   0.01267  Uiso   1.00
H80    H     0.38150   0.08290   0.61310   0.01267  Uiso   1.00
H81    H     0.65870   0.94740   0.00680   0.01267  Uiso   1.00
H82    H     0.54720   0.87330   0.14110   0.01267  Uiso   1.00
H83    H     0.47790   0.78280   0.14710   0.01267  Uiso   1.00
H84    H     0.46570   0.82790   0.15110   0.01267  Uiso   1.00
H85    H     0.54960   0.80990   0.16750   0.01267  Uiso   1.00
H86    H     0.42340   0.78420   0.01820   0.01267  Uiso   1.00
H87    H     0.46480   0.81000   0.95920   0.01267  Uiso   1.00
H88    H     0.41460   0.82950   0.02090   0.01267  Uiso   1.00
H89    H     0.55350   0.75280   0.05000   0.01267  Uiso   1.00
H90    H     0.62810   0.77860   0.06740   0.01267  Uiso   1.00
H91    H     0.59380   0.77730   0.98840   0.01267  Uiso   1.00
H92    H     0.62210   0.90540   0.84990   0.01267  Uiso   1.00
H93    H     0.69260   0.92900   0.88450   0.01267  Uiso   1.00
H94    H     0.76160   0.86160   0.96110   0.01267  Uiso   1.00
H95    H     0.81890   0.92080   0.94060   0.01267  Uiso   1.00
H96    H     0.86730   0.90470   0.87440   0.01267  Uiso   1.00
H97    H     0.95690   0.90690   0.97200   0.01267  Uiso   1.00
H98    H     0.89660   0.88520   0.02300   0.01267  Uiso   1.00
H99    H     0.99260   0.84180   0.98740   0.01267  Uiso   1.00
H100   H     0.97800   0.85180   0.90550   0.01267  Uiso   1.00
H101   H     0.91480   0.79210   0.93190   0.01267  Uiso   1.00
H102   H     0.86580   0.81160   0.99480   0.01267  Uiso   1.00
H103   H     0.85040   0.83020   0.84630   0.01267  Uiso   1.00
H104   H     0.83580   0.75310   0.87670   0.01267  Uiso   1.00
H105   H     0.80930   0.77160   0.80320   0.01267  Uiso   1.00
H106   H     0.82100   0.69030   0.83620   0.01267  Uiso   1.00
H107   H     0.60330   0.64480   0.80270   0.01267  Uiso   1.00
H108   H     0.41780   0.73050   0.87310   0.01267  Uiso   1.00
H109   H     0.49810   0.75320   0.88300   0.01267  Uiso   1.00
H110   H     0.48630   0.71280   0.92060   0.01267  Uiso   1.00
H111   H     0.40760   0.67320   0.79840   0.01267  Uiso   1.00
H112   H     0.47260   0.65290   0.84650   0.01267  Uiso   1.00
H113   H     0.48280   0.65430   0.76200   0.01267  Uiso   1.00
H114   H     0.43690   0.73200   0.73570   0.01267  Uiso   1.00
H115   H     0.51540   0.71510   0.70190   0.01267  Uiso   1.00
H116   H     0.51770   0.75430   0.74510   0.01267  Uiso   1.00
H117   H     0.91380   0.57180   0.83440   0.01267  Uiso   1.00
H118   H     0.85280   0.63010   0.86390   0.01267  Uiso   1.00
H119   H     0.66860   0.60340   0.73370   0.01267  Uiso   1.00
H120   H     0.72960   0.54510   0.70420   0.01267  Uiso   1.00
H121   H     0.82510   0.92240   0.37380   0.01267  Uiso   1.00
H122   H     0.63960   0.94930   0.50230   0.01267  Uiso   1.00
H123   H     0.94950   0.81460   0.45200   0.01267  Uiso   1.00
H124   H     0.86100   0.81820   0.42530   0.01267  Uiso   1.00
H125   H     0.88050   0.82040   0.50830   0.01267  Uiso   1.00
H126   H     0.01770   0.87490   0.50670   0.01267  Uiso   1.00
H127   H     0.94580   0.87980   0.56030   0.01267  Uiso   1.00
H128   H     0.97120   0.91440   0.51000   0.01267  Uiso   1.00
H129   H     0.99490   0.87250   0.37010   0.01267  Uiso   1.00
H130   H     0.95190   0.91270   0.37740   0.01267  Uiso   1.00
H131   H     0.90820   0.87780   0.34000   0.01267  Uiso   1.00
H132   H     0.64050   0.84360   0.53650   0.01267  Uiso   1.00
H133   H     0.50220   0.84610   0.62940   0.01267  Uiso   1.00
H134   H     0.51800   0.87570   0.56600   0.01267  Uiso   1.00
H135   H     0.50770   0.82650   0.48170   0.01267  Uiso   1.00
H136   H     0.42930   0.82840   0.52780   0.01267  Uiso   1.00
H137   H     0.46810   0.76400   0.51250   0.01267  Uiso   1.00
H138   H     0.47120   0.77480   0.59540   0.01267  Uiso   1.00
H139   H     0.60590   0.77460   0.50180   0.01267  Uiso   1.00
H140   H     0.59130   0.74380   0.56320   0.01267  Uiso   1.00
H141   H     0.60470   0.79350   0.65340   0.01267  Uiso   1.00
H142   H     0.70990   0.75350   0.69720   0.01267  Uiso   1.00
H143   H     0.69850   0.73150   0.62350   0.01267  Uiso   1.00
H144   H     0.79150   0.68220   0.63030   0.01267  Uiso   1.00
H145   H     0.02310   0.70350   0.67050   0.01267  Uiso   1.00
H146   H     0.99980   0.78460   0.80160   0.01267  Uiso   1.00
H147   H     0.95910   0.81750   0.75600   0.01267  Uiso   1.00
H148   H     0.05070   0.81960   0.77290   0.01267  Uiso   1.00
H149   H     0.07560   0.82640   0.63950   0.01267  Uiso   1.00
H150   H     0.98390   0.82290   0.62420   0.01267  Uiso   1.00
H151   H     0.04410   0.79500   0.58500   0.01267  Uiso   1.00
H152   H     0.10060   0.74110   0.73830   0.01267  Uiso   1.00
H153   H     0.14410   0.77860   0.71090   0.01267  Uiso   1.00
H154   H     0.11720   0.74670   0.65540   0.01267  Uiso   1.00
H155   H     0.86300   0.56530   0.55620   0.01267  Uiso   1.00
H156   H     0.83030   0.62960   0.57950   0.01267  Uiso   1.00
H157   H     0.03660   0.64320   0.68740   0.01267  Uiso   1.00
H158   H     0.06930   0.57900   0.66420   0.01267  Uiso   1.00
H159   H     0.70030   0.91810   0.65410   0.01267  Uiso   1.00
H160   H     0.61850   0.91710   0.61310   0.01267  Uiso   1.00
H161   H     0.84130   0.44740   0.99320   0.01267  Uiso   1.00
H162   H     0.95280   0.37330   0.85890   0.01267  Uiso   1.00
H163   H     0.02210   0.28280   0.85290   0.01267  Uiso   1.00
H164   H     0.03430   0.32790   0.84890   0.01267  Uiso   1.00
H165   H     0.95040   0.30990   0.83250   0.01267  Uiso   1.00
H166   H     0.07660   0.28420   0.98180   0.01267  Uiso   1.00
H167   H     0.03520   0.31000   0.04080   0.01267  Uiso   1.00
H168   H     0.08540   0.32950   0.97910   0.01267  Uiso   1.00
H169   H     0.94650   0.25280   0.95000   0.01267  Uiso   1.00
H170   H     0.87190   0.27860   0.93260   0.01267  Uiso   1.00
H171   H     0.90620   0.27730   0.01160   0.01267  Uiso   1.00
H172   H     0.87790   0.40540   0.15010   0.01267  Uiso   1.00
H173   H     0.80740   0.42900   0.11550   0.01267  Uiso   1.00
H174   H     0.73840   0.36160   0.03890   0.01267  Uiso   1.00
H175   H     0.68110   0.42080   0.05940   0.01267  Uiso   1.00
H176   H     0.63270   0.40470   0.12560   0.01267  Uiso   1.00
H177   H     0.54310   0.40690   0.02800   0.01267  Uiso   1.00
H178   H     0.60340   0.38520   0.97700   0.01267  Uiso   1.00
H179   H     0.50740   0.34180   0.01260   0.01267  Uiso   1.00
H180   H     0.52200   0.35180   0.09450   0.01267  Uiso   1.00
H181   H     0.58520   0.29210   0.06810   0.01267  Uiso   1.00
H182   H     0.63420   0.31160   0.00520   0.01267  Uiso   1.00
H183   H     0.64960   0.33020   0.15370   0.01267  Uiso   1.00
H184   H     0.66420   0.25310   0.12330   0.01267  Uiso   1.00
H185   H     0.69070   0.27160   0.19680   0.01267  Uiso   1.00
H186   H     0.67900   0.19030   0.16380   0.01267  Uiso   1.00
H187   H     0.89670   0.14480   0.19730   0.01267  Uiso   1.00
H188   H     0.08220   0.23050   0.12690   0.01267  Uiso   1.00
H189   H     0.00190   0.25320   0.11700   0.01267  Uiso   1.00
H190   H     0.01370   0.21280   0.07940   0.01267  Uiso   1.00
H191   H     0.09240   0.17320   0.20160   0.01267  Uiso   1.00
H192   H     0.02740   0.15290   0.15350   0.01267  Uiso   1.00
H193   H     0.01720   0.15430   0.23800   0.01267  Uiso   1.00
H194   H     0.06310   0.23200   0.26430   0.01267  Uiso   1.00
H195   H     0.98460   0.21510   0.29810   0.01267  Uiso   1.00
H196   H     0.98230   0.25430   0.25490   0.01267  Uiso   1.00
H197   H     0.58620   0.07180   0.16560   0.01267  Uiso   1.00
H198   H     0.64720   0.13010   0.13610   0.01267  Uiso   1.00
H199   H     0.83140   0.10340   0.26630   0.01267  Uiso   1.00
H200   H     0.77040   0.04510   0.29580   0.01267  Uiso   1.00
H201   H     0.67490   0.42240   0.62620   0.01267  Uiso   1.00
H202   H     0.86040   0.44930   0.49770   0.01267  Uiso   1.00
H203   H     0.55050   0.31460   0.54800   0.01267  Uiso   1.00
H204   H     0.63900   0.31820   0.57470   0.01267  Uiso   1.00
H205   H     0.61950   0.32040   0.49170   0.01267  Uiso   1.00
H206   H     0.48230   0.37490   0.49330   0.01267  Uiso   1.00
H207   H     0.55420   0.37980   0.43970   0.01267  Uiso   1.00
H208   H     0.52880   0.41440   0.49000   0.01267  Uiso   1.00
H209   H     0.50510   0.37250   0.62990   0.01267  Uiso   1.00
H210   H     0.54810   0.41270   0.62260   0.01267  Uiso   1.00
H211   H     0.59180   0.37780   0.66000   0.01267  Uiso   1.00
H212   H     0.85950   0.34360   0.46350   0.01267  Uiso   1.00
H213   H     0.99780   0.34610   0.37060   0.01267  Uiso   1.00
H214   H     0.98200   0.37570   0.43400   0.01267  Uiso   1.00
H215   H     0.99230   0.32650   0.51830   0.01267  Uiso   1.00
H216   H     0.07070   0.32840   0.47220   0.01267  Uiso   1.00
H217   H     0.03190   0.26400   0.48750   0.01267  Uiso   1.00
H218   H     0.02880   0.27480   0.40460   0.01267  Uiso   1.00
H219   H     0.89410   0.27460   0.49820   0.01267  Uiso   1.00
H220   H     0.90870   0.24380   0.43680   0.01267  Uiso   1.00
H221   H     0.89530   0.29350   0.34660   0.01267  Uiso   1.00
H222   H     0.79010   0.25350   0.30280   0.01267  Uiso   1.00
H223   H     0.80150   0.23150   0.37650   0.01267  Uiso   1.00
H224   H     0.70850   0.18220   0.36970   0.01267  Uiso   1.00
H225   H     0.47690   0.20350   0.32950   0.01267  Uiso   1.00
H226   H     0.50020   0.28460   0.19840   0.01267  Uiso   1.00
H227   H     0.54090   0.31750   0.24400   0.01267  Uiso   1.00
H228   H     0.44930   0.31960   0.22710   0.01267  Uiso   1.00
H229   H     0.42440   0.32640   0.36050   0.01267  Uiso   1.00
H230   H     0.51610   0.32290   0.37580   0.01267  Uiso   1.00
H231   H     0.45590   0.29500   0.41500   0.01267  Uiso   1.00
H232   H     0.39940   0.24110   0.26170   0.01267  Uiso   1.00
H233   H     0.35590   0.27860   0.28910   0.01267  Uiso   1.00
H234   H     0.38280   0.24670   0.34460   0.01267  Uiso   1.00
H235   H     0.63700   0.06530   0.44380   0.01267  Uiso   1.00
H236   H     0.66970   0.12960   0.42050   0.01267  Uiso   1.00
H237   H     0.46340   0.14320   0.31260   0.01267  Uiso   1.00
H238   H     0.43070   0.07900   0.33580   0.01267  Uiso   1.00
H239   H     0.79970   0.41810   0.34590   0.01267  Uiso   1.00
H240   H     0.88150   0.41710   0.38690   0.01267  Uiso   1.00
H241   H     0.15870   0.55260   0.99320   0.01267  Uiso   1.00
H242   H     0.04720   0.62670   0.85890   0.01267  Uiso   1.00
H243   H     0.97790   0.71720   0.85290   0.01267  Uiso   1.00
H244   H     0.96570   0.67210   0.84890   0.01267  Uiso   1.00
H245   H     0.04960   0.69010   0.83250   0.01267  Uiso   1.00
H246   H     0.92340   0.71580   0.98180   0.01267  Uiso   1.00
H247   H     0.96480   0.69000   0.04080   0.01267  Uiso   1.00
H248   H     0.91460   0.67050   0.97910   0.01267  Uiso   1.00
H249   H     0.05350   0.74720   0.95000   0.01267  Uiso   1.00
H250   H     0.12810   0.72140   0.93260   0.01267  Uiso   1.00
H251   H     0.09380   0.72270   0.01160   0.01267  Uiso   1.00
H252   H     0.12210   0.59460   0.15010   0.01267  Uiso   1.00
H253   H     0.19260   0.57100   0.11550   0.01267  Uiso   1.00
H254   H     0.26160   0.63840   0.03890   0.01267  Uiso   1.00
H255   H     0.31890   0.57920   0.05940   0.01267  Uiso   1.00
H256   H     0.36730   0.59530   0.12560   0.01267  Uiso   1.00
H257   H     0.45690   0.59310   0.02800   0.01267  Uiso   1.00
H258   H     0.39660   0.61480   0.97700   0.01267  Uiso   1.00
H259   H     0.49260   0.65820   0.01260   0.01267  Uiso   1.00
H260   H     0.47800   0.64820   0.09450   0.01267  Uiso   1.00
H261   H     0.41480   0.70790   0.06810   0.01267  Uiso   1.00
H262   H     0.36580   0.68840   0.00520   0.01267  Uiso   1.00
H263   H     0.35040   0.66980   0.15370   0.01267  Uiso   1.00
H264   H     0.33580   0.74690   0.12330   0.01267  Uiso   1.00
H265   H     0.30930   0.72840   0.19680   0.01267  Uiso   1.00
H266   H     0.32100   0.80970   0.16380   0.01267  Uiso   1.00
H267   H     0.10330   0.85520   0.19730   0.01267  Uiso   1.00
H268   H     0.91780   0.76950   0.12690   0.01267  Uiso   1.00
H269   H     0.99810   0.74680   0.11700   0.01267  Uiso   1.00
H270   H     0.98630   0.78720   0.07940   0.01267  Uiso   1.00
H271   H     0.90760   0.82680   0.20160   0.01267  Uiso   1.00
H272   H     0.97260   0.84710   0.15350   0.01267  Uiso   1.00
H273   H     0.98280   0.84570   0.23800   0.01267  Uiso   1.00
H274   H     0.93690   0.76800   0.26430   0.01267  Uiso   1.00
H275   H     0.01540   0.78490   0.29810   0.01267  Uiso   1.00
H276   H     0.01770   0.74570   0.25490   0.01267  Uiso   1.00
H277   H     0.41380   0.92820   0.16560   0.01267  Uiso   1.00
H278   H     0.35280   0.86990   0.13610   0.01267  Uiso   1.00
H279   H     0.16860   0.89660   0.26630   0.01267  Uiso   1.00
H280   H     0.22960   0.95490   0.29580   0.01267  Uiso   1.00
H281   H     0.32510   0.57760   0.62620   0.01267  Uiso   1.00
H282   H     0.13960   0.55070   0.49770   0.01267  Uiso   1.00
H283   H     0.44950   0.68540   0.54800   0.01267  Uiso   1.00
H284   H     0.36100   0.68180   0.57470   0.01267  Uiso   1.00
H285   H     0.38050   0.67960   0.49170   0.01267  Uiso   1.00
H286   H     0.51770   0.62510   0.49330   0.01267  Uiso   1.00
H287   H     0.44580   0.62020   0.43970   0.01267  Uiso   1.00
H288   H     0.47120   0.58560   0.49000   0.01267  Uiso   1.00
H289   H     0.49490   0.62750   0.62990   0.01267  Uiso   1.00
H290   H     0.45190   0.58730   0.62260   0.01267  Uiso   1.00
H291   H     0.40820   0.62220   0.66000   0.01267  Uiso   1.00
H292   H     0.14050   0.65640   0.46350   0.01267  Uiso   1.00
H293   H     0.00220   0.65390   0.37060   0.01267  Uiso   1.00
H294   H     0.01800   0.62430   0.43400   0.01267  Uiso   1.00
H295   H     0.00770   0.67350   0.51830   0.01267  Uiso   1.00
H296   H     0.92930   0.67160   0.47220   0.01267  Uiso   1.00
H297   H     0.96810   0.73600   0.48750   0.01267  Uiso   1.00
H298   H     0.97120   0.72520   0.40460   0.01267  Uiso   1.00
H299   H     0.10590   0.72540   0.49820   0.01267  Uiso   1.00
H300   H     0.09130   0.75620   0.43680   0.01267  Uiso   1.00
H301   H     0.10470   0.70650   0.34660   0.01267  Uiso   1.00
H302   H     0.20990   0.74650   0.30280   0.01267  Uiso   1.00
H303   H     0.19850   0.76850   0.37650   0.01267  Uiso   1.00
H304   H     0.29150   0.81780   0.36970   0.01267  Uiso   1.00
H305   H     0.52310   0.79650   0.32950   0.01267  Uiso   1.00
H306   H     0.49980   0.71540   0.19840   0.01267  Uiso   1.00
H307   H     0.45910   0.68250   0.24400   0.01267  Uiso   1.00
H308   H     0.55070   0.68040   0.22710   0.01267  Uiso   1.00
H309   H     0.57560   0.67360   0.36050   0.01267  Uiso   1.00
H310   H     0.48390   0.67710   0.37580   0.01267  Uiso   1.00
H311   H     0.54410   0.70500   0.41500   0.01267  Uiso   1.00
H312   H     0.60060   0.75890   0.26170   0.01267  Uiso   1.00
H313   H     0.64410   0.72140   0.28910   0.01267  Uiso   1.00
H314   H     0.61720   0.75330   0.34460   0.01267  Uiso   1.00
H315   H     0.36300   0.93470   0.44380   0.01267  Uiso   1.00
H316   H     0.33030   0.87040   0.42050   0.01267  Uiso   1.00
H317   H     0.53660   0.85680   0.31260   0.01267  Uiso   1.00
H318   H     0.56930   0.92100   0.33580   0.01267  Uiso   1.00
H319   H     0.20030   0.58190   0.34590   0.01267  Uiso   1.00
H320   H     0.11850   0.58290   0.38690   0.01267  Uiso   1.00
C1     C     0.39300   0.05610   0.14170   0.01267  Uiso   1.00
C2     C     0.39660   0.08513   0.08300   0.01267  Uiso   1.00
C3     C     0.36470   0.07668   0.01530   0.01267  Uiso   1.00
C4     C     0.36770   0.10420   0.96020   0.01267  Uiso   1.00
C5     C     0.40270   0.14017   0.97300   0.01267  Uiso   1.00
C6     C     0.43450   0.14861   0.04070   0.01267  Uiso   1.00
C7     C     0.43150   0.12110   0.09570   0.01267  Uiso   1.00
C8     C     0.47510   0.18890   0.05680   0.01267  Uiso   1.00
C9     C     0.49760   0.19240   0.13850   0.01267  Uiso   1.00
C10    C     0.55010   0.19150   0.00930   0.01267  Uiso   1.00
C11    C     0.41970   0.22330   0.03890   0.01267  Uiso   1.00
C12    C     0.33440   0.09590   0.88440   0.01267  Uiso   1.00
C13    C     0.21380   0.13470   0.91340   0.01267  Uiso   1.00
C14    C     0.15410   0.10190   0.92160   0.01267  Uiso   1.00
C15    C     0.08370   0.11320   0.97360   0.01267  Uiso   1.00
C16    C     0.04790   0.15110   0.95230   0.01267  Uiso   1.00
C17    C     0.11060   0.18400   0.94750   0.01267  Uiso   1.00
C18    C     0.17450   0.17260   0.89410   0.01267  Uiso   1.00
C19    C     0.20980   0.23680   0.85030   0.01267  Uiso   1.00
C20    C     0.26750   0.26987   0.83850   0.01267  Uiso   1.00
C21    C     0.23390   0.30660   0.83170   0.01267  Uiso   1.00
C22    C     0.28230   0.33856   0.81830   0.01267  Uiso   1.00
C23    C     0.36430   0.33382   0.81160   0.01267  Uiso   1.00
C24    C     0.39790   0.29710   0.81840   0.01267  Uiso   1.00
C25    C     0.34960   0.26513   0.83180   0.01267  Uiso   1.00
C26    C     0.49080   0.29260   0.81040   0.01267  Uiso   1.00
C27    C     0.52540   0.27210   0.87820   0.01267  Uiso   1.00
C28    C     0.53630   0.33180   0.80370   0.01267  Uiso   1.00
C29    C     0.50660   0.27090   0.74220   0.01267  Uiso   1.00
C30    C     0.13540   0.42190   0.81420   0.01267  Uiso   1.00
C31    C     0.17190   0.38690   0.83190   0.01267  Uiso   1.00
C32    C     0.24540   0.37740   0.80170   0.01267  Uiso   1.00
C33    C     0.28230   0.40290   0.75390   0.01267  Uiso   1.00
C34    C     0.24570   0.43790   0.73620   0.01267  Uiso   1.00
C35    C     0.30740   0.03360   0.37100   0.01267  Uiso   1.00
C36    C     0.27220   0.05986   0.42950   0.01267  Uiso   1.00
C37    C     0.20290   0.08100   0.41690   0.01267  Uiso   1.00
C38    C     0.17550   0.10710   0.46860   0.01267  Uiso   1.00
C39    C     0.21730   0.11211   0.53300   0.01267  Uiso   1.00
C40    C     0.28660   0.09100   0.54560   0.01267  Uiso   1.00
C41    C     0.31400   0.06490   0.49390   0.01267  Uiso   1.00
C42    C     0.09100   0.12800   0.45460   0.01267  Uiso   1.00
C43    C     0.10100   0.17310   0.46060   0.01267  Uiso   1.00
C44    C     0.03370   0.11330   0.51340   0.01267  Uiso   1.00
C45    C     0.05540   0.11500   0.37780   0.01267  Uiso   1.00
C46    C     0.38300   0.16080   0.58440   0.01267  Uiso   1.00
C47    C     0.47450   0.15100   0.58150   0.01267  Uiso   1.00
C48    C     0.51430   0.17790   0.52970   0.01267  Uiso   1.00
C49    C     0.50520   0.22000   0.54840   0.01267  Uiso   1.00
C50    C     0.41640   0.22920   0.54980   0.01267  Uiso   1.00
C51    C     0.37190   0.20250   0.60530   0.01267  Uiso   1.00
C52    C     0.27040   0.24870   0.64800   0.01267  Uiso   1.00
C53    C     0.18480   0.26118   0.65000   0.01267  Uiso   1.00
C54    C     0.16780   0.30040   0.64130   0.01267  Uiso   1.00
C55    C     0.08990   0.31364   0.64890   0.01267  Uiso   1.00
C56    C     0.02900   0.28766   0.66530   0.01267  Uiso   1.00
C57    C     0.04610   0.24844   0.67410   0.01267  Uiso   1.00
C58    C     0.12400   0.23520   0.66640   0.01267  Uiso   1.00
C59    C     0.97500   0.22040   0.69140   0.01267  Uiso   1.00
C60    C     0.99310   0.19750   0.76220   0.01267  Uiso   1.00
C61    C     0.96710   0.19130   0.62930   0.01267  Uiso   1.00
C62    C     0.89620   0.24030   0.69980   0.01267  Uiso   1.00
C63    C     0.10220   0.41907   0.58250   0.01267  Uiso   1.00
C64    C     0.12180   0.38060   0.59650   0.01267  Uiso   1.00
C65    C     0.06980   0.35723   0.63580   0.01267  Uiso   1.00
C66    C     0.99820   0.37240   0.66110   0.01267  Uiso   1.00
C67    C     0.97860   0.41090   0.64720   0.01267  Uiso   1.00
C68    C     0.32960   0.09520   0.61670   0.01267  Uiso   1.00
C69    C     0.60700   0.94390   0.14170   0.01267  Uiso   1.00
C70    C     0.60340   0.91487   0.08300   0.01267  Uiso   1.00
C71    C     0.63530   0.92332   0.01530   0.01267  Uiso   1.00
C72    C     0.63230   0.89580   0.96020   0.01267  Uiso   1.00
C73    C     0.59730   0.85983   0.97300   0.01267  Uiso   1.00
C74    C     0.56550   0.85139   0.04070   0.01267  Uiso   1.00
C75    C     0.56850   0.87890   0.09570   0.01267  Uiso   1.00
C76    C     0.52490   0.81110   0.05680   0.01267  Uiso   1.00
C77    C     0.50240   0.80760   0.13850   0.01267  Uiso   1.00
C78    C     0.44990   0.80850   0.00930   0.01267  Uiso   1.00
C79    C     0.58030   0.77670   0.03890   0.01267  Uiso   1.00
C80    C     0.66560   0.90410   0.88440   0.01267  Uiso   1.00
C81    C     0.78620   0.86530   0.91340   0.01267  Uiso   1.00
C82    C     0.84590   0.89810   0.92160   0.01267  Uiso   1.00
C83    C     0.91630   0.88680   0.97360   0.01267  Uiso   1.00
C84    C     0.95210   0.84890   0.95230   0.01267  Uiso   1.00
C85    C     0.88940   0.81600   0.94750   0.01267  Uiso   1.00
C86    C     0.82550   0.82740   0.89410   0.01267  Uiso   1.00
C87    C     0.79020   0.76320   0.85030   0.01267  Uiso   1.00
C88    C     0.73250   0.73013   0.83850   0.01267  Uiso   1.00
C89    C     0.76610   0.69340   0.83170   0.01267  Uiso   1.00
C90    C     0.71770   0.66144   0.81830   0.01267  Uiso   1.00
C91    C     0.63570   0.66618   0.81160   0.01267  Uiso   1.00
C92    C     0.60210   0.70290   0.81840   0.01267  Uiso   1.00
C93    C     0.65040   0.73487   0.83180   0.01267  Uiso   1.00
C94    C     0.50920   0.70740   0.81040   0.01267  Uiso   1.00
C95    C     0.47460   0.72790   0.87820   0.01267  Uiso   1.00
C96    C     0.46370   0.66820   0.80370   0.01267  Uiso   1.00
C97    C     0.49340   0.72910   0.74220   0.01267  Uiso   1.00
C98    C     0.86460   0.57810   0.81420   0.01267  Uiso   1.00
C99    C     0.82810   0.61310   0.83190   0.01267  Uiso   1.00
C100   C     0.75460   0.62260   0.80170   0.01267  Uiso   1.00
C101   C     0.71770   0.59710   0.75390   0.01267  Uiso   1.00
C102   C     0.75430   0.56210   0.73620   0.01267  Uiso   1.00
C103   C     0.69260   0.96640   0.37100   0.01267  Uiso   1.00
C104   C     0.72780   0.94014   0.42950   0.01267  Uiso   1.00
C105   C     0.79710   0.91900   0.41690   0.01267  Uiso   1.00
C106   C     0.82450   0.89290   0.46860   0.01267  Uiso   1.00
C107   C     0.78270   0.88789   0.53300   0.01267  Uiso   1.00
C108   C     0.71340   0.90900   0.54560   0.01267  Uiso   1.00
C109   C     0.68600   0.93510   0.49390   0.01267  Uiso   1.00
C110   C     0.90900   0.87200   0.45460   0.01267  Uiso   1.00
C111   C     0.89900   0.82690   0.46060   0.01267  Uiso   1.00
C112   C     0.96630   0.88670   0.51340   0.01267  Uiso   1.00
C113   C     0.94460   0.88500   0.37780   0.01267  Uiso   1.00
C114   C     0.61700   0.83920   0.58440   0.01267  Uiso   1.00
C115   C     0.52550   0.84900   0.58150   0.01267  Uiso   1.00
C116   C     0.48570   0.82210   0.52970   0.01267  Uiso   1.00
C117   C     0.49480   0.78000   0.54840   0.01267  Uiso   1.00
C118   C     0.58360   0.77080   0.54980   0.01267  Uiso   1.00
C119   C     0.62810   0.79750   0.60530   0.01267  Uiso   1.00
C120   C     0.72960   0.75130   0.64800   0.01267  Uiso   1.00
C121   C     0.81520   0.73882   0.65000   0.01267  Uiso   1.00
C122   C     0.83220   0.69960   0.64130   0.01267  Uiso   1.00
C123   C     0.91010   0.68636   0.64890   0.01267  Uiso   1.00
C124   C     0.97100   0.71234   0.66530   0.01267  Uiso   1.00
C125   C     0.95390   0.75156   0.67410   0.01267  Uiso   1.00
C126   C     0.87600   0.76480   0.66640   0.01267  Uiso   1.00
C127   C     0.02500   0.77960   0.69140   0.01267  Uiso   1.00
C128   C     0.00690   0.80250   0.76220   0.01267  Uiso   1.00
C129   C     0.03290   0.80870   0.62930   0.01267  Uiso   1.00
C130   C     0.10380   0.75970   0.69980   0.01267  Uiso   1.00
C131   C     0.89780   0.58093   0.58250   0.01267  Uiso   1.00
C132   C     0.87820   0.61940   0.59650   0.01267  Uiso   1.00
C133   C     0.93020   0.64277   0.63580   0.01267  Uiso   1.00
C134   C     0.00180   0.62760   0.66110   0.01267  Uiso   1.00
C135   C     0.02140   0.58910   0.64720   0.01267  Uiso   1.00
C136   C     0.67040   0.90480   0.61670   0.01267  Uiso   1.00
C137   C     0.89300   0.44390   0.85830   0.01267  Uiso   1.00
C138   C     0.89660   0.41487   0.91700   0.01267  Uiso   1.00
C139   C     0.86470   0.42332   0.98470   0.01267  Uiso   1.00
C140   C     0.86770   0.39580   0.03980   0.01267  Uiso   1.00
C141   C     0.90270   0.35983   0.02700   0.01267  Uiso   1.00
C142   C     0.93450   0.35139   0.95930   0.01267  Uiso   1.00
C143   C     0.93150   0.37890   0.90430   0.01267  Uiso   1.00
C144   C     0.97510   0.31110   0.94320   0.01267  Uiso   1.00
C145   C     0.99760   0.30760   0.86150   0.01267  Uiso   1.00
C146   C     0.05010   0.30850   0.99070   0.01267  Uiso   1.00
C147   C     0.91970   0.27670   0.96110   0.01267  Uiso   1.00
C148   C     0.83440   0.40410   0.11560   0.01267  Uiso   1.00
C149   C     0.71380   0.36530   0.08660   0.01267  Uiso   1.00
C150   C     0.65410   0.39810   0.07840   0.01267  Uiso   1.00
C151   C     0.58370   0.38680   0.02640   0.01267  Uiso   1.00
C152   C     0.54790   0.34890   0.04770   0.01267  Uiso   1.00
C153   C     0.61060   0.31600   0.05250   0.01267  Uiso   1.00
C154   C     0.67450   0.32740   0.10590   0.01267  Uiso   1.00
C155   C     0.70980   0.26320   0.14970   0.01267  Uiso   1.00
C156   C     0.76750   0.23013   0.16150   0.01267  Uiso   1.00
C157   C     0.73390   0.19340   0.16830   0.01267  Uiso   1.00
C158   C     0.78230   0.16144   0.18170   0.01267  Uiso   1.00
C159   C     0.86430   0.16618   0.18840   0.01267  Uiso   1.00
C160   C     0.89790   0.20290   0.18160   0.01267  Uiso   1.00
C161   C     0.84960   0.23487   0.16820   0.01267  Uiso   1.00
C162   C     0.99080   0.20740   0.18960   0.01267  Uiso   1.00
C163   C     0.02540   0.22790   0.12180   0.01267  Uiso   1.00
C164   C     0.03630   0.16820   0.19630   0.01267  Uiso   1.00
C165   C     0.00660   0.22910   0.25780   0.01267  Uiso   1.00
C166   C     0.63540   0.07810   0.18580   0.01267  Uiso   1.00
C167   C     0.67190   0.11310   0.16810   0.01267  Uiso   1.00
C168   C     0.74540   0.12260   0.19830   0.01267  Uiso   1.00
C169   C     0.78230   0.09710   0.24610   0.01267  Uiso   1.00
C170   C     0.74570   0.06210   0.26380   0.01267  Uiso   1.00
C171   C     0.80740   0.46640   0.62900   0.01267  Uiso   1.00
C172   C     0.77220   0.44014   0.57050   0.01267  Uiso   1.00
C173   C     0.70290   0.41900   0.58310   0.01267  Uiso   1.00
C174   C     0.67550   0.39290   0.53140   0.01267  Uiso   1.00
C175   C     0.71730   0.38789   0.46700   0.01267  Uiso   1.00
C176   C     0.78660   0.40900   0.45440   0.01267  Uiso   1.00
C177   C     0.81400   0.43510   0.50610   0.01267  Uiso   1.00
C178   C     0.59100   0.37200   0.54540   0.01267  Uiso   1.00
C179   C     0.60100   0.32690   0.53940   0.01267  Uiso   1.00
C180   C     0.53370   0.38670   0.48660   0.01267  Uiso   1.00
C181   C     0.55540   0.38500   0.62220   0.01267  Uiso   1.00
C182   C     0.88300   0.33920   0.41560   0.01267  Uiso   1.00
C183   C     0.97450   0.34900   0.41850   0.01267  Uiso   1.00
C184   C     0.01430   0.32210   0.47030   0.01267  Uiso   1.00
C185   C     0.00520   0.28000   0.45160   0.01267  Uiso   1.00
C186   C     0.91640   0.27080   0.45020   0.01267  Uiso   1.00
C187   C     0.87190   0.29750   0.39470   0.01267  Uiso   1.00
C188   C     0.77040   0.25130   0.35200   0.01267  Uiso   1.00
C189   C     0.68480   0.23882   0.35000   0.01267  Uiso   1.00
C190   C     0.66780   0.19960   0.35870   0.01267  Uiso   1.00
C191   C     0.58990   0.18636   0.35110   0.01267  Uiso   1.00
C192   C     0.52900   0.21234   0.33470   0.01267  Uiso   1.00
C193   C     0.54610   0.25156   0.32590   0.01267  Uiso   1.00
C194   C     0.62400   0.26480   0.33360   0.01267  Uiso   1.00
C195   C     0.47500   0.27960   0.30860   0.01267  Uiso   1.00
C196   C     0.49310   0.30250   0.23780   0.01267  Uiso   1.00
C197   C     0.46710   0.30870   0.37070   0.01267  Uiso   1.00
C198   C     0.39620   0.25970   0.30020   0.01267  Uiso   1.00
C199   C     0.60220   0.08093   0.41750   0.01267  Uiso   1.00
C200   C     0.62180   0.11940   0.40350   0.01267  Uiso   1.00
C201   C     0.56980   0.14277   0.36420   0.01267  Uiso   1.00
C202   C     0.49820   0.12760   0.33890   0.01267  Uiso   1.00
C203   C     0.47860   0.08910   0.35280   0.01267  Uiso   1.00
C204   C     0.82960   0.40480   0.38330   0.01267  Uiso   1.00
C205   C     0.10700   0.55610   0.85830   0.01267  Uiso   1.00
C206   C     0.10340   0.58513   0.91700   0.01267  Uiso   1.00
C207   C     0.13530   0.57668   0.98470   0.01267  Uiso   1.00
C208   C     0.13230   0.60420   0.03980   0.01267  Uiso   1.00
C209   C     0.09730   0.64017   0.02700   0.01267  Uiso   1.00
C210   C     0.06550   0.64861   0.95930   0.01267  Uiso   1.00
C211   C     0.06850   0.62110   0.90430   0.01267  Uiso   1.00
C212   C     0.02490   0.68890   0.94320   0.01267  Uiso   1.00
C213   C     0.00240   0.69240   0.86150   0.01267  Uiso   1.00
C214   C     0.94990   0.69150   0.99070   0.01267  Uiso   1.00
C215   C     0.08030   0.72330   0.96110   0.01267  Uiso   1.00
C216   C     0.16560   0.59590   0.11560   0.01267  Uiso   1.00
C217   C     0.28620   0.63470   0.08660   0.01267  Uiso   1.00
C218   C     0.34590   0.60190   0.07840   0.01267  Uiso   1.00
C219   C     0.41630   0.61320   0.02640   0.01267  Uiso   1.00
C220   C     0.45210   0.65110   0.04770   0.01267  Uiso   1.00
C221   C     0.38940   0.68400   0.05250   0.01267  Uiso   1.00
C222   C     0.32550   0.67260   0.10590   0.01267  Uiso   1.00
C223   C     0.29020   0.73680   0.14970   0.01267  Uiso   1.00
C224   C     0.23250   0.76987   0.16150   0.01267  Uiso   1.00
C225   C     0.26610   0.80660   0.16830   0.01267  Uiso   1.00
C226   C     0.21770   0.83856   0.18170   0.01267  Uiso   1.00
C227   C     0.13570   0.83382   0.18840   0.01267  Uiso   1.00
C228   C     0.10210   0.79710   0.18160   0.01267  Uiso   1.00
C229   C     0.15040   0.76513   0.16820   0.01267  Uiso   1.00
C230   C     0.00920   0.79260   0.18960   0.01267  Uiso   1.00
C231   C     0.97460   0.77210   0.12180   0.01267  Uiso   1.00
C232   C     0.96370   0.83180   0.19630   0.01267  Uiso   1.00
C233   C     0.99340   0.77090   0.25780   0.01267  Uiso   1.00
C234   C     0.36460   0.92190   0.18580   0.01267  Uiso   1.00
C235   C     0.32810   0.88690   0.16810   0.01267  Uiso   1.00
C236   C     0.25460   0.87740   0.19830   0.01267  Uiso   1.00
C237   C     0.21770   0.90290   0.24610   0.01267  Uiso   1.00
C238   C     0.25430   0.93790   0.26380   0.01267  Uiso   1.00
C239   C     0.19260   0.53360   0.62900   0.01267  Uiso   1.00
C240   C     0.22780   0.55986   0.57050   0.01267  Uiso   1.00
C241   C     0.29710   0.58100   0.58310   0.01267  Uiso   1.00
C242   C     0.32450   0.60710   0.53140   0.01267  Uiso   1.00
C243   C     0.28270   0.61211   0.46700   0.01267  Uiso   1.00
C244   C     0.21340   0.59100   0.45440   0.01267  Uiso   1.00
C245   C     0.18600   0.56490   0.50610   0.01267  Uiso   1.00
C246   C     0.40900   0.62800   0.54540   0.01267  Uiso   1.00
C247   C     0.39900   0.67310   0.53940   0.01267  Uiso   1.00
C248   C     0.46630   0.61330   0.48660   0.01267  Uiso   1.00
C249   C     0.44460   0.61500   0.62220   0.01267  Uiso   1.00
C250   C     0.11700   0.66080   0.41560   0.01267  Uiso   1.00
C251   C     0.02550   0.65100   0.41850   0.01267  Uiso   1.00
C252   C     0.98570   0.67790   0.47030   0.01267  Uiso   1.00
C253   C     0.99480   0.72000   0.45160   0.01267  Uiso   1.00
C254   C     0.08360   0.72920   0.45020   0.01267  Uiso   1.00
C255   C     0.12810   0.70250   0.39470   0.01267  Uiso   1.00
C256   C     0.22960   0.74870   0.35200   0.01267  Uiso   1.00
C257   C     0.31520   0.76118   0.35000   0.01267  Uiso   1.00
C258   C     0.33220   0.80040   0.35870   0.01267  Uiso   1.00
C259   C     0.41010   0.81364   0.35110   0.01267  Uiso   1.00
C260   C     0.47100   0.78766   0.33470   0.01267  Uiso   1.00
C261   C     0.45390   0.74844   0.32590   0.01267  Uiso   1.00
C262   C     0.37600   0.73520   0.33360   0.01267  Uiso   1.00
C263   C     0.52500   0.72040   0.30860   0.01267  Uiso   1.00
C264   C     0.50690   0.69750   0.23780   0.01267  Uiso   1.00
C265   C     0.53290   0.69130   0.37070   0.01267  Uiso   1.00
C266   C     0.60380   0.74030   0.30020   0.01267  Uiso   1.00
C267   C     0.39780   0.91907   0.41750   0.01267  Uiso   1.00
C268   C     0.37820   0.88060   0.40350   0.01267  Uiso   1.00
C269   C     0.43020   0.85723   0.36420   0.01267  Uiso   1.00
C270   C     0.50180   0.87240   0.33890   0.01267  Uiso   1.00
C271   C     0.52140   0.91090   0.35280   0.01267  Uiso   1.00
C272   C     0.17040   0.59520   0.38330   0.01267  Uiso   1.00
Br1    Br    0.50000   0.00000   0.55057   0.01267  Uiso   1.00
Br2    Br    0.00000   0.50000   0.44943   0.01267  Uiso   1.00
N1     N     0.27900   0.12600   0.86290   0.01267  Uiso   1.00
N2     N     0.23890   0.20340   0.88830   0.01267  Uiso   1.00
N3     N     0.34070   0.13680   0.63850   0.01267  Uiso   1.00
N4     N     0.28230   0.21060   0.60990   0.01267  Uiso   1.00
N5     N     0.17230   0.44740   0.76640   0.01267  Uiso   1.00
N6     N     0.03060   0.43422   0.60790   0.01267  Uiso   1.00
N7     N     0.72100   0.87400   0.86290   0.01267  Uiso   1.00
N8     N     0.76110   0.79660   0.88830   0.01267  Uiso   1.00
N9     N     0.65930   0.86320   0.63850   0.01267  Uiso   1.00
N10    N     0.71770   0.78940   0.60990   0.01267  Uiso   1.00
N11    N     0.82770   0.55260   0.76640   0.01267  Uiso   1.00
N12    N     0.96940   0.56578   0.60790   0.01267  Uiso   1.00
N13    N     0.77900   0.37400   0.13710   0.01267  Uiso   1.00
N14    N     0.73890   0.29660   0.11170   0.01267  Uiso   1.00
N15    N     0.84070   0.36320   0.36150   0.01267  Uiso   1.00
N16    N     0.78230   0.28940   0.39010   0.01267  Uiso   1.00
N17    N     0.67230   0.05260   0.23360   0.01267  Uiso   1.00
N18    N     0.53060   0.06578   0.39210   0.01267  Uiso   1.00
N19    N     0.22100   0.62600   0.13710   0.01267  Uiso   1.00
N20    N     0.26110   0.70340   0.11170   0.01267  Uiso   1.00
N21    N     0.15930   0.63680   0.36150   0.01267  Uiso   1.00
N22    N     0.21770   0.71060   0.39010   0.01267  Uiso   1.00
N23    N     0.32770   0.94740   0.23360   0.01267  Uiso   1.00
N24    N     0.46940   0.93422   0.39210   0.01267  Uiso   1.00
O1     O     0.41990   0.06460   0.20150   0.01267  Uiso   1.00
O2     O     0.36010   0.02460   0.13170   0.01267  Uiso   1.00
O3     O     0.40000   0.16730   0.92010   0.01267  Uiso   1.00
O4     O     0.37950   0.22930   0.83130   0.01267  Uiso   1.00
O5     O     0.28190   0.17896   0.75020   0.01267  Uiso   1.00
O6     O     0.36760   0.01290   0.38350   0.01267  Uiso   1.00
O7     O     0.27480   0.03430   0.30730   0.01267  Uiso   1.00
O8     O     0.19230   0.13810   0.58160   0.01267  Uiso   1.00
O9     O     0.13970   0.19693   0.67640   0.01267  Uiso   1.00
O10    O     0.58010   0.93540   0.20150   0.01267  Uiso   1.00
O11    O     0.63990   0.97540   0.13170   0.01267  Uiso   1.00
O12    O     0.60000   0.83270   0.92010   0.01267  Uiso   1.00
O13    O     0.62050   0.77070   0.83130   0.01267  Uiso   1.00
O14    O     0.71810   0.82104   0.75020   0.01267  Uiso   1.00
O15    O     0.63240   0.98710   0.38350   0.01267  Uiso   1.00
O16    O     0.72520   0.96570   0.30730   0.01267  Uiso   1.00
O17    O     0.80770   0.86190   0.58160   0.01267  Uiso   1.00
O18    O     0.86030   0.80307   0.67640   0.01267  Uiso   1.00
O19    O     0.91990   0.43540   0.79850   0.01267  Uiso   1.00
O20    O     0.86010   0.47540   0.86830   0.01267  Uiso   1.00
O21    O     0.90000   0.33270   0.07990   0.01267  Uiso   1.00
O22    O     0.87950   0.27070   0.16870   0.01267  Uiso   1.00
O23    O     0.78190   0.32104   0.24980   0.01267  Uiso   1.00
O24    O     0.86760   0.48710   0.61650   0.01267  Uiso   1.00
O25    O     0.77480   0.46570   0.69270   0.01267  Uiso   1.00
O26    O     0.69230   0.36190   0.41840   0.01267  Uiso   1.00
O27    O     0.63970   0.30307   0.32360   0.01267  Uiso   1.00
O28    O     0.08010   0.56460   0.79850   0.01267  Uiso   1.00
O29    O     0.13990   0.52460   0.86830   0.01267  Uiso   1.00
O30    O     0.10000   0.66730   0.07990   0.01267  Uiso   1.00
O31    O     0.12050   0.72930   0.16870   0.01267  Uiso   1.00
O32    O     0.21810   0.67896   0.24980   0.01267  Uiso   1.00
O33    O     0.13240   0.51290   0.61650   0.01267  Uiso   1.00
O34    O     0.22520   0.53430   0.69270   0.01267  Uiso   1.00
O35    O     0.30770   0.63810   0.41840   0.01267  Uiso   1.00
O36    O     0.36030   0.69693   0.32360   0.01267  Uiso   1.00
O37    O     0.50000   0.00000   0.28180   0.01267  Uiso   1.00
O38    O     0.00000   0.50000   0.71820   0.01267  Uiso   1.00
