data_BINDAF_clean_b
_audit_creation_date              2014-07-02
_audit_creation_method            'Materials Studio'
_symmetry_space_group_name_H-M    'P1'
_symmetry_Int_Tables_number       1
_symmetry_cell_setting            triclinic
loop_
_symmetry_equiv_pos_as_xyz
  x,y,z
_cell_length_a                    22.0390
_cell_length_b                    22.0390
_cell_length_c                    22.0390
_cell_angle_alpha                 90.0000
_cell_angle_beta                  90.0000
_cell_angle_gamma                 90.0000
loop_
_atom_site_label
_atom_site_type_symbol
_atom_site_fract_x
_atom_site_fract_y
_atom_site_fract_z
_atom_site_U_iso_or_equiv
_atom_site_adp_type
_atom_site_occupancy
H1     H     0.35199   0.85909   0.20078   0.00000  Uiso   1.00
C2     C     0.28164   0.04984   0.87424   0.00000  Uiso   1.00
H3     H     0.26156   0.02688   0.83247   0.00000  Uiso   1.00
C4     C     0.33009   0.02505   0.90256   0.00000  Uiso   1.00
H5     H     0.35331   0.98343   0.88244   0.00000  Uiso   1.00
H6     H     0.64801   0.14091   0.20078   0.00000  Uiso   1.00
C7     C     0.71836   0.95016   0.87424   0.00000  Uiso   1.00
H8     H     0.73844   0.97312   0.83247   0.00000  Uiso   1.00
C9     C     0.66991   0.97495   0.90256   0.00000  Uiso   1.00
H10    H     0.64669   0.01657   0.88244   0.00000  Uiso   1.00
H11    H     0.64801   0.85909   0.79922   0.00000  Uiso   1.00
C12    C     0.71836   0.04984   0.12576   0.00000  Uiso   1.00
H13    H     0.73844   0.02688   0.16753   0.00000  Uiso   1.00
C14    C     0.66991   0.02505   0.09744   0.00000  Uiso   1.00
H15    H     0.64669   0.98343   0.11756   0.00000  Uiso   1.00
H16    H     0.35199   0.14091   0.79922   0.00000  Uiso   1.00
C17    C     0.28164   0.95016   0.12576   0.00000  Uiso   1.00
H18    H     0.26156   0.97312   0.16753   0.00000  Uiso   1.00
C19    C     0.33009   0.97495   0.09744   0.00000  Uiso   1.00
H20    H     0.35331   0.01657   0.11756   0.00000  Uiso   1.00
H21    H     0.20078   0.35199   0.85909   0.00000  Uiso   1.00
C22    C     0.87424   0.28164   0.04984   0.00000  Uiso   1.00
H23    H     0.83247   0.26156   0.02688   0.00000  Uiso   1.00
C24    C     0.90256   0.33009   0.02505   0.00000  Uiso   1.00
H25    H     0.88244   0.35331   0.98343   0.00000  Uiso   1.00
H26    H     0.20078   0.64801   0.14091   0.00000  Uiso   1.00
C27    C     0.87424   0.71836   0.95016   0.00000  Uiso   1.00
H28    H     0.83247   0.73844   0.97312   0.00000  Uiso   1.00
C29    C     0.90256   0.66991   0.97495   0.00000  Uiso   1.00
H30    H     0.88244   0.64669   0.01657   0.00000  Uiso   1.00
H31    H     0.79922   0.64801   0.85909   0.00000  Uiso   1.00
C32    C     0.12576   0.71836   0.04984   0.00000  Uiso   1.00
H33    H     0.16753   0.73844   0.02688   0.00000  Uiso   1.00
C34    C     0.09744   0.66991   0.02505   0.00000  Uiso   1.00
H35    H     0.11756   0.64669   0.98343   0.00000  Uiso   1.00
H36    H     0.79922   0.35199   0.14091   0.00000  Uiso   1.00
C37    C     0.12576   0.28164   0.95016   0.00000  Uiso   1.00
H38    H     0.16753   0.26156   0.97312   0.00000  Uiso   1.00
C39    C     0.09744   0.33009   0.97495   0.00000  Uiso   1.00
H40    H     0.11756   0.35331   0.01657   0.00000  Uiso   1.00
H41    H     0.85909   0.20078   0.35199   0.00000  Uiso   1.00
C42    C     0.04984   0.87424   0.28164   0.00000  Uiso   1.00
H43    H     0.02688   0.83247   0.26156   0.00000  Uiso   1.00
C44    C     0.02505   0.90256   0.33009   0.00000  Uiso   1.00
H45    H     0.98343   0.88244   0.35331   0.00000  Uiso   1.00
H46    H     0.14091   0.20078   0.64801   0.00000  Uiso   1.00
C47    C     0.95016   0.87424   0.71836   0.00000  Uiso   1.00
H48    H     0.97312   0.83247   0.73844   0.00000  Uiso   1.00
C49    C     0.97495   0.90256   0.66991   0.00000  Uiso   1.00
H50    H     0.01657   0.88244   0.64669   0.00000  Uiso   1.00
H51    H     0.85909   0.79922   0.64801   0.00000  Uiso   1.00
C52    C     0.04984   0.12576   0.71836   0.00000  Uiso   1.00
H53    H     0.02688   0.16753   0.73844   0.00000  Uiso   1.00
C54    C     0.02505   0.09744   0.66991   0.00000  Uiso   1.00
H55    H     0.98343   0.11756   0.64669   0.00000  Uiso   1.00
H56    H     0.14091   0.79922   0.35199   0.00000  Uiso   1.00
C57    C     0.95016   0.12576   0.28164   0.00000  Uiso   1.00
H58    H     0.97312   0.16753   0.26156   0.00000  Uiso   1.00
C59    C     0.97495   0.09744   0.33009   0.00000  Uiso   1.00
H60    H     0.01657   0.11756   0.35331   0.00000  Uiso   1.00
H61    H     0.85911   0.35168   0.20062   0.00000  Uiso   1.00
C62    C     0.04984   0.28164   0.87424   0.00000  Uiso   1.00
H63    H     0.02688   0.26156   0.83247   0.00000  Uiso   1.00
C64    C     0.02505   0.33009   0.90256   0.00000  Uiso   1.00
H65    H     0.98343   0.35331   0.88244   0.00000  Uiso   1.00
H66    H     0.14089   0.64832   0.20062   0.00000  Uiso   1.00
C67    C     0.95016   0.71836   0.87424   0.00000  Uiso   1.00
H68    H     0.97312   0.73844   0.83247   0.00000  Uiso   1.00
C69    C     0.97495   0.66991   0.90256   0.00000  Uiso   1.00
H70    H     0.01657   0.64669   0.88244   0.00000  Uiso   1.00
H71    H     0.85911   0.64832   0.79938   0.00000  Uiso   1.00
C72    C     0.04984   0.71836   0.12576   0.00000  Uiso   1.00
H73    H     0.02688   0.73844   0.16753   0.00000  Uiso   1.00
C74    C     0.02505   0.66991   0.09744   0.00000  Uiso   1.00
H75    H     0.98343   0.64669   0.11756   0.00000  Uiso   1.00
H76    H     0.14089   0.35168   0.79938   0.00000  Uiso   1.00
C77    C     0.95016   0.28164   0.12576   0.00000  Uiso   1.00
H78    H     0.97312   0.26156   0.16753   0.00000  Uiso   1.00
C79    C     0.97495   0.33009   0.09744   0.00000  Uiso   1.00
H80    H     0.01657   0.35331   0.11756   0.00000  Uiso   1.00
H81    H     0.35168   0.20062   0.85911   0.00000  Uiso   1.00
C82    C     0.28164   0.87424   0.04984   0.00000  Uiso   1.00
H83    H     0.26156   0.83247   0.02688   0.00000  Uiso   1.00
C84    C     0.33009   0.90256   0.02505   0.00000  Uiso   1.00
H85    H     0.35331   0.88244   0.98343   0.00000  Uiso   1.00
H86    H     0.64832   0.20062   0.14089   0.00000  Uiso   1.00
C87    C     0.71836   0.87424   0.95016   0.00000  Uiso   1.00
H88    H     0.73844   0.83247   0.97312   0.00000  Uiso   1.00
C89    C     0.66991   0.90256   0.97495   0.00000  Uiso   1.00
H90    H     0.64669   0.88244   0.01657   0.00000  Uiso   1.00
H91    H     0.64832   0.79938   0.85911   0.00000  Uiso   1.00
C92    C     0.71836   0.12576   0.04984   0.00000  Uiso   1.00
H93    H     0.73844   0.16753   0.02688   0.00000  Uiso   1.00
C94    C     0.66991   0.09744   0.02505   0.00000  Uiso   1.00
H95    H     0.64669   0.11756   0.98343   0.00000  Uiso   1.00
H96    H     0.35168   0.79938   0.14089   0.00000  Uiso   1.00
C97    C     0.28164   0.12576   0.95016   0.00000  Uiso   1.00
H98    H     0.26156   0.16753   0.97312   0.00000  Uiso   1.00
C99    C     0.33009   0.09744   0.97495   0.00000  Uiso   1.00
H100   H     0.35331   0.11756   0.01657   0.00000  Uiso   1.00
H101   H     0.20062   0.85911   0.35168   0.00000  Uiso   1.00
C102   C     0.87424   0.04984   0.28164   0.00000  Uiso   1.00
H103   H     0.83247   0.02688   0.26156   0.00000  Uiso   1.00
C104   C     0.90256   0.02505   0.33009   0.00000  Uiso   1.00
H105   H     0.88244   0.98343   0.35331   0.00000  Uiso   1.00
H106   H     0.20062   0.14089   0.64832   0.00000  Uiso   1.00
C107   C     0.87424   0.95016   0.71836   0.00000  Uiso   1.00
H108   H     0.83247   0.97312   0.73844   0.00000  Uiso   1.00
C109   C     0.90256   0.97495   0.66991   0.00000  Uiso   1.00
H110   H     0.88244   0.01657   0.64669   0.00000  Uiso   1.00
H111   H     0.79938   0.85911   0.64832   0.00000  Uiso   1.00
C112   C     0.12576   0.04984   0.71836   0.00000  Uiso   1.00
H113   H     0.16753   0.02688   0.73844   0.00000  Uiso   1.00
C114   C     0.09744   0.02505   0.66991   0.00000  Uiso   1.00
H115   H     0.11756   0.98343   0.64669   0.00000  Uiso   1.00
H116   H     0.79938   0.14089   0.35168   0.00000  Uiso   1.00
C117   C     0.12576   0.95016   0.28164   0.00000  Uiso   1.00
H118   H     0.16753   0.97312   0.26156   0.00000  Uiso   1.00
C119   C     0.09744   0.97495   0.33009   0.00000  Uiso   1.00
H120   H     0.11756   0.01657   0.35331   0.00000  Uiso   1.00
Ni121  Ni    0.42386   0.00000   0.00000   0.00000  Uiso   1.00
Ni122  Ni    0.57614   0.00000   0.00000   0.00000  Uiso   1.00
Ni123  Ni    0.00000   0.42386   0.00000   0.00000  Uiso   1.00
Ni124  Ni    0.00000   0.57614   0.00000   0.00000  Uiso   1.00
Ni125  Ni    0.00000   0.00000   0.42386   0.00000  Uiso   1.00
Ni126  Ni    0.00000   0.00000   0.57614   0.00000  Uiso   1.00
O127   O     0.47298   0.93805   0.06195   0.00000  Uiso   1.00
N128   N     0.35248   0.04677   0.95323   0.00000  Uiso   1.00
C129   C     0.29826   0.77782   0.22218   0.00000  Uiso   1.00
O130   O     0.40651   0.78300   0.21700   0.00000  Uiso   1.00
C131   C     0.20312   0.13134   0.86866   0.00000  Uiso   1.00
O132   O     0.57343   0.93552   0.06448   0.00000  Uiso   1.00
C133   C     0.52172   0.91774   0.08226   0.00000  Uiso   1.00
C134   C     0.35312   0.80815   0.19185   0.00000  Uiso   1.00
C135   C     0.25695   0.10330   0.89670   0.00000  Uiso   1.00
C136   C     0.52020   0.87019   0.12981   0.00000  Uiso   1.00
C137   C     0.46375   0.85066   0.14934   0.00000  Uiso   1.00
H138   H     0.42083   0.87108   0.12892   0.00000  Uiso   1.00
C139   C     0.45934   0.80465   0.19535   0.00000  Uiso   1.00
C140   C     0.51140   0.78228   0.21772   0.00000  Uiso   1.00
H141   H     0.51024   0.74571   0.25429   0.00000  Uiso   1.00
C142   C     0.56850   0.80109   0.19891   0.00000  Uiso   1.00
H143   H     0.61086   0.78010   0.21990   0.00000  Uiso   1.00
C144   C     0.57160   0.84650   0.15350   0.00000  Uiso   1.00
H145   H     0.61773   0.86305   0.13695   0.00000  Uiso   1.00
O146   O     0.52702   0.06195   0.06195   0.00000  Uiso   1.00
N147   N     0.64752   0.95323   0.95323   0.00000  Uiso   1.00
C148   C     0.70174   0.22218   0.22218   0.00000  Uiso   1.00
O149   O     0.59349   0.21700   0.21700   0.00000  Uiso   1.00
C150   C     0.79688   0.86866   0.86866   0.00000  Uiso   1.00
O151   O     0.42657   0.06448   0.06448   0.00000  Uiso   1.00
C152   C     0.47828   0.08226   0.08226   0.00000  Uiso   1.00
C153   C     0.64688   0.19185   0.19185   0.00000  Uiso   1.00
C154   C     0.74305   0.89670   0.89670   0.00000  Uiso   1.00
C155   C     0.47980   0.12981   0.12981   0.00000  Uiso   1.00
C156   C     0.53625   0.14934   0.14934   0.00000  Uiso   1.00
H157   H     0.57917   0.12892   0.12892   0.00000  Uiso   1.00
C158   C     0.54066   0.19535   0.19535   0.00000  Uiso   1.00
C159   C     0.48860   0.21772   0.21772   0.00000  Uiso   1.00
H160   H     0.48976   0.25429   0.25429   0.00000  Uiso   1.00
C161   C     0.43150   0.19891   0.19891   0.00000  Uiso   1.00
H162   H     0.38914   0.21990   0.21990   0.00000  Uiso   1.00
C163   C     0.42840   0.15350   0.15350   0.00000  Uiso   1.00
H164   H     0.38227   0.13695   0.13695   0.00000  Uiso   1.00
O165   O     0.52702   0.93805   0.93805   0.00000  Uiso   1.00
N166   N     0.64752   0.04677   0.04677   0.00000  Uiso   1.00
C167   C     0.70174   0.77782   0.77782   0.00000  Uiso   1.00
O168   O     0.59349   0.78300   0.78300   0.00000  Uiso   1.00
C169   C     0.79688   0.13134   0.13134   0.00000  Uiso   1.00
O170   O     0.42657   0.93552   0.93552   0.00000  Uiso   1.00
C171   C     0.47828   0.91774   0.91774   0.00000  Uiso   1.00
C172   C     0.64688   0.80815   0.80815   0.00000  Uiso   1.00
C173   C     0.74305   0.10330   0.10330   0.00000  Uiso   1.00
C174   C     0.47980   0.87019   0.87019   0.00000  Uiso   1.00
C175   C     0.53625   0.85066   0.85066   0.00000  Uiso   1.00
H176   H     0.57917   0.87108   0.87108   0.00000  Uiso   1.00
C177   C     0.54066   0.80465   0.80465   0.00000  Uiso   1.00
C178   C     0.48860   0.78228   0.78228   0.00000  Uiso   1.00
H179   H     0.48976   0.74571   0.74571   0.00000  Uiso   1.00
C180   C     0.43150   0.80109   0.80109   0.00000  Uiso   1.00
H181   H     0.38914   0.78010   0.78010   0.00000  Uiso   1.00
C182   C     0.42840   0.84650   0.84650   0.00000  Uiso   1.00
H183   H     0.38227   0.86305   0.86305   0.00000  Uiso   1.00
O184   O     0.47298   0.06195   0.93805   0.00000  Uiso   1.00
N185   N     0.35248   0.95323   0.04677   0.00000  Uiso   1.00
C186   C     0.29826   0.22218   0.77782   0.00000  Uiso   1.00
O187   O     0.40651   0.21700   0.78300   0.00000  Uiso   1.00
C188   C     0.20312   0.86866   0.13134   0.00000  Uiso   1.00
O189   O     0.57343   0.06448   0.93552   0.00000  Uiso   1.00
C190   C     0.52172   0.08226   0.91774   0.00000  Uiso   1.00
C191   C     0.35312   0.19185   0.80815   0.00000  Uiso   1.00
C192   C     0.25695   0.89670   0.10330   0.00000  Uiso   1.00
C193   C     0.52020   0.12981   0.87019   0.00000  Uiso   1.00
C194   C     0.46375   0.14934   0.85066   0.00000  Uiso   1.00
H195   H     0.42083   0.12892   0.87108   0.00000  Uiso   1.00
C196   C     0.45934   0.19535   0.80465   0.00000  Uiso   1.00
C197   C     0.51140   0.21772   0.78228   0.00000  Uiso   1.00
H198   H     0.51024   0.25429   0.74571   0.00000  Uiso   1.00
C199   C     0.56850   0.19891   0.80109   0.00000  Uiso   1.00
H200   H     0.61086   0.21990   0.78010   0.00000  Uiso   1.00
C201   C     0.57160   0.15350   0.84650   0.00000  Uiso   1.00
H202   H     0.61773   0.13695   0.86305   0.00000  Uiso   1.00
O203   O     0.06195   0.47298   0.93805   0.00000  Uiso   1.00
N204   N     0.95323   0.35248   0.04677   0.00000  Uiso   1.00
C205   C     0.22218   0.29826   0.77782   0.00000  Uiso   1.00
O206   O     0.21700   0.40651   0.78300   0.00000  Uiso   1.00
C207   C     0.86866   0.20312   0.13134   0.00000  Uiso   1.00
O208   O     0.06448   0.57343   0.93552   0.00000  Uiso   1.00
C209   C     0.08226   0.52172   0.91774   0.00000  Uiso   1.00
C210   C     0.19185   0.35312   0.80815   0.00000  Uiso   1.00
C211   C     0.89670   0.25695   0.10330   0.00000  Uiso   1.00
C212   C     0.12981   0.52020   0.87019   0.00000  Uiso   1.00
C213   C     0.14934   0.46375   0.85066   0.00000  Uiso   1.00
H214   H     0.12892   0.42083   0.87108   0.00000  Uiso   1.00
C215   C     0.19535   0.45934   0.80465   0.00000  Uiso   1.00
C216   C     0.21772   0.51140   0.78228   0.00000  Uiso   1.00
H217   H     0.25429   0.51024   0.74571   0.00000  Uiso   1.00
C218   C     0.19891   0.56850   0.80109   0.00000  Uiso   1.00
H219   H     0.21990   0.61086   0.78010   0.00000  Uiso   1.00
C220   C     0.15350   0.57160   0.84650   0.00000  Uiso   1.00
H221   H     0.13695   0.61773   0.86305   0.00000  Uiso   1.00
O222   O     0.06195   0.52702   0.06195   0.00000  Uiso   1.00
N223   N     0.95323   0.64752   0.95323   0.00000  Uiso   1.00
C224   C     0.22218   0.70174   0.22218   0.00000  Uiso   1.00
O225   O     0.21700   0.59349   0.21700   0.00000  Uiso   1.00
C226   C     0.86866   0.79688   0.86866   0.00000  Uiso   1.00
O227   O     0.06448   0.42657   0.06448   0.00000  Uiso   1.00
C228   C     0.08226   0.47828   0.08226   0.00000  Uiso   1.00
C229   C     0.19185   0.64688   0.19185   0.00000  Uiso   1.00
C230   C     0.89670   0.74305   0.89670   0.00000  Uiso   1.00
C231   C     0.12981   0.47980   0.12981   0.00000  Uiso   1.00
C232   C     0.14934   0.53625   0.14934   0.00000  Uiso   1.00
H233   H     0.12892   0.57917   0.12892   0.00000  Uiso   1.00
C234   C     0.19535   0.54066   0.19535   0.00000  Uiso   1.00
C235   C     0.21772   0.48860   0.21772   0.00000  Uiso   1.00
H236   H     0.25429   0.48976   0.25429   0.00000  Uiso   1.00
C237   C     0.19891   0.43150   0.19891   0.00000  Uiso   1.00
H238   H     0.21990   0.38914   0.21990   0.00000  Uiso   1.00
C239   C     0.15350   0.42840   0.15350   0.00000  Uiso   1.00
H240   H     0.13695   0.38227   0.13695   0.00000  Uiso   1.00
O241   O     0.93805   0.52702   0.93805   0.00000  Uiso   1.00
N242   N     0.04677   0.64752   0.04677   0.00000  Uiso   1.00
C243   C     0.77782   0.70174   0.77782   0.00000  Uiso   1.00
O244   O     0.78300   0.59349   0.78300   0.00000  Uiso   1.00
C245   C     0.13134   0.79688   0.13134   0.00000  Uiso   1.00
O246   O     0.93552   0.42657   0.93552   0.00000  Uiso   1.00
C247   C     0.91774   0.47828   0.91774   0.00000  Uiso   1.00
C248   C     0.80815   0.64688   0.80815   0.00000  Uiso   1.00
C249   C     0.10330   0.74305   0.10330   0.00000  Uiso   1.00
C250   C     0.87019   0.47980   0.87019   0.00000  Uiso   1.00
C251   C     0.85066   0.53625   0.85066   0.00000  Uiso   1.00
H252   H     0.87108   0.57917   0.87108   0.00000  Uiso   1.00
C253   C     0.80465   0.54066   0.80465   0.00000  Uiso   1.00
C254   C     0.78228   0.48860   0.78228   0.00000  Uiso   1.00
H255   H     0.74571   0.48976   0.74571   0.00000  Uiso   1.00
C256   C     0.80109   0.43150   0.80109   0.00000  Uiso   1.00
H257   H     0.78010   0.38914   0.78010   0.00000  Uiso   1.00
C258   C     0.84650   0.42840   0.84650   0.00000  Uiso   1.00
H259   H     0.86305   0.38227   0.86305   0.00000  Uiso   1.00
O260   O     0.93805   0.47298   0.06195   0.00000  Uiso   1.00
N261   N     0.04677   0.35248   0.95323   0.00000  Uiso   1.00
C262   C     0.77782   0.29826   0.22218   0.00000  Uiso   1.00
O263   O     0.78300   0.40651   0.21700   0.00000  Uiso   1.00
C264   C     0.13134   0.20312   0.86866   0.00000  Uiso   1.00
O265   O     0.93552   0.57343   0.06448   0.00000  Uiso   1.00
C266   C     0.91774   0.52172   0.08226   0.00000  Uiso   1.00
C267   C     0.80815   0.35312   0.19185   0.00000  Uiso   1.00
C268   C     0.10330   0.25695   0.89670   0.00000  Uiso   1.00
C269   C     0.87019   0.52020   0.12981   0.00000  Uiso   1.00
C270   C     0.85066   0.46375   0.14934   0.00000  Uiso   1.00
H271   H     0.87108   0.42083   0.12892   0.00000  Uiso   1.00
C272   C     0.80465   0.45934   0.19535   0.00000  Uiso   1.00
C273   C     0.78228   0.51140   0.21772   0.00000  Uiso   1.00
H274   H     0.74571   0.51024   0.25429   0.00000  Uiso   1.00
C275   C     0.80109   0.56850   0.19891   0.00000  Uiso   1.00
H276   H     0.78010   0.61086   0.21990   0.00000  Uiso   1.00
C277   C     0.84650   0.57160   0.15350   0.00000  Uiso   1.00
H278   H     0.86305   0.61773   0.13695   0.00000  Uiso   1.00
O279   O     0.93805   0.06195   0.47298   0.00000  Uiso   1.00
N280   N     0.04677   0.95323   0.35248   0.00000  Uiso   1.00
C281   C     0.77782   0.22218   0.29826   0.00000  Uiso   1.00
O282   O     0.78300   0.21700   0.40651   0.00000  Uiso   1.00
C283   C     0.13134   0.86866   0.20312   0.00000  Uiso   1.00
O284   O     0.93552   0.06448   0.57343   0.00000  Uiso   1.00
C285   C     0.91774   0.08226   0.52172   0.00000  Uiso   1.00
C286   C     0.80815   0.19185   0.35312   0.00000  Uiso   1.00
C287   C     0.10330   0.89670   0.25695   0.00000  Uiso   1.00
C288   C     0.87019   0.12981   0.52020   0.00000  Uiso   1.00
C289   C     0.85066   0.14934   0.46375   0.00000  Uiso   1.00
H290   H     0.87108   0.12892   0.42083   0.00000  Uiso   1.00
C291   C     0.80465   0.19535   0.45934   0.00000  Uiso   1.00
C292   C     0.78228   0.21772   0.51140   0.00000  Uiso   1.00
H293   H     0.74571   0.25429   0.51024   0.00000  Uiso   1.00
C294   C     0.80109   0.19891   0.56850   0.00000  Uiso   1.00
H295   H     0.78010   0.21990   0.61086   0.00000  Uiso   1.00
C296   C     0.84650   0.15350   0.57160   0.00000  Uiso   1.00
H297   H     0.86305   0.13695   0.61773   0.00000  Uiso   1.00
O298   O     0.06195   0.06195   0.52702   0.00000  Uiso   1.00
N299   N     0.95323   0.95323   0.64752   0.00000  Uiso   1.00
C300   C     0.22218   0.22218   0.70174   0.00000  Uiso   1.00
O301   O     0.21700   0.21700   0.59349   0.00000  Uiso   1.00
C302   C     0.86866   0.86866   0.79688   0.00000  Uiso   1.00
O303   O     0.06448   0.06448   0.42657   0.00000  Uiso   1.00
C304   C     0.08226   0.08226   0.47828   0.00000  Uiso   1.00
C305   C     0.19185   0.19185   0.64688   0.00000  Uiso   1.00
C306   C     0.89670   0.89670   0.74305   0.00000  Uiso   1.00
C307   C     0.12981   0.12981   0.47980   0.00000  Uiso   1.00
C308   C     0.14934   0.14934   0.53625   0.00000  Uiso   1.00
H309   H     0.12892   0.12892   0.57917   0.00000  Uiso   1.00
C310   C     0.19535   0.19535   0.54066   0.00000  Uiso   1.00
C311   C     0.21772   0.21772   0.48860   0.00000  Uiso   1.00
H312   H     0.25429   0.25429   0.48976   0.00000  Uiso   1.00
C313   C     0.19891   0.19891   0.43150   0.00000  Uiso   1.00
H314   H     0.21990   0.21990   0.38914   0.00000  Uiso   1.00
C315   C     0.15350   0.15350   0.42840   0.00000  Uiso   1.00
H316   H     0.13695   0.13695   0.38227   0.00000  Uiso   1.00
O317   O     0.93805   0.93805   0.52702   0.00000  Uiso   1.00
N318   N     0.04677   0.04677   0.64752   0.00000  Uiso   1.00
C319   C     0.77782   0.77782   0.70174   0.00000  Uiso   1.00
O320   O     0.78300   0.78300   0.59349   0.00000  Uiso   1.00
C321   C     0.13134   0.13134   0.79688   0.00000  Uiso   1.00
O322   O     0.93552   0.93552   0.42657   0.00000  Uiso   1.00
C323   C     0.91774   0.91774   0.47828   0.00000  Uiso   1.00
C324   C     0.80815   0.80815   0.64688   0.00000  Uiso   1.00
C325   C     0.10330   0.10330   0.74305   0.00000  Uiso   1.00
C326   C     0.87019   0.87019   0.47980   0.00000  Uiso   1.00
C327   C     0.85066   0.85066   0.53625   0.00000  Uiso   1.00
H328   H     0.87108   0.87108   0.57917   0.00000  Uiso   1.00
C329   C     0.80465   0.80465   0.54066   0.00000  Uiso   1.00
C330   C     0.78228   0.78228   0.48860   0.00000  Uiso   1.00
H331   H     0.74571   0.74571   0.48976   0.00000  Uiso   1.00
C332   C     0.80109   0.80109   0.43150   0.00000  Uiso   1.00
H333   H     0.78010   0.78010   0.38914   0.00000  Uiso   1.00
C334   C     0.84650   0.84650   0.42840   0.00000  Uiso   1.00
H335   H     0.86305   0.86305   0.38227   0.00000  Uiso   1.00
O336   O     0.06195   0.93805   0.47298   0.00000  Uiso   1.00
N337   N     0.95323   0.04677   0.35248   0.00000  Uiso   1.00
C338   C     0.22218   0.77782   0.29826   0.00000  Uiso   1.00
O339   O     0.21700   0.78300   0.40651   0.00000  Uiso   1.00
C340   C     0.86866   0.13134   0.20312   0.00000  Uiso   1.00
O341   O     0.06448   0.93552   0.57343   0.00000  Uiso   1.00
C342   C     0.08226   0.91774   0.52172   0.00000  Uiso   1.00
C343   C     0.19185   0.80815   0.35312   0.00000  Uiso   1.00
C344   C     0.89670   0.10330   0.25695   0.00000  Uiso   1.00
C345   C     0.12981   0.87019   0.52020   0.00000  Uiso   1.00
C346   C     0.14934   0.85066   0.46375   0.00000  Uiso   1.00
H347   H     0.12892   0.87108   0.42083   0.00000  Uiso   1.00
C348   C     0.19535   0.80465   0.45934   0.00000  Uiso   1.00
C349   C     0.21772   0.78228   0.51140   0.00000  Uiso   1.00
H350   H     0.25429   0.74571   0.51024   0.00000  Uiso   1.00
C351   C     0.19891   0.80109   0.56850   0.00000  Uiso   1.00
H352   H     0.21990   0.78010   0.61086   0.00000  Uiso   1.00
C353   C     0.15350   0.84650   0.57160   0.00000  Uiso   1.00
H354   H     0.13695   0.86305   0.61773   0.00000  Uiso   1.00
C355   C     0.27363   0.72637   0.19614   0.00000  Uiso   1.00
C356   C     0.30172   0.69828   0.13987   0.00000  Uiso   1.00
C357   C     0.72637   0.27363   0.19614   0.00000  Uiso   1.00
C358   C     0.69828   0.30172   0.13987   0.00000  Uiso   1.00
C359   C     0.72637   0.72637   0.80386   0.00000  Uiso   1.00
C360   C     0.69828   0.69828   0.86013   0.00000  Uiso   1.00
C361   C     0.27363   0.27363   0.80386   0.00000  Uiso   1.00
C362   C     0.30172   0.30172   0.86013   0.00000  Uiso   1.00
C363   C     0.19614   0.27363   0.72637   0.00000  Uiso   1.00
C364   C     0.13987   0.30172   0.69828   0.00000  Uiso   1.00
C365   C     0.19614   0.72637   0.27363   0.00000  Uiso   1.00
C366   C     0.13987   0.69828   0.30172   0.00000  Uiso   1.00
C367   C     0.80386   0.72637   0.72637   0.00000  Uiso   1.00
C368   C     0.86013   0.69828   0.69828   0.00000  Uiso   1.00
C369   C     0.80386   0.27363   0.27363   0.00000  Uiso   1.00
C370   C     0.86013   0.30172   0.30172   0.00000  Uiso   1.00
C371   C     0.72637   0.19614   0.27363   0.00000  Uiso   1.00
C372   C     0.69828   0.13987   0.30172   0.00000  Uiso   1.00
C373   C     0.27363   0.19614   0.72637   0.00000  Uiso   1.00
C374   C     0.30172   0.13987   0.69828   0.00000  Uiso   1.00
C375   C     0.72637   0.80386   0.72637   0.00000  Uiso   1.00
C376   C     0.69828   0.86013   0.69828   0.00000  Uiso   1.00
C377   C     0.27363   0.80386   0.27363   0.00000  Uiso   1.00
C378   C     0.30172   0.86013   0.30172   0.00000  Uiso   1.00
N379   N     0.18025   0.18025   0.89489   0.00000  Uiso   1.00
N380   N     0.81975   0.81975   0.89489   0.00000  Uiso   1.00
N381   N     0.81975   0.18025   0.10511   0.00000  Uiso   1.00
N382   N     0.18025   0.81975   0.10511   0.00000  Uiso   1.00
N383   N     0.89489   0.18025   0.18025   0.00000  Uiso   1.00
N384   N     0.89489   0.81975   0.81975   0.00000  Uiso   1.00
N385   N     0.10511   0.81975   0.18025   0.00000  Uiso   1.00
N386   N     0.10511   0.18025   0.81975   0.00000  Uiso   1.00
N387   N     0.18025   0.89489   0.18025   0.00000  Uiso   1.00
N388   N     0.81975   0.89489   0.81975   0.00000  Uiso   1.00
N389   N     0.18025   0.10511   0.81975   0.00000  Uiso   1.00
N390   N     0.81975   0.10511   0.18025   0.00000  Uiso   1.00
H391   H     0.28149   0.72031   0.09767   0.00000  Uiso   1.00
H392   H     0.29190   0.64750   0.13921   0.00000  Uiso   1.00
H393   H     0.35287   0.70594   0.14048   0.00000  Uiso   1.00
H394   H     0.67552   0.26479   0.11169   0.00000  Uiso   1.00
H395   H     0.73519   0.32458   0.11175   0.00000  Uiso   1.00
H396   H     0.66303   0.33688   0.15391   0.00000  Uiso   1.00
H397   H     0.70697   0.64729   0.86012   0.00000  Uiso   1.00
H398   H     0.64731   0.70708   0.86018   0.00000  Uiso   1.00
H399   H     0.71946   0.71937   0.90234   0.00000  Uiso   1.00
H400   H     0.33602   0.33781   0.84610   0.00000  Uiso   1.00
H401   H     0.32561   0.26500   0.88764   0.00000  Uiso   1.00
H402   H     0.26463   0.32344   0.88891   0.00000  Uiso   1.00
H403   H     0.10143   0.26711   0.69840   0.00000  Uiso   1.00
H404   H     0.15014   0.31591   0.64961   0.00000  Uiso   1.00
H405   H     0.12578   0.34324   0.72573   0.00000  Uiso   1.00
H406   H     0.15014   0.64961   0.31591   0.00000  Uiso   1.00
H407   H     0.10143   0.69840   0.26711   0.00000  Uiso   1.00
H408   H     0.12578   0.72573   0.34324   0.00000  Uiso   1.00
H409   H     0.86015   0.70703   0.64730   0.00000  Uiso   1.00
H410   H     0.86015   0.64730   0.70703   0.00000  Uiso   1.00
H411   H     0.90234   0.71942   0.71942   0.00000  Uiso   1.00
H412   H     0.88828   0.32453   0.26480   0.00000  Uiso   1.00
H413   H     0.88828   0.26480   0.32453   0.00000  Uiso   1.00
H414   H     0.84609   0.33692   0.33692   0.00000  Uiso   1.00
H415   H     0.73519   0.11175   0.32458   0.00000  Uiso   1.00
H416   H     0.67552   0.11169   0.26479   0.00000  Uiso   1.00
H417   H     0.66303   0.15391   0.33688   0.00000  Uiso   1.00
H418   H     0.29190   0.13921   0.64750   0.00000  Uiso   1.00
H419   H     0.28149   0.09767   0.72031   0.00000  Uiso   1.00
H420   H     0.35287   0.14048   0.70594   0.00000  Uiso   1.00
H421   H     0.64731   0.86018   0.70708   0.00000  Uiso   1.00
H422   H     0.70697   0.86012   0.64729   0.00000  Uiso   1.00
H423   H     0.71946   0.90234   0.71937   0.00000  Uiso   1.00
H424   H     0.32561   0.88764   0.26500   0.00000  Uiso   1.00
H425   H     0.33602   0.84610   0.33781   0.00000  Uiso   1.00
H426   H     0.26463   0.88891   0.32344   0.00000  Uiso   1.00
loop_
_geom_bond_atom_site_label_1
_geom_bond_atom_site_label_2
_geom_bond_distance
_geom_bond_site_symmetry_2
_ccdc_geom_bond_type
H1     C134    1.140   .     S
C2     H3      1.140   .     S
C2     C4      1.352   .     A
C2     C135    1.389   .     A
C4     N128    1.311   .     A
C4     H5      1.140   1_545 S
H5     C4      1.140   1_565 S
H6     C153    1.140   .     S
C7     H8      1.140   .     S
C7     C9      1.352   .     A
C7     C154    1.389   .     A
C9     N147    1.311   .     A
C9     H10     1.140   1_565 A
H10    C9      1.140   1_545 A
H11    C172    1.140   .     S
C12    H13     1.140   .     S
C12    C14     1.352   .     A
C12    C173    1.389   .     A
C14    N166    1.311   .     A
C14    H15     1.140   1_545 A
H15    C14     1.140   1_565 A
H16    C191    1.140   .     S
C17    H18     1.140   .     S
C17    C19     1.352   .     A
C17    C192    1.389   .     A
C19    N185    1.311   .     A
C19    H20     1.140   1_565 S
H20    C19     1.140   1_545 S
H21    C210    1.140   .     S
C22    H23     1.140   .     S
C22    C24     1.352   .     A
C22    C211    1.389   .     A
C24    N204    1.311   .     A
C24    H25     1.140   1_554 A
H25    C24     1.140   1_556 A
H26    C229    1.140   .     S
C27    H28     1.140   .     S
C27    C29     1.352   .     A
C27    C230    1.389   .     A
C29    N223    1.311   .     A
C29    H30     1.140   1_556 S
H30    C29     1.140   1_554 S
H31    C248    1.140   .     S
C32    H33     1.140   .     S
C32    C34     1.352   .     A
C32    C249    1.389   .     A
C34    N242    1.311   .     A
C34    H35     1.140   1_554 A
H35    C34     1.140   1_556 A
H36    C267    1.140   .     S
C37    H38     1.140   .     S
C37    C39     1.352   .     A
C37    C268    1.389   .     A
C39    N261    1.311   .     A
C39    H40     1.140   1_556 A
H40    C39     1.140   1_554 A
H41    C286    1.140   .     S
C42    H43     1.140   .     S
C42    C44     1.352   .     A
C42    C287    1.389   .     A
C44    N280    1.311   .     A
C44    H45     1.140   1_455 S
H45    C44     1.140   1_655 S
H46    C305    1.140   .     S
C47    H48     1.140   .     S
C47    C49     1.352   .     A
C47    C306    1.389   .     A
C49    N299    1.311   .     A
C49    H50     1.140   1_655 A
H50    C49     1.140   1_455 A
H51    C324    1.140   .     S
C52    H53     1.140   .     S
C52    C54     1.352   .     A
C52    C325    1.389   .     A
C54    N318    1.311   .     A
C54    H55     1.140   1_455 S
H55    C54     1.140   1_655 S
H56    C343    1.140   .     S
C57    H58     1.140   .     S
C57    C59     1.352   .     A
C57    C344    1.389   .     A
C59    N337    1.311   .     A
C59    H60     1.140   1_655 A
H60    C59     1.140   1_455 A
H61    C267    1.140   .     S
C62    H63     1.140   .     S
C62    C64     1.352   .     A
C62    C268    1.389   .     A
C64    N261    1.311   .     A
C64    H65     1.140   1_455 A
H65    C64     1.140   1_655 A
H66    C229    1.140   .     S
C67    H68     1.140   .     S
C67    C69     1.352   .     A
C67    C230    1.389   .     A
C69    N223    1.311   .     A
C69    H70     1.140   1_655 S
H70    C69     1.140   1_455 S
H71    C248    1.140   .     S
C72    H73     1.140   .     S
C72    C74     1.352   .     A
C72    C249    1.389   .     A
C74    N242    1.311   .     A
C74    H75     1.140   1_455 A
H75    C74     1.140   1_655 A
H76    C210    1.140   .     S
C77    H78     1.140   .     S
C77    C79     1.352   .     A
C77    C211    1.389   .     A
C79    N204    1.311   .     A
C79    H80     1.140   1_655 S
H80    C79     1.140   1_455 S
H81    C191    1.140   .     S
C82    H83     1.140   .     S
C82    C84     1.352   .     A
C82    C192    1.389   .     A
C84    N185    1.311   .     A
C84    H85     1.140   1_554 A
H85    C84     1.140   1_556 A
H86    C153    1.140   .     S
C87    H88     1.140   .     S
C87    C89     1.352   .     A
C87    C154    1.389   .     A
C89    N147    1.311   .     A
C89    H90     1.140   1_556 A
H90    C89     1.140   1_554 A
H91    C172    1.140   .     S
C92    H93     1.140   .     S
C92    C94     1.352   .     A
C92    C173    1.389   .     A
C94    N166    1.311   .     A
C94    H95     1.140   1_554 S
H95    C94     1.140   1_556 S
H96    C134    1.140   .     S
C97    H98     1.140   .     S
C97    C99     1.352   .     A
C97    C135    1.389   .     A
C99    N128    1.311   .     A
C99    H100    1.140   1_556 A
H100   C99     1.140   1_554 A
H101   C343    1.140   .     S
C102   H103    1.140   .     S
C102   C104    1.352   .     A
C102   C344    1.389   .     A
C104   N337    1.311   .     A
C104   H105    1.140   1_545 S
H105   C104    1.140   1_565 S
H106   C305    1.140   .     S
C107   H108    1.140   .     S
C107   C109    1.352   .     A
C107   C306    1.389   .     A
C109   N299    1.311   .     A
C109   H110    1.140   1_565 A
H110   C109    1.140   1_545 A
H111   C324    1.140   .     S
C112   H113    1.140   .     S
C112   C114    1.352   .     A
C112   C325    1.389   .     A
C114   N318    1.311   .     A
C114   H115    1.140   1_545 A
H115   C114    1.140   1_565 A
H116   C286    1.140   .     S
C117   H118    1.140   .     S
C117   C119    1.352   .     A
C117   C287    1.389   .     A
C119   N280    1.311   .     A
C119   H120    1.140   1_565 S
H120   C119    1.140   1_545 S
Ni121  O151    2.011   .     S
Ni121  O127    2.214   1_545 A
Ni121  N128    2.145   1_554 A
Ni121  O170    2.011   1_544 S
Ni121  O184    2.214   1_554 S
Ni121  N185    2.145   1_545 A
Ni122  O146    2.214   .     S
Ni122  N166    2.145   .     S
Ni122  O132    2.011   1_545 A
Ni122  N147    2.145   1_544 A
Ni122  O165    2.214   1_544 S
Ni122  O189    2.011   1_554 S
Ni123  O227    2.011   .     S
Ni123  O203    2.214   1_554 A
Ni123  N204    2.145   1_455 A
Ni123  O246    2.011   1_454 A
Ni123  O260    2.214   1_455 S
Ni123  N261    2.145   1_554 S
Ni124  O222    2.214   .     S
Ni124  N242    2.145   .     S
Ni124  O208    2.011   1_554 A
Ni124  N223    2.145   1_454 A
Ni124  O241    2.214   1_454 A
Ni124  O265    2.011   1_455 S
Ni125  O303    2.011   .     S
Ni125  O279    2.214   1_455 S
Ni125  N280    2.145   1_545 A
Ni125  O322    2.011   1_445 A
Ni125  O336    2.214   1_545 A
Ni125  N337    2.145   1_455 S
Ni126  O298    2.214   .     S
Ni126  N318    2.145   .     S
Ni126  O284    2.011   1_455 S
Ni126  N299    2.145   1_445 A
Ni126  O317    2.214   1_445 A
Ni126  O341    2.011   1_545 A
O127   C133    1.247   .     A
O127   Ni121   2.214   1_565 A
N128   Ni121   2.145   1_556 A
C129   C134    1.535   .     S
C129   C355    1.382   .     A
C129   C377    1.382   .     A
O130   C134    1.414   .     S
O130   C139    1.346   .     S
C131   C135    1.474   .     S
C131   N379    1.323   .     A
C131   N389    1.323   .     A
O132   C133    1.267   .     A
O132   Ni122   2.011   1_565 A
C133   C136    1.482   .     S
C136   C137    1.385   .     A
C136   C144    1.352   .     A
C137   H138    1.140   .     S
C137   C139    1.437   .     A
C139   C140    1.343   .     A
C140   H141    1.140   .     S
C140   C142    1.388   .     A
C142   H143    1.140   .     S
C142   C144    1.417   .     A
C144   H145    1.140   .     S
O146   C152    1.247   .     A
N147   Ni122   2.145   1_566 A
C148   C153    1.535   .     S
C148   C357    1.382   .     A
C148   C371    1.382   .     A
O149   C153    1.414   .     S
O149   C158    1.346   .     S
C150   C154    1.474   .     S
C150   N380    1.323   .     A
C150   N388    1.323   .     A
O151   C152    1.267   .     A
C152   C155    1.482   .     S
C155   C156    1.385   .     A
C155   C163    1.352   .     A
C156   H157    1.140   .     S
C156   C158    1.437   .     A
C158   C159    1.343   .     A
C159   H160    1.140   .     S
C159   C161    1.388   .     A
C161   H162    1.140   .     S
C161   C163    1.417   .     A
C163   H164    1.140   .     S
O165   C171    1.247   .     A
O165   Ni122   2.214   1_566 S
C167   C172    1.535   .     S
C167   C359    1.382   .     A
C167   C375    1.382   .     A
O168   C172    1.414   .     S
O168   C177    1.346   .     S
C169   C173    1.474   .     S
C169   N381    1.323   .     A
C169   N390    1.323   .     A
O170   C171    1.267   .     A
O170   Ni121   2.011   1_566 S
C171   C174    1.482   .     S
C174   C175    1.385   .     A
C174   C182    1.352   .     A
C175   H176    1.140   .     S
C175   C177    1.437   .     A
C177   C178    1.343   .     A
C178   H179    1.140   .     S
C178   C180    1.388   .     A
C180   H181    1.140   .     S
C180   C182    1.417   .     A
C182   H183    1.140   .     S
O184   C190    1.247   .     A
O184   Ni121   2.214   1_556 S
N185   Ni121   2.145   1_565 A
C186   C191    1.535   .     S
C186   C361    1.382   .     A
C186   C373    1.382   .     A
O187   C191    1.414   .     S
O187   C196    1.346   .     S
C188   C192    1.474   .     S
C188   N382    1.323   .     A
C188   N387    1.323   .     A
O189   C190    1.267   .     A
O189   Ni122   2.011   1_556 S
C190   C193    1.482   .     S
C193   C194    1.385   .     A
C193   C201    1.352   .     A
C194   H195    1.140   .     S
C194   C196    1.437   .     A
C196   C197    1.343   .     A
C197   H198    1.140   .     S
C197   C199    1.388   .     A
C199   H200    1.140   .     S
C199   C201    1.417   .     A
C201   H202    1.140   .     S
O203   C209    1.247   .     A
O203   Ni123   2.214   1_556 A
N204   Ni123   2.145   1_655 A
C205   C210    1.535   .     S
C205   C361    1.382   .     A
C205   C363    1.382   .     A
O206   C210    1.414   .     S
O206   C215    1.346   .     S
C207   C211    1.474   .     S
C207   N381    1.323   .     A
C207   N383    1.323   .     A
O208   C209    1.267   .     A
O208   Ni124   2.011   1_556 A
C209   C212    1.482   .     S
C212   C213    1.385   .     A
C212   C220    1.352   .     A
C213   H214    1.140   .     S
C213   C215    1.437   .     A
C215   C216    1.343   .     A
C216   H217    1.140   .     S
C216   C218    1.388   .     A
C218   H219    1.140   .     S
C218   C220    1.417   .     A
C220   H221    1.140   .     S
O222   C228    1.247   .     A
N223   Ni124   2.145   1_656 A
C224   C229    1.535   .     S
C224   C355    1.382   .     A
C224   C365    1.382   .     A
O225   C229    1.414   .     S
O225   C234    1.346   .     S
C226   C230    1.474   .     S
C226   N380    1.323   .     A
C226   N384    1.323   .     A
O227   C228    1.267   .     A
C228   C231    1.482   .     S
C231   C232    1.385   .     A
C231   C239    1.352   .     A
C232   H233    1.140   .     S
C232   C234    1.437   .     A
C234   C235    1.343   .     A
C235   H236    1.140   .     S
C235   C237    1.388   .     A
C237   H238    1.140   .     S
C237   C239    1.417   .     A
C239   H240    1.140   .     S
O241   C247    1.247   .     A
O241   Ni124   2.214   1_656 A
C243   C248    1.535   .     S
C243   C359    1.382   .     A
C243   C367    1.382   .     A
O244   C248    1.414   .     S
O244   C253    1.346   .     S
C245   C249    1.474   .     S
C245   N382    1.323   .     A
C245   N385    1.323   .     A
O246   C247    1.267   .     A
O246   Ni123   2.011   1_656 A
C247   C250    1.482   .     S
C250   C251    1.385   .     A
C250   C258    1.352   .     A
C251   H252    1.140   .     S
C251   C253    1.437   .     A
C253   C254    1.343   .     A
C254   H255    1.140   .     S
C254   C256    1.388   .     A
C256   H257    1.140   .     S
C256   C258    1.417   .     A
C258   H259    1.140   .     S
O260   C266    1.247   .     A
O260   Ni123   2.214   1_655 S
N261   Ni123   2.145   1_556 S
C262   C267    1.535   .     S
C262   C357    1.382   .     A
C262   C369    1.382   .     A
O263   C267    1.414   .     S
O263   C272    1.346   .     S
C264   C268    1.474   .     S
C264   N379    1.323   .     A
C264   N386    1.323   .     A
O265   C266    1.267   .     A
O265   Ni124   2.011   1_655 S
C266   C269    1.482   .     S
C269   C270    1.385   .     A
C269   C277    1.352   .     A
C270   H271    1.140   .     S
C270   C272    1.437   .     A
C272   C273    1.343   .     A
C273   H274    1.140   .     S
C273   C275    1.388   .     A
C275   H276    1.140   .     S
C275   C277    1.417   .     A
C277   H278    1.140   .     S
O279   C285    1.247   .     A
O279   Ni125   2.214   1_655 S
N280   Ni125   2.145   1_565 A
C281   C286    1.535   .     S
C281   C369    1.382   .     A
C281   C371    1.382   .     A
O282   C286    1.414   .     S
O282   C291    1.346   .     S
C283   C287    1.474   .     S
C283   N385    1.323   .     A
C283   N387    1.323   .     A
O284   C285    1.267   .     A
O284   Ni126   2.011   1_655 S
C285   C288    1.482   .     S
C288   C289    1.385   .     A
C288   C296    1.352   .     A
C289   H290    1.140   .     S
C289   C291    1.437   .     A
C291   C292    1.343   .     A
C292   H293    1.140   .     S
C292   C294    1.388   .     A
C294   H295    1.140   .     S
C294   C296    1.417   .     A
C296   H297    1.140   .     S
O298   C304    1.247   .     A
N299   Ni126   2.145   1_665 A
C300   C305    1.535   .     S
C300   C363    1.382   .     A
C300   C373    1.382   .     A
O301   C305    1.414   .     S
O301   C310    1.346   .     S
C302   C306    1.474   .     S
C302   N384    1.323   .     A
C302   N388    1.323   .     A
O303   C304    1.267   .     A
C304   C307    1.482   .     S
C307   C308    1.385   .     A
C307   C315    1.352   .     A
C308   H309    1.140   .     S
C308   C310    1.437   .     A
C310   C311    1.343   .     A
C311   H312    1.140   .     S
C311   C313    1.388   .     A
C313   H314    1.140   .     S
C313   C315    1.417   .     A
C315   H316    1.140   .     S
O317   C323    1.247   .     A
O317   Ni126   2.214   1_665 A
C319   C324    1.535   .     S
C319   C367    1.382   .     A
C319   C375    1.382   .     A
O320   C324    1.414   .     S
O320   C329    1.346   .     S
C321   C325    1.474   .     S
C321   N386    1.323   .     A
C321   N389    1.323   .     A
O322   C323    1.267   .     A
O322   Ni125   2.011   1_665 A
C323   C326    1.482   .     S
C326   C327    1.385   .     A
C326   C334    1.352   .     A
C327   H328    1.140   .     S
C327   C329    1.437   .     A
C329   C330    1.343   .     A
C330   H331    1.140   .     S
C330   C332    1.388   .     A
C332   H333    1.140   .     S
C332   C334    1.417   .     A
C334   H335    1.140   .     S
O336   C342    1.247   .     A
O336   Ni125   2.214   1_565 A
N337   Ni125   2.145   1_655 S
C338   C343    1.535   .     S
C338   C365    1.382   .     A
C338   C377    1.382   .     A
O339   C343    1.414   .     S
O339   C348    1.346   .     S
C340   C344    1.474   .     S
C340   N383    1.323   .     A
C340   N390    1.323   .     A
O341   C342    1.267   .     A
O341   Ni126   2.011   1_565 A
C342   C345    1.482   .     S
C345   C346    1.385   .     A
C345   C353    1.352   .     A
C346   H347    1.140   .     S
C346   C348    1.437   .     A
C348   C349    1.343   .     A
C349   H350    1.140   .     S
C349   C351    1.388   .     A
C351   H352    1.140   .     S
C351   C353    1.417   .     A
C353   H354    1.140   .     S
C355   C356    1.518   .     S
C356   H391    1.140   .     S
C356   H392    1.140   .     S
C356   H393    1.140   .     S
C357   C358    1.518   .     S
C358   H394    1.140   .     S
C358   H395    1.140   .     S
C358   H396    1.140   .     S
C359   C360    1.518   .     S
C360   H397    1.140   .     S
C360   H398    1.140   .     S
C360   H399    1.140   .     S
C361   C362    1.518   .     S
C362   H400    1.140   .     S
C362   H401    1.140   .     S
C362   H402    1.140   .     S
C363   C364    1.518   .     S
C364   H403    1.140   .     S
C364   H404    1.140   .     S
C364   H405    1.140   .     S
C365   C366    1.518   .     S
C366   H406    1.140   .     S
C366   H407    1.140   .     S
C366   H408    1.140   .     S
C367   C368    1.518   .     S
C368   H409    1.140   .     S
C368   H410    1.140   .     S
C368   H411    1.140   .     S
C369   C370    1.518   .     S
C370   H412    1.140   .     S
C370   H413    1.140   .     S
C370   H414    1.140   .     S
C371   C372    1.518   .     S
C372   H415    1.140   .     S
C372   H416    1.140   .     S
C372   H417    1.140   .     S
C373   C374    1.518   .     S
C374   H418    1.140   .     S
C374   H419    1.140   .     S
C374   H420    1.140   .     S
C375   C376    1.518   .     S
C376   H421    1.140   .     S
C376   H422    1.140   .     S
C376   H423    1.140   .     S
C377   C378    1.518   .     S
C378   H424    1.140   .     S
C378   H425    1.140   .     S
C378   H426    1.140   .     S
