data_image0
_cell_length_a       32.99
_cell_length_b       32.99
_cell_length_c       32.99
_cell_angle_alpha    90
_cell_angle_beta     90
_cell_angle_gamma    90

_symmetry_space_group_name_H-M    "P 1"
_symmetry_int_tables_number       1

loop_
  _symmetry_equiv_pos_as_xyz
  'x, y, z'

loop_
  _atom_site_label
  _atom_site_occupancy
  _atom_site_fract_x
  _atom_site_fract_y
  _atom_site_fract_z
  _atom_site_thermal_displace_type
  _atom_site_B_iso_or_equiv
  _atom_site_type_symbol
  O1       1.0000 0.96666  0.30043  0.71821  Biso   1.000  O
  O2       1.0000 0.03575  0.30010  0.71802  Biso   1.000  O
  C1       1.0000 0.00197  0.31368  0.71057  Biso   1.000  C
  C2       1.0000 0.00094  0.35146  0.68294  Biso   1.000  C
  C3       1.0000 0.96715  0.36763  0.67160  Biso   1.000  C
  H1       1.0000 0.94290  0.35620  0.68040  Biso   1.000  H
  C4       1.0000 0.96577  0.40290  0.64560  Biso   1.000  C
  C5       1.0000 0.00207  0.41866  0.63203  Biso   1.000  C
  C6       1.0000 0.03819  0.40237  0.64519  Biso   1.000  C
  H2       1.0000 0.06250  0.41430  0.63740  Biso   1.000  H
  C7       1.0000 0.03862  0.36786  0.67033  Biso   1.000  C
  H3       1.0000 0.06300  0.35620  0.67840  Biso   1.000  H
  C8       1.0000 0.92898  0.42123  0.63307  Biso   1.000  C
  H4       1.0000 0.90440  0.41100  0.64240  Biso   1.000  H
  C9       1.0000 0.92928  0.45350  0.60756  Biso   1.000  C
  H5       1.0000 0.90490  0.46500  0.59950  Biso   1.000  H
  C10      1.0000 0.96600  0.46978  0.59315  Biso   1.000  C
  C11      1.0000 0.00073  0.45340  0.60536  Biso   1.000  C
  H6       1.0000 0.02500  0.46470  0.59640  Biso   1.000  H
  C12      1.0000 0.96552  0.50306  0.56358  Biso   1.000  C
  C13      1.0000 0.93606  0.50397  0.53350  Biso   1.000  C
  H7       1.0000 0.91580  0.48440  0.53330  Biso   1.000  H
  O3       1.0000 0.53334  0.19957  0.71821  Biso   1.000  O
  O4       1.0000 0.46425  0.19990  0.71802  Biso   1.000  O
  C14      1.0000 0.49803  0.18632  0.71057  Biso   1.000  C
  C15      1.0000 0.49906  0.14854  0.68294  Biso   1.000  C
  C16      1.0000 0.53285  0.13237  0.67160  Biso   1.000  C
  H8       1.0000 0.55710  0.14380  0.68040  Biso   1.000  H
  C17      1.0000 0.53423  0.09710  0.64560  Biso   1.000  C
  C18      1.0000 0.49793  0.08134  0.63203  Biso   1.000  C
  C19      1.0000 0.46181  0.09763  0.64519  Biso   1.000  C
  H9       1.0000 0.43750  0.08570  0.63740  Biso   1.000  H
  C20      1.0000 0.46138  0.13214  0.67033  Biso   1.000  C
  H10      1.0000 0.43700  0.14380  0.67840  Biso   1.000  H
  C21      1.0000 0.57102  0.07877  0.63307  Biso   1.000  C
  H11      1.0000 0.59560  0.08900  0.64240  Biso   1.000  H
  C22      1.0000 0.57072  0.04650  0.60756  Biso   1.000  C
  H12      1.0000 0.59510  0.03500  0.59950  Biso   1.000  H
  C23      1.0000 0.53400  0.03022  0.59315  Biso   1.000  C
  C24      1.0000 0.49927  0.04660  0.60536  Biso   1.000  C
  H13      1.0000 0.47500  0.03530  0.59640  Biso   1.000  H
  C25      1.0000 0.53448  0.99694  0.56358  Biso   1.000  C
  C26      1.0000 0.56394  0.99603  0.53350  Biso   1.000  C
  H14      1.0000 0.58420  0.01560  0.53330  Biso   1.000  H
  O5       1.0000 0.53334  0.30043  0.78179  Biso   1.000  O
  O6       1.0000 0.46425  0.30010  0.78198  Biso   1.000  O
  C27      1.0000 0.49803  0.31368  0.78943  Biso   1.000  C
  C28      1.0000 0.49906  0.35146  0.81706  Biso   1.000  C
  C29      1.0000 0.53285  0.36763  0.82840  Biso   1.000  C
  H15      1.0000 0.55710  0.35620  0.81960  Biso   1.000  H
  C30      1.0000 0.53423  0.40290  0.85440  Biso   1.000  C
  C31      1.0000 0.49793  0.41866  0.86797  Biso   1.000  C
  C32      1.0000 0.46181  0.40237  0.85481  Biso   1.000  C
  H16      1.0000 0.43750  0.41430  0.86260  Biso   1.000  H
  C33      1.0000 0.46138  0.36786  0.82967  Biso   1.000  C
  H17      1.0000 0.43700  0.35620  0.82160  Biso   1.000  H
  C34      1.0000 0.57102  0.42123  0.86693  Biso   1.000  C
  H18      1.0000 0.59560  0.41100  0.85760  Biso   1.000  H
  C35      1.0000 0.57072  0.45350  0.89244  Biso   1.000  C
  H19      1.0000 0.59510  0.46500  0.90050  Biso   1.000  H
  C36      1.0000 0.53400  0.46978  0.90685  Biso   1.000  C
  C37      1.0000 0.49927  0.45340  0.89464  Biso   1.000  C
  H20      1.0000 0.47500  0.46470  0.90360  Biso   1.000  H
  C38      1.0000 0.53448  0.50306  0.93642  Biso   1.000  C
  C39      1.0000 0.56394  0.50397  0.96650  Biso   1.000  C
  H21      1.0000 0.58420  0.48440  0.96670  Biso   1.000  H
  O7       1.0000 0.96666  0.19957  0.78179  Biso   1.000  O
  O8       1.0000 0.03575  0.19990  0.78198  Biso   1.000  O
  C40      1.0000 0.00197  0.18632  0.78943  Biso   1.000  C
  C41      1.0000 0.00094  0.14854  0.81706  Biso   1.000  C
  C42      1.0000 0.96715  0.13237  0.82840  Biso   1.000  C
  H22      1.0000 0.94290  0.14380  0.81960  Biso   1.000  H
  C43      1.0000 0.96577  0.09710  0.85440  Biso   1.000  C
  C44      1.0000 0.00207  0.08134  0.86797  Biso   1.000  C
  C45      1.0000 0.03819  0.09763  0.85481  Biso   1.000  C
  H23      1.0000 0.06250  0.08570  0.86260  Biso   1.000  H
  C46      1.0000 0.03862  0.13214  0.82967  Biso   1.000  C
  H24      1.0000 0.06300  0.14380  0.82160  Biso   1.000  H
  C47      1.0000 0.92898  0.07877  0.86693  Biso   1.000  C
  H25      1.0000 0.90440  0.08900  0.85760  Biso   1.000  H
  C48      1.0000 0.92928  0.04650  0.89244  Biso   1.000  C
  H26      1.0000 0.90490  0.03500  0.90050  Biso   1.000  H
  C49      1.0000 0.96600  0.03022  0.90685  Biso   1.000  C
  C50      1.0000 0.00073  0.04660  0.89464  Biso   1.000  C
  H27      1.0000 0.02500  0.03530  0.90360  Biso   1.000  H
  C51      1.0000 0.96552  0.99694  0.93642  Biso   1.000  C
  C52      1.0000 0.93606  0.99603  0.96650  Biso   1.000  C
  H28      1.0000 0.91580  0.01560  0.96670  Biso   1.000  H
  O9       1.0000 0.71821  0.96666  0.30043  Biso   1.000  O
  O10      1.0000 0.71802  0.03575  0.30010  Biso   1.000  O
  C53      1.0000 0.71057  0.00197  0.31368  Biso   1.000  C
  C54      1.0000 0.68294  0.00094  0.35146  Biso   1.000  C
  C55      1.0000 0.67160  0.96715  0.36763  Biso   1.000  C
  H29      1.0000 0.68040  0.94290  0.35620  Biso   1.000  H
  C56      1.0000 0.64560  0.96577  0.40290  Biso   1.000  C
  C57      1.0000 0.63203  0.00207  0.41866  Biso   1.000  C
  C58      1.0000 0.64519  0.03819  0.40237  Biso   1.000  C
  H30      1.0000 0.63740  0.06250  0.41430  Biso   1.000  H
  C59      1.0000 0.67033  0.03862  0.36786  Biso   1.000  C
  H31      1.0000 0.67840  0.06300  0.35620  Biso   1.000  H
  C60      1.0000 0.63307  0.92898  0.42123  Biso   1.000  C
  H32      1.0000 0.64240  0.90440  0.41100  Biso   1.000  H
  C61      1.0000 0.60756  0.92928  0.45350  Biso   1.000  C
  H33      1.0000 0.59950  0.90490  0.46500  Biso   1.000  H
  C62      1.0000 0.59315  0.96600  0.46978  Biso   1.000  C
  C63      1.0000 0.60536  0.00073  0.45340  Biso   1.000  C
  H34      1.0000 0.59640  0.02500  0.46470  Biso   1.000  H
  C64      1.0000 0.56358  0.96552  0.50306  Biso   1.000  C
  C65      1.0000 0.53350  0.93606  0.50397  Biso   1.000  C
  H35      1.0000 0.53330  0.91580  0.48440  Biso   1.000  H
  O11      1.0000 0.71821  0.53334  0.19957  Biso   1.000  O
  O12      1.0000 0.71802  0.46425  0.19990  Biso   1.000  O
  C66      1.0000 0.71057  0.49803  0.18632  Biso   1.000  C
  C67      1.0000 0.68294  0.49906  0.14854  Biso   1.000  C
  C68      1.0000 0.67160  0.53285  0.13237  Biso   1.000  C
  H36      1.0000 0.68040  0.55710  0.14380  Biso   1.000  H
  C69      1.0000 0.64560  0.53423  0.09710  Biso   1.000  C
  C70      1.0000 0.63203  0.49793  0.08134  Biso   1.000  C
  C71      1.0000 0.64519  0.46181  0.09763  Biso   1.000  C
  H37      1.0000 0.63740  0.43750  0.08570  Biso   1.000  H
  C72      1.0000 0.67033  0.46138  0.13214  Biso   1.000  C
  H38      1.0000 0.67840  0.43700  0.14380  Biso   1.000  H
  C73      1.0000 0.63307  0.57102  0.07877  Biso   1.000  C
  H39      1.0000 0.64240  0.59560  0.08900  Biso   1.000  H
  C74      1.0000 0.60756  0.57072  0.04650  Biso   1.000  C
  H40      1.0000 0.59950  0.59510  0.03500  Biso   1.000  H
  C75      1.0000 0.59315  0.53400  0.03022  Biso   1.000  C
  C76      1.0000 0.60536  0.49927  0.04660  Biso   1.000  C
  H41      1.0000 0.59640  0.47500  0.03530  Biso   1.000  H
  C77      1.0000 0.56358  0.53448  0.99694  Biso   1.000  C
  C78      1.0000 0.53350  0.56394  0.99603  Biso   1.000  C
  H42      1.0000 0.53330  0.58420  0.01560  Biso   1.000  H
  O13      1.0000 0.78179  0.53334  0.30043  Biso   1.000  O
  O14      1.0000 0.78198  0.46425  0.30010  Biso   1.000  O
  C79      1.0000 0.78943  0.49803  0.31368  Biso   1.000  C
  C80      1.0000 0.81706  0.49906  0.35146  Biso   1.000  C
  C81      1.0000 0.82840  0.53285  0.36763  Biso   1.000  C
  H43      1.0000 0.81960  0.55710  0.35620  Biso   1.000  H
  C82      1.0000 0.85440  0.53423  0.40290  Biso   1.000  C
  C83      1.0000 0.86797  0.49793  0.41866  Biso   1.000  C
  C84      1.0000 0.85481  0.46181  0.40237  Biso   1.000  C
  H44      1.0000 0.86260  0.43750  0.41430  Biso   1.000  H
  C85      1.0000 0.82967  0.46138  0.36786  Biso   1.000  C
  H45      1.0000 0.82160  0.43700  0.35620  Biso   1.000  H
  C86      1.0000 0.86693  0.57102  0.42123  Biso   1.000  C
  H46      1.0000 0.85760  0.59560  0.41100  Biso   1.000  H
  C87      1.0000 0.89244  0.57072  0.45350  Biso   1.000  C
  H47      1.0000 0.90050  0.59510  0.46500  Biso   1.000  H
  C88      1.0000 0.90685  0.53400  0.46978  Biso   1.000  C
  C89      1.0000 0.89464  0.49927  0.45340  Biso   1.000  C
  H48      1.0000 0.90360  0.47500  0.46470  Biso   1.000  H
  C90      1.0000 0.93642  0.53448  0.50306  Biso   1.000  C
  C91      1.0000 0.96650  0.56394  0.50397  Biso   1.000  C
  H49      1.0000 0.96670  0.58420  0.48440  Biso   1.000  H
  O15      1.0000 0.78179  0.96666  0.19957  Biso   1.000  O
  O16      1.0000 0.78198  0.03575  0.19990  Biso   1.000  O
  C92      1.0000 0.78943  0.00197  0.18632  Biso   1.000  C
  C93      1.0000 0.81706  0.00094  0.14854  Biso   1.000  C
  C94      1.0000 0.82840  0.96715  0.13237  Biso   1.000  C
  H50      1.0000 0.81960  0.94290  0.14380  Biso   1.000  H
  C95      1.0000 0.85440  0.96577  0.09710  Biso   1.000  C
  C96      1.0000 0.86797  0.00207  0.08134  Biso   1.000  C
  C97      1.0000 0.85481  0.03819  0.09763  Biso   1.000  C
  H51      1.0000 0.86260  0.06250  0.08570  Biso   1.000  H
  C98      1.0000 0.82967  0.03862  0.13214  Biso   1.000  C
  H52      1.0000 0.82160  0.06300  0.14380  Biso   1.000  H
  C99      1.0000 0.86693  0.92898  0.07877  Biso   1.000  C
  H53      1.0000 0.85760  0.90440  0.08900  Biso   1.000  H
  C100     1.0000 0.89244  0.92928  0.04650  Biso   1.000  C
  H54      1.0000 0.90050  0.90490  0.03500  Biso   1.000  H
  C101     1.0000 0.90685  0.96600  0.03022  Biso   1.000  C
  C102     1.0000 0.89464  0.00073  0.04660  Biso   1.000  C
  H55      1.0000 0.90360  0.02500  0.03530  Biso   1.000  H
  C103     1.0000 0.93642  0.96552  0.99694  Biso   1.000  C
  C104     1.0000 0.96650  0.93606  0.99603  Biso   1.000  C
  H56      1.0000 0.96670  0.91580  0.01560  Biso   1.000  H
  O17      1.0000 0.30043  0.71821  0.96666  Biso   1.000  O
  O18      1.0000 0.30010  0.71802  0.03575  Biso   1.000  O
  C105     1.0000 0.31368  0.71057  0.00197  Biso   1.000  C
  C106     1.0000 0.35146  0.68294  0.00094  Biso   1.000  C
  C107     1.0000 0.36763  0.67160  0.96715  Biso   1.000  C
  H57      1.0000 0.35620  0.68040  0.94290  Biso   1.000  H
  C108     1.0000 0.40290  0.64560  0.96577  Biso   1.000  C
  C109     1.0000 0.41866  0.63203  0.00207  Biso   1.000  C
  C110     1.0000 0.40237  0.64519  0.03819  Biso   1.000  C
  H58      1.0000 0.41430  0.63740  0.06250  Biso   1.000  H
  C111     1.0000 0.36786  0.67033  0.03862  Biso   1.000  C
  H59      1.0000 0.35620  0.67840  0.06300  Biso   1.000  H
  C112     1.0000 0.42123  0.63307  0.92898  Biso   1.000  C
  H60      1.0000 0.41100  0.64240  0.90440  Biso   1.000  H
  C113     1.0000 0.45350  0.60756  0.92928  Biso   1.000  C
  H61      1.0000 0.46500  0.59950  0.90490  Biso   1.000  H
  C114     1.0000 0.46978  0.59315  0.96600  Biso   1.000  C
  C115     1.0000 0.45340  0.60536  0.00073  Biso   1.000  C
  H62      1.0000 0.46470  0.59640  0.02500  Biso   1.000  H
  C116     1.0000 0.50306  0.56358  0.96552  Biso   1.000  C
  C117     1.0000 0.50397  0.53350  0.93606  Biso   1.000  C
  H63      1.0000 0.48440  0.53330  0.91580  Biso   1.000  H
  O19      1.0000 0.19957  0.71821  0.53334  Biso   1.000  O
  O20      1.0000 0.19990  0.71802  0.46425  Biso   1.000  O
  C118     1.0000 0.18632  0.71057  0.49803  Biso   1.000  C
  C119     1.0000 0.14854  0.68294  0.49906  Biso   1.000  C
  C120     1.0000 0.13237  0.67160  0.53285  Biso   1.000  C
  H64      1.0000 0.14380  0.68040  0.55710  Biso   1.000  H
  C121     1.0000 0.09710  0.64560  0.53423  Biso   1.000  C
  C122     1.0000 0.08134  0.63203  0.49793  Biso   1.000  C
  C123     1.0000 0.09763  0.64519  0.46181  Biso   1.000  C
  H65      1.0000 0.08570  0.63740  0.43750  Biso   1.000  H
  C124     1.0000 0.13214  0.67033  0.46138  Biso   1.000  C
  H66      1.0000 0.14380  0.67840  0.43700  Biso   1.000  H
  C125     1.0000 0.07877  0.63307  0.57102  Biso   1.000  C
  H67      1.0000 0.08900  0.64240  0.59560  Biso   1.000  H
  C126     1.0000 0.04650  0.60756  0.57072  Biso   1.000  C
  H68      1.0000 0.03500  0.59950  0.59510  Biso   1.000  H
  C127     1.0000 0.03022  0.59315  0.53400  Biso   1.000  C
  C128     1.0000 0.04660  0.60536  0.49927  Biso   1.000  C
  H69      1.0000 0.03530  0.59640  0.47500  Biso   1.000  H
  C129     1.0000 0.99694  0.56358  0.53448  Biso   1.000  C
  C130     1.0000 0.99603  0.53350  0.56394  Biso   1.000  C
  H70      1.0000 0.01560  0.53330  0.58420  Biso   1.000  H
  O21      1.0000 0.30043  0.78179  0.53334  Biso   1.000  O
  O22      1.0000 0.30010  0.78198  0.46425  Biso   1.000  O
  C131     1.0000 0.31368  0.78943  0.49803  Biso   1.000  C
  C132     1.0000 0.35146  0.81706  0.49906  Biso   1.000  C
  C133     1.0000 0.36763  0.82840  0.53285  Biso   1.000  C
  H71      1.0000 0.35620  0.81960  0.55710  Biso   1.000  H
  C134     1.0000 0.40290  0.85440  0.53423  Biso   1.000  C
  C135     1.0000 0.41866  0.86797  0.49793  Biso   1.000  C
  C136     1.0000 0.40237  0.85481  0.46181  Biso   1.000  C
  H72      1.0000 0.41430  0.86260  0.43750  Biso   1.000  H
  C137     1.0000 0.36786  0.82967  0.46138  Biso   1.000  C
  H73      1.0000 0.35620  0.82160  0.43700  Biso   1.000  H
  C138     1.0000 0.42123  0.86693  0.57102  Biso   1.000  C
  H74      1.0000 0.41100  0.85760  0.59560  Biso   1.000  H
  C139     1.0000 0.45350  0.89244  0.57072  Biso   1.000  C
  H75      1.0000 0.46500  0.90050  0.59510  Biso   1.000  H
  C140     1.0000 0.46978  0.90685  0.53400  Biso   1.000  C
  C141     1.0000 0.45340  0.89464  0.49927  Biso   1.000  C
  H76      1.0000 0.46470  0.90360  0.47500  Biso   1.000  H
  C142     1.0000 0.50306  0.93642  0.53448  Biso   1.000  C
  C143     1.0000 0.50397  0.96650  0.56394  Biso   1.000  C
  H77      1.0000 0.48440  0.96670  0.58420  Biso   1.000  H
  O23      1.0000 0.19957  0.78179  0.96666  Biso   1.000  O
  O24      1.0000 0.19990  0.78198  0.03575  Biso   1.000  O
  C144     1.0000 0.18632  0.78943  0.00197  Biso   1.000  C
  C145     1.0000 0.14854  0.81706  0.00094  Biso   1.000  C
  C146     1.0000 0.13237  0.82840  0.96715  Biso   1.000  C
  H78      1.0000 0.14380  0.81960  0.94290  Biso   1.000  H
  C147     1.0000 0.09710  0.85440  0.96577  Biso   1.000  C
  C148     1.0000 0.08134  0.86797  0.00207  Biso   1.000  C
  C149     1.0000 0.09763  0.85481  0.03819  Biso   1.000  C
  H79      1.0000 0.08570  0.86260  0.06250  Biso   1.000  H
  C150     1.0000 0.13214  0.82967  0.03862  Biso   1.000  C
  H80      1.0000 0.14380  0.82160  0.06300  Biso   1.000  H
  C151     1.0000 0.07877  0.86693  0.92898  Biso   1.000  C
  H81      1.0000 0.08900  0.85760  0.90440  Biso   1.000  H
  C152     1.0000 0.04650  0.89244  0.92928  Biso   1.000  C
  H82      1.0000 0.03500  0.90050  0.90490  Biso   1.000  H
  C153     1.0000 0.03022  0.90685  0.96600  Biso   1.000  C
  C154     1.0000 0.04660  0.89464  0.00073  Biso   1.000  C
  H83      1.0000 0.03530  0.90360  0.02500  Biso   1.000  H
  C155     1.0000 0.99694  0.93642  0.96552  Biso   1.000  C
  C156     1.0000 0.99603  0.96650  0.93606  Biso   1.000  C
  H84      1.0000 0.01560  0.96670  0.91580  Biso   1.000  H
  O25      1.0000 0.69957  0.03334  0.21821  Biso   1.000  O
  O26      1.0000 0.69990  0.96425  0.21802  Biso   1.000  O
  C157     1.0000 0.68632  0.99803  0.21057  Biso   1.000  C
  C158     1.0000 0.64854  0.99906  0.18294  Biso   1.000  C
  C159     1.0000 0.63237  0.03285  0.17160  Biso   1.000  C
  H85      1.0000 0.64380  0.05710  0.18040  Biso   1.000  H
  C160     1.0000 0.59710  0.03423  0.14560  Biso   1.000  C
  C161     1.0000 0.58134  0.99793  0.13203  Biso   1.000  C
  C162     1.0000 0.59763  0.96181  0.14519  Biso   1.000  C
  H86      1.0000 0.58570  0.93750  0.13740  Biso   1.000  H
  C163     1.0000 0.63214  0.96138  0.17033  Biso   1.000  C
  H87      1.0000 0.64380  0.93700  0.17840  Biso   1.000  H
  C164     1.0000 0.57877  0.07102  0.13307  Biso   1.000  C
  H88      1.0000 0.58900  0.09560  0.14240  Biso   1.000  H
  C165     1.0000 0.54650  0.07072  0.10756  Biso   1.000  C
  H89      1.0000 0.53500  0.09510  0.09950  Biso   1.000  H
  C166     1.0000 0.53022  0.03400  0.09315  Biso   1.000  C
  C167     1.0000 0.54660  0.99927  0.10536  Biso   1.000  C
  H90      1.0000 0.53530  0.97500  0.09640  Biso   1.000  H
  C168     1.0000 0.49694  0.03448  0.06358  Biso   1.000  C
  C169     1.0000 0.49603  0.06394  0.03350  Biso   1.000  C
  H91      1.0000 0.51560  0.08420  0.03330  Biso   1.000  H
  O27      1.0000 0.80043  0.46666  0.21821  Biso   1.000  O
  O28      1.0000 0.80010  0.53575  0.21802  Biso   1.000  O
  C170     1.0000 0.81368  0.50197  0.21057  Biso   1.000  C
  C171     1.0000 0.85146  0.50094  0.18294  Biso   1.000  C
  C172     1.0000 0.86763  0.46715  0.17160  Biso   1.000  C
  H92      1.0000 0.85620  0.44290  0.18040  Biso   1.000  H
  C173     1.0000 0.90290  0.46577  0.14560  Biso   1.000  C
  C174     1.0000 0.91866  0.50207  0.13203  Biso   1.000  C
  C175     1.0000 0.90237  0.53819  0.14519  Biso   1.000  C
  H93      1.0000 0.91430  0.56250  0.13740  Biso   1.000  H
  C176     1.0000 0.86786  0.53862  0.17033  Biso   1.000  C
  H94      1.0000 0.85620  0.56300  0.17840  Biso   1.000  H
  C177     1.0000 0.92123  0.42898  0.13307  Biso   1.000  C
  H95      1.0000 0.91100  0.40440  0.14240  Biso   1.000  H
  C178     1.0000 0.95350  0.42928  0.10756  Biso   1.000  C
  H96      1.0000 0.96500  0.40490  0.09950  Biso   1.000  H
  C179     1.0000 0.96978  0.46600  0.09315  Biso   1.000  C
  C180     1.0000 0.95340  0.50073  0.10536  Biso   1.000  C
  H97      1.0000 0.96470  0.52500  0.09640  Biso   1.000  H
  C181     1.0000 0.00306  0.46552  0.06358  Biso   1.000  C
  C182     1.0000 0.00397  0.43606  0.03350  Biso   1.000  C
  H98      1.0000 0.98440  0.41580  0.03330  Biso   1.000  H
  O29      1.0000 0.69957  0.46666  0.28179  Biso   1.000  O
  O30      1.0000 0.69990  0.53575  0.28198  Biso   1.000  O
  C183     1.0000 0.68632  0.50197  0.28943  Biso   1.000  C
  C184     1.0000 0.64854  0.50094  0.31706  Biso   1.000  C
  C185     1.0000 0.63237  0.46715  0.32840  Biso   1.000  C
  H99      1.0000 0.64380  0.44290  0.31960  Biso   1.000  H
  C186     1.0000 0.59710  0.46577  0.35440  Biso   1.000  C
  C187     1.0000 0.58134  0.50207  0.36797  Biso   1.000  C
  C188     1.0000 0.59763  0.53819  0.35481  Biso   1.000  C
  H100     1.0000 0.58570  0.56250  0.36260  Biso   1.000  H
  C189     1.0000 0.63214  0.53862  0.32967  Biso   1.000  C
  H101     1.0000 0.64380  0.56300  0.32160  Biso   1.000  H
  C190     1.0000 0.57877  0.42898  0.36693  Biso   1.000  C
  H102     1.0000 0.58900  0.40440  0.35760  Biso   1.000  H
  C191     1.0000 0.54650  0.42928  0.39244  Biso   1.000  C
  H103     1.0000 0.53500  0.40490  0.40050  Biso   1.000  H
  C192     1.0000 0.53022  0.46600  0.40685  Biso   1.000  C
  C193     1.0000 0.54660  0.50073  0.39464  Biso   1.000  C
  H104     1.0000 0.53530  0.52500  0.40360  Biso   1.000  H
  C194     1.0000 0.49694  0.46552  0.43642  Biso   1.000  C
  C195     1.0000 0.49603  0.43606  0.46650  Biso   1.000  C
  H105     1.0000 0.51560  0.41580  0.46670  Biso   1.000  H
  O31      1.0000 0.80043  0.03334  0.28179  Biso   1.000  O
  O32      1.0000 0.80010  0.96425  0.28198  Biso   1.000  O
  C196     1.0000 0.81368  0.99803  0.28943  Biso   1.000  C
  C197     1.0000 0.85146  0.99906  0.31706  Biso   1.000  C
  C198     1.0000 0.86763  0.03285  0.32840  Biso   1.000  C
  H106     1.0000 0.85620  0.05710  0.31960  Biso   1.000  H
  C199     1.0000 0.90290  0.03423  0.35440  Biso   1.000  C
  C200     1.0000 0.91866  0.99793  0.36797  Biso   1.000  C
  C201     1.0000 0.90237  0.96181  0.35481  Biso   1.000  C
  H107     1.0000 0.91430  0.93750  0.36260  Biso   1.000  H
  C202     1.0000 0.86786  0.96138  0.32967  Biso   1.000  C
  H108     1.0000 0.85620  0.93700  0.32160  Biso   1.000  H
  C203     1.0000 0.92123  0.07102  0.36693  Biso   1.000  C
  H109     1.0000 0.91100  0.09560  0.35760  Biso   1.000  H
  C204     1.0000 0.95350  0.07072  0.39244  Biso   1.000  C
  H110     1.0000 0.96500  0.09510  0.40050  Biso   1.000  H
  C205     1.0000 0.96978  0.03400  0.40685  Biso   1.000  C
  C206     1.0000 0.95340  0.99927  0.39464  Biso   1.000  C
  H111     1.0000 0.96470  0.97500  0.40360  Biso   1.000  H
  C207     1.0000 0.00306  0.03448  0.43642  Biso   1.000  C
  C208     1.0000 0.00397  0.06394  0.46650  Biso   1.000  C
  H112     1.0000 0.98440  0.08420  0.46670  Biso   1.000  H
  O33      1.0000 0.03334  0.28179  0.80043  Biso   1.000  O
  O34      1.0000 0.96425  0.28198  0.80010  Biso   1.000  O
  C209     1.0000 0.99803  0.28943  0.81368  Biso   1.000  C
  C210     1.0000 0.99906  0.31706  0.85146  Biso   1.000  C
  C211     1.0000 0.03285  0.32840  0.86763  Biso   1.000  C
  H113     1.0000 0.05710  0.31960  0.85620  Biso   1.000  H
  C212     1.0000 0.03423  0.35440  0.90290  Biso   1.000  C
  C213     1.0000 0.99793  0.36797  0.91866  Biso   1.000  C
  C214     1.0000 0.96181  0.35481  0.90237  Biso   1.000  C
  H114     1.0000 0.93750  0.36260  0.91430  Biso   1.000  H
  C215     1.0000 0.96138  0.32967  0.86786  Biso   1.000  C
  H115     1.0000 0.93700  0.32160  0.85620  Biso   1.000  H
  C216     1.0000 0.07102  0.36693  0.92123  Biso   1.000  C
  H116     1.0000 0.09560  0.35760  0.91100  Biso   1.000  H
  C217     1.0000 0.07072  0.39244  0.95350  Biso   1.000  C
  H117     1.0000 0.09510  0.40050  0.96500  Biso   1.000  H
  C218     1.0000 0.03400  0.40685  0.96978  Biso   1.000  C
  C219     1.0000 0.99927  0.39464  0.95340  Biso   1.000  C
  H118     1.0000 0.97500  0.40360  0.96470  Biso   1.000  H
  C220     1.0000 0.03448  0.43642  0.00306  Biso   1.000  C
  C221     1.0000 0.06394  0.46650  0.00397  Biso   1.000  C
  H119     1.0000 0.08420  0.46670  0.98440  Biso   1.000  H
  O35      1.0000 0.46666  0.28179  0.69957  Biso   1.000  O
  O36      1.0000 0.53575  0.28198  0.69990  Biso   1.000  O
  C222     1.0000 0.50197  0.28943  0.68632  Biso   1.000  C
  C223     1.0000 0.50094  0.31706  0.64854  Biso   1.000  C
  C224     1.0000 0.46715  0.32840  0.63237  Biso   1.000  C
  H120     1.0000 0.44290  0.31960  0.64380  Biso   1.000  H
  C225     1.0000 0.46577  0.35440  0.59710  Biso   1.000  C
  C226     1.0000 0.50207  0.36797  0.58134  Biso   1.000  C
  C227     1.0000 0.53819  0.35481  0.59763  Biso   1.000  C
  H121     1.0000 0.56250  0.36260  0.58570  Biso   1.000  H
  C228     1.0000 0.53862  0.32967  0.63214  Biso   1.000  C
  H122     1.0000 0.56300  0.32160  0.64380  Biso   1.000  H
  C229     1.0000 0.42898  0.36693  0.57877  Biso   1.000  C
  H123     1.0000 0.40440  0.35760  0.58900  Biso   1.000  H
  C230     1.0000 0.42928  0.39244  0.54650  Biso   1.000  C
  H124     1.0000 0.40490  0.40050  0.53500  Biso   1.000  H
  C231     1.0000 0.46600  0.40685  0.53022  Biso   1.000  C
  C232     1.0000 0.50073  0.39464  0.54660  Biso   1.000  C
  H125     1.0000 0.52500  0.40360  0.53530  Biso   1.000  H
  C233     1.0000 0.46552  0.43642  0.49694  Biso   1.000  C
  C234     1.0000 0.43606  0.46650  0.49603  Biso   1.000  C
  H126     1.0000 0.41580  0.46670  0.51560  Biso   1.000  H
  O37      1.0000 0.46666  0.21821  0.80043  Biso   1.000  O
  O38      1.0000 0.53575  0.21802  0.80010  Biso   1.000  O
  C235     1.0000 0.50197  0.21057  0.81368  Biso   1.000  C
  C236     1.0000 0.50094  0.18294  0.85146  Biso   1.000  C
  C237     1.0000 0.46715  0.17160  0.86763  Biso   1.000  C
  H127     1.0000 0.44290  0.18040  0.85620  Biso   1.000  H
  C238     1.0000 0.46577  0.14560  0.90290  Biso   1.000  C
  C239     1.0000 0.50207  0.13203  0.91866  Biso   1.000  C
  C240     1.0000 0.53819  0.14519  0.90237  Biso   1.000  C
  H128     1.0000 0.56250  0.13740  0.91430  Biso   1.000  H
  C241     1.0000 0.53862  0.17033  0.86786  Biso   1.000  C
  H129     1.0000 0.56300  0.17840  0.85620  Biso   1.000  H
  C242     1.0000 0.42898  0.13307  0.92123  Biso   1.000  C
  H130     1.0000 0.40440  0.14240  0.91100  Biso   1.000  H
  C243     1.0000 0.42928  0.10756  0.95350  Biso   1.000  C
  H131     1.0000 0.40490  0.09950  0.96500  Biso   1.000  H
  C244     1.0000 0.46600  0.09315  0.96978  Biso   1.000  C
  C245     1.0000 0.50073  0.10536  0.95340  Biso   1.000  C
  H132     1.0000 0.52500  0.09640  0.96470  Biso   1.000  H
  C246     1.0000 0.46552  0.06358  0.00306  Biso   1.000  C
  C247     1.0000 0.43606  0.03350  0.00397  Biso   1.000  C
  H133     1.0000 0.41580  0.03330  0.98440  Biso   1.000  H
  O39      1.0000 0.03334  0.21821  0.69957  Biso   1.000  O
  O40      1.0000 0.96425  0.21802  0.69990  Biso   1.000  O
  C248     1.0000 0.99803  0.21057  0.68632  Biso   1.000  C
  C249     1.0000 0.99906  0.18294  0.64854  Biso   1.000  C
  C250     1.0000 0.03285  0.17160  0.63237  Biso   1.000  C
  H134     1.0000 0.05710  0.18040  0.64380  Biso   1.000  H
  C251     1.0000 0.03423  0.14560  0.59710  Biso   1.000  C
  C252     1.0000 0.99793  0.13203  0.58134  Biso   1.000  C
  C253     1.0000 0.96181  0.14519  0.59763  Biso   1.000  C
  H135     1.0000 0.93750  0.13740  0.58570  Biso   1.000  H
  C254     1.0000 0.96138  0.17033  0.63214  Biso   1.000  C
  H136     1.0000 0.93700  0.17840  0.64380  Biso   1.000  H
  C255     1.0000 0.07102  0.13307  0.57877  Biso   1.000  C
  H137     1.0000 0.09560  0.14240  0.58900  Biso   1.000  H
  C256     1.0000 0.07072  0.10756  0.54650  Biso   1.000  C
  H138     1.0000 0.09510  0.09950  0.53500  Biso   1.000  H
  C257     1.0000 0.03400  0.09315  0.53022  Biso   1.000  C
  C258     1.0000 0.99927  0.10536  0.54660  Biso   1.000  C
  H139     1.0000 0.97500  0.09640  0.53530  Biso   1.000  H
  C259     1.0000 0.03448  0.06358  0.49694  Biso   1.000  C
  C260     1.0000 0.06394  0.03350  0.49603  Biso   1.000  C
  H140     1.0000 0.08420  0.03330  0.51560  Biso   1.000  H
  O41      1.0000 0.28179  0.69957  0.46666  Biso   1.000  O
  O42      1.0000 0.28198  0.69990  0.53575  Biso   1.000  O
  C261     1.0000 0.28943  0.68632  0.50197  Biso   1.000  C
  C262     1.0000 0.31706  0.64854  0.50094  Biso   1.000  C
  C263     1.0000 0.32840  0.63237  0.46715  Biso   1.000  C
  H141     1.0000 0.31960  0.64380  0.44290  Biso   1.000  H
  C264     1.0000 0.35440  0.59710  0.46577  Biso   1.000  C
  C265     1.0000 0.36797  0.58134  0.50207  Biso   1.000  C
  C266     1.0000 0.35481  0.59763  0.53819  Biso   1.000  C
  H142     1.0000 0.36260  0.58570  0.56250  Biso   1.000  H
  C267     1.0000 0.32967  0.63214  0.53862  Biso   1.000  C
  H143     1.0000 0.32160  0.64380  0.56300  Biso   1.000  H
  C268     1.0000 0.36693  0.57877  0.42898  Biso   1.000  C
  H144     1.0000 0.35760  0.58900  0.40440  Biso   1.000  H
  C269     1.0000 0.39244  0.54650  0.42928  Biso   1.000  C
  H145     1.0000 0.40050  0.53500  0.40490  Biso   1.000  H
  C270     1.0000 0.40685  0.53022  0.46600  Biso   1.000  C
  C271     1.0000 0.39464  0.54660  0.50073  Biso   1.000  C
  H146     1.0000 0.40360  0.53530  0.52500  Biso   1.000  H
  C272     1.0000 0.43642  0.49694  0.46552  Biso   1.000  C
  C273     1.0000 0.46650  0.49603  0.43606  Biso   1.000  C
  H147     1.0000 0.46670  0.51560  0.41580  Biso   1.000  H
  O43      1.0000 0.28179  0.80043  0.03334  Biso   1.000  O
  O44      1.0000 0.28198  0.80010  0.96425  Biso   1.000  O
  C274     1.0000 0.28943  0.81368  0.99803  Biso   1.000  C
  C275     1.0000 0.31706  0.85146  0.99906  Biso   1.000  C
  C276     1.0000 0.32840  0.86763  0.03285  Biso   1.000  C
  H148     1.0000 0.31960  0.85620  0.05710  Biso   1.000  H
  C277     1.0000 0.35440  0.90290  0.03423  Biso   1.000  C
  C278     1.0000 0.36797  0.91866  0.99793  Biso   1.000  C
  C279     1.0000 0.35481  0.90237  0.96181  Biso   1.000  C
  H149     1.0000 0.36260  0.91430  0.93750  Biso   1.000  H
  C280     1.0000 0.32967  0.86786  0.96138  Biso   1.000  C
  H150     1.0000 0.32160  0.85620  0.93700  Biso   1.000  H
  C281     1.0000 0.36693  0.92123  0.07102  Biso   1.000  C
  H151     1.0000 0.35760  0.91100  0.09560  Biso   1.000  H
  C282     1.0000 0.39244  0.95350  0.07072  Biso   1.000  C
  H152     1.0000 0.40050  0.96500  0.09510  Biso   1.000  H
  C283     1.0000 0.40685  0.96978  0.03400  Biso   1.000  C
  C284     1.0000 0.39464  0.95340  0.99927  Biso   1.000  C
  H153     1.0000 0.40360  0.96470  0.97500  Biso   1.000  H
  C285     1.0000 0.43642  0.00306  0.03448  Biso   1.000  C
  C286     1.0000 0.46650  0.00397  0.06394  Biso   1.000  C
  H154     1.0000 0.46670  0.98440  0.08420  Biso   1.000  H
  O45      1.0000 0.21821  0.69957  0.03334  Biso   1.000  O
  O46      1.0000 0.21802  0.69990  0.96425  Biso   1.000  O
  C287     1.0000 0.21057  0.68632  0.99803  Biso   1.000  C
  C288     1.0000 0.18294  0.64854  0.99906  Biso   1.000  C
  C289     1.0000 0.17160  0.63237  0.03285  Biso   1.000  C
  H155     1.0000 0.18040  0.64380  0.05710  Biso   1.000  H
  C290     1.0000 0.14560  0.59710  0.03423  Biso   1.000  C
  C291     1.0000 0.13203  0.58134  0.99793  Biso   1.000  C
  C292     1.0000 0.14519  0.59763  0.96181  Biso   1.000  C
  H156     1.0000 0.13740  0.58570  0.93750  Biso   1.000  H
  C293     1.0000 0.17033  0.63214  0.96138  Biso   1.000  C
  H157     1.0000 0.17840  0.64380  0.93700  Biso   1.000  H
  C294     1.0000 0.13307  0.57877  0.07102  Biso   1.000  C
  H158     1.0000 0.14240  0.58900  0.09560  Biso   1.000  H
  C295     1.0000 0.10756  0.54650  0.07072  Biso   1.000  C
  H159     1.0000 0.09950  0.53500  0.09510  Biso   1.000  H
  C296     1.0000 0.09315  0.53022  0.03400  Biso   1.000  C
  C297     1.0000 0.10536  0.54660  0.99927  Biso   1.000  C
  H160     1.0000 0.09640  0.53530  0.97500  Biso   1.000  H
  C298     1.0000 0.06358  0.49694  0.03448  Biso   1.000  C
  C299     1.0000 0.03350  0.49603  0.06394  Biso   1.000  C
  H161     1.0000 0.03330  0.51560  0.08420  Biso   1.000  H
  O47      1.0000 0.21821  0.80043  0.46666  Biso   1.000  O
  O48      1.0000 0.21802  0.80010  0.53575  Biso   1.000  O
  C300     1.0000 0.21057  0.81368  0.50197  Biso   1.000  C
  C301     1.0000 0.18294  0.85146  0.50094  Biso   1.000  C
  C302     1.0000 0.17160  0.86763  0.46715  Biso   1.000  C
  H162     1.0000 0.18040  0.85620  0.44290  Biso   1.000  H
  C303     1.0000 0.14560  0.90290  0.46577  Biso   1.000  C
  C304     1.0000 0.13203  0.91866  0.50207  Biso   1.000  C
  C305     1.0000 0.14519  0.90237  0.53819  Biso   1.000  C
  H163     1.0000 0.13740  0.91430  0.56250  Biso   1.000  H
  C306     1.0000 0.17033  0.86786  0.53862  Biso   1.000  C
  H164     1.0000 0.17840  0.85620  0.56300  Biso   1.000  H
  C307     1.0000 0.13307  0.92123  0.42898  Biso   1.000  C
  H165     1.0000 0.14240  0.91100  0.40440  Biso   1.000  H
  C308     1.0000 0.10756  0.95350  0.42928  Biso   1.000  C
  H166     1.0000 0.09950  0.96500  0.40490  Biso   1.000  H
  C309     1.0000 0.09315  0.96978  0.46600  Biso   1.000  C
  C310     1.0000 0.10536  0.95340  0.50073  Biso   1.000  C
  H167     1.0000 0.09640  0.96470  0.52500  Biso   1.000  H
  C311     1.0000 0.06358  0.00306  0.46552  Biso   1.000  C
  C312     1.0000 0.03350  0.00397  0.43606  Biso   1.000  C
  H168     1.0000 0.03330  0.98440  0.41580  Biso   1.000  H
  Cu1      1.0000 0.96026  0.25000  0.75000  Biso   1.000  Cu
  Cu2      1.0000 0.53974  0.25000  0.75000  Biso   1.000  Cu
  Cu3      1.0000 0.75000  0.96026  0.25000  Biso   1.000  Cu
  Cu4      1.0000 0.75000  0.53974  0.25000  Biso   1.000  Cu
  Cu5      1.0000 0.25000  0.75000  0.96026  Biso   1.000  Cu
  Cu6      1.0000 0.25000  0.75000  0.53974  Biso   1.000  Cu
  Cu7      1.0000 0.75000  0.03974  0.25000  Biso   1.000  Cu
  Cu8      1.0000 0.75000  0.46026  0.25000  Biso   1.000  Cu
  Cu9      1.0000 0.03974  0.25000  0.75000  Biso   1.000  Cu
  Cu10     1.0000 0.46026  0.25000  0.75000  Biso   1.000  Cu
  Cu11     1.0000 0.25000  0.75000  0.46026  Biso   1.000  Cu
  Cu12     1.0000 0.25000  0.75000  0.03974  Biso   1.000  Cu
  O49      1.0000 0.30043  0.96666  0.78179  Biso   1.000  O
  O50      1.0000 0.30010  0.03575  0.78198  Biso   1.000  O
  C313     1.0000 0.31368  0.00197  0.78943  Biso   1.000  C
  C314     1.0000 0.35146  0.00094  0.81706  Biso   1.000  C
  C315     1.0000 0.36763  0.96715  0.82840  Biso   1.000  C
  H169     1.0000 0.35620  0.94290  0.81960  Biso   1.000  H
  C316     1.0000 0.40290  0.96577  0.85440  Biso   1.000  C
  C317     1.0000 0.41866  0.00207  0.86797  Biso   1.000  C
  C318     1.0000 0.40237  0.03819  0.85481  Biso   1.000  C
  H170     1.0000 0.41430  0.06250  0.86260  Biso   1.000  H
  C319     1.0000 0.36786  0.03862  0.82967  Biso   1.000  C
  H171     1.0000 0.35620  0.06300  0.82160  Biso   1.000  H
  C320     1.0000 0.42123  0.92898  0.86693  Biso   1.000  C
  H172     1.0000 0.41100  0.90440  0.85760  Biso   1.000  H
  C321     1.0000 0.45350  0.92928  0.89244  Biso   1.000  C
  H173     1.0000 0.46500  0.90490  0.90050  Biso   1.000  H
  C322     1.0000 0.46978  0.96600  0.90685  Biso   1.000  C
  C323     1.0000 0.45340  0.00073  0.89464  Biso   1.000  C
  H174     1.0000 0.46470  0.02500  0.90360  Biso   1.000  H
  C324     1.0000 0.50306  0.96552  0.93642  Biso   1.000  C
  C325     1.0000 0.50397  0.93606  0.96650  Biso   1.000  C
  H175     1.0000 0.48440  0.91580  0.96670  Biso   1.000  H
  O51      1.0000 0.19957  0.53334  0.78179  Biso   1.000  O
  O52      1.0000 0.19990  0.46425  0.78198  Biso   1.000  O
  C326     1.0000 0.18632  0.49803  0.78943  Biso   1.000  C
  C327     1.0000 0.14854  0.49906  0.81706  Biso   1.000  C
  C328     1.0000 0.13237  0.53285  0.82840  Biso   1.000  C
  H176     1.0000 0.14380  0.55710  0.81960  Biso   1.000  H
  C329     1.0000 0.09710  0.53423  0.85440  Biso   1.000  C
  C330     1.0000 0.08134  0.49793  0.86797  Biso   1.000  C
  C331     1.0000 0.09763  0.46181  0.85481  Biso   1.000  C
  H177     1.0000 0.08570  0.43750  0.86260  Biso   1.000  H
  C332     1.0000 0.13214  0.46138  0.82967  Biso   1.000  C
  H178     1.0000 0.14380  0.43700  0.82160  Biso   1.000  H
  C333     1.0000 0.07877  0.57102  0.86693  Biso   1.000  C
  H179     1.0000 0.08900  0.59560  0.85760  Biso   1.000  H
  C334     1.0000 0.04650  0.57072  0.89244  Biso   1.000  C
  H180     1.0000 0.03500  0.59510  0.90050  Biso   1.000  H
  C335     1.0000 0.03022  0.53400  0.90685  Biso   1.000  C
  C336     1.0000 0.04660  0.49927  0.89464  Biso   1.000  C
  H181     1.0000 0.03530  0.47500  0.90360  Biso   1.000  H
  C337     1.0000 0.99694  0.53448  0.93642  Biso   1.000  C
  C338     1.0000 0.99603  0.56394  0.96650  Biso   1.000  C
  H182     1.0000 0.01560  0.58420  0.96670  Biso   1.000  H
  O53      1.0000 0.30043  0.53334  0.71821  Biso   1.000  O
  O54      1.0000 0.30010  0.46425  0.71802  Biso   1.000  O
  C339     1.0000 0.31368  0.49803  0.71057  Biso   1.000  C
  C340     1.0000 0.35146  0.49906  0.68294  Biso   1.000  C
  C341     1.0000 0.36763  0.53285  0.67160  Biso   1.000  C
  H183     1.0000 0.35620  0.55710  0.68040  Biso   1.000  H
  C342     1.0000 0.40290  0.53423  0.64560  Biso   1.000  C
  C343     1.0000 0.41866  0.49793  0.63203  Biso   1.000  C
  C344     1.0000 0.40237  0.46181  0.64519  Biso   1.000  C
  H184     1.0000 0.41430  0.43750  0.63740  Biso   1.000  H
  C345     1.0000 0.36786  0.46138  0.67033  Biso   1.000  C
  H185     1.0000 0.35620  0.43700  0.67840  Biso   1.000  H
  C346     1.0000 0.42123  0.57102  0.63307  Biso   1.000  C
  H186     1.0000 0.41100  0.59560  0.64240  Biso   1.000  H
  C347     1.0000 0.45350  0.57072  0.60756  Biso   1.000  C
  H187     1.0000 0.46500  0.59510  0.59950  Biso   1.000  H
  C348     1.0000 0.46978  0.53400  0.59315  Biso   1.000  C
  C349     1.0000 0.45340  0.49927  0.60536  Biso   1.000  C
  H188     1.0000 0.46470  0.47500  0.59640  Biso   1.000  H
  C350     1.0000 0.50306  0.53448  0.56358  Biso   1.000  C
  C351     1.0000 0.50397  0.56394  0.53350  Biso   1.000  C
  H189     1.0000 0.48440  0.58420  0.53330  Biso   1.000  H
  O55      1.0000 0.19957  0.96666  0.71821  Biso   1.000  O
  O56      1.0000 0.19990  0.03575  0.71802  Biso   1.000  O
  C352     1.0000 0.18632  0.00197  0.71057  Biso   1.000  C
  C353     1.0000 0.14854  0.00094  0.68294  Biso   1.000  C
  C354     1.0000 0.13237  0.96715  0.67160  Biso   1.000  C
  H190     1.0000 0.14380  0.94290  0.68040  Biso   1.000  H
  C355     1.0000 0.09710  0.96577  0.64560  Biso   1.000  C
  C356     1.0000 0.08134  0.00207  0.63203  Biso   1.000  C
  C357     1.0000 0.09763  0.03819  0.64519  Biso   1.000  C
  H191     1.0000 0.08570  0.06250  0.63740  Biso   1.000  H
  C358     1.0000 0.13214  0.03862  0.67033  Biso   1.000  C
  H192     1.0000 0.14380  0.06300  0.67840  Biso   1.000  H
  C359     1.0000 0.07877  0.92898  0.63307  Biso   1.000  C
  H193     1.0000 0.08900  0.90440  0.64240  Biso   1.000  H
  C360     1.0000 0.04650  0.92928  0.60756  Biso   1.000  C
  H194     1.0000 0.03500  0.90490  0.59950  Biso   1.000  H
  C361     1.0000 0.03022  0.96600  0.59315  Biso   1.000  C
  C362     1.0000 0.04660  0.00073  0.60536  Biso   1.000  C
  H195     1.0000 0.03530  0.02500  0.59640  Biso   1.000  H
  C363     1.0000 0.99694  0.96552  0.56358  Biso   1.000  C
  C364     1.0000 0.99603  0.93606  0.53350  Biso   1.000  C
  H196     1.0000 0.01560  0.91580  0.53330  Biso   1.000  H
  O57      1.0000 0.96666  0.71821  0.19957  Biso   1.000  O
  O58      1.0000 0.03575  0.71802  0.19990  Biso   1.000  O
  C365     1.0000 0.00197  0.71057  0.18632  Biso   1.000  C
  C366     1.0000 0.00094  0.68294  0.14854  Biso   1.000  C
  C367     1.0000 0.96715  0.67160  0.13237  Biso   1.000  C
  H197     1.0000 0.94290  0.68040  0.14380  Biso   1.000  H
  C368     1.0000 0.96577  0.64560  0.09710  Biso   1.000  C
  C369     1.0000 0.00207  0.63203  0.08134  Biso   1.000  C
  C370     1.0000 0.03819  0.64519  0.09763  Biso   1.000  C
  H198     1.0000 0.06250  0.63740  0.08570  Biso   1.000  H
  C371     1.0000 0.03862  0.67033  0.13214  Biso   1.000  C
  H199     1.0000 0.06300  0.67840  0.14380  Biso   1.000  H
  C372     1.0000 0.92898  0.63307  0.07877  Biso   1.000  C
  H200     1.0000 0.90440  0.64240  0.08900  Biso   1.000  H
  C373     1.0000 0.92928  0.60756  0.04650  Biso   1.000  C
  H201     1.0000 0.90490  0.59950  0.03500  Biso   1.000  H
  C374     1.0000 0.96600  0.59315  0.03022  Biso   1.000  C
  C375     1.0000 0.00073  0.60536  0.04660  Biso   1.000  C
  H202     1.0000 0.02500  0.59640  0.03530  Biso   1.000  H
  C376     1.0000 0.96552  0.56358  0.99694  Biso   1.000  C
  C377     1.0000 0.93606  0.53350  0.99603  Biso   1.000  C
  H203     1.0000 0.91580  0.53330  0.01560  Biso   1.000  H
  O59      1.0000 0.53334  0.71821  0.30043  Biso   1.000  O
  O60      1.0000 0.46425  0.71802  0.30010  Biso   1.000  O
  C378     1.0000 0.49803  0.71057  0.31368  Biso   1.000  C
  C379     1.0000 0.49906  0.68294  0.35146  Biso   1.000  C
  C380     1.0000 0.53285  0.67160  0.36763  Biso   1.000  C
  H204     1.0000 0.55710  0.68040  0.35620  Biso   1.000  H
  C381     1.0000 0.53423  0.64560  0.40290  Biso   1.000  C
  C382     1.0000 0.49793  0.63203  0.41866  Biso   1.000  C
  C383     1.0000 0.46181  0.64519  0.40237  Biso   1.000  C
  H205     1.0000 0.43750  0.63740  0.41430  Biso   1.000  H
  C384     1.0000 0.46138  0.67033  0.36786  Biso   1.000  C
  H206     1.0000 0.43700  0.67840  0.35620  Biso   1.000  H
  C385     1.0000 0.57102  0.63307  0.42123  Biso   1.000  C
  H207     1.0000 0.59560  0.64240  0.41100  Biso   1.000  H
  C386     1.0000 0.57072  0.60756  0.45350  Biso   1.000  C
  H208     1.0000 0.59510  0.59950  0.46500  Biso   1.000  H
  C387     1.0000 0.53400  0.59315  0.46978  Biso   1.000  C
  C388     1.0000 0.49927  0.60536  0.45340  Biso   1.000  C
  H209     1.0000 0.47500  0.59640  0.46470  Biso   1.000  H
  C389     1.0000 0.53448  0.56358  0.50306  Biso   1.000  C
  C390     1.0000 0.56394  0.53350  0.50397  Biso   1.000  C
  H210     1.0000 0.58420  0.53330  0.48440  Biso   1.000  H
  O61      1.0000 0.53334  0.78179  0.19957  Biso   1.000  O
  O62      1.0000 0.46425  0.78198  0.19990  Biso   1.000  O
  C391     1.0000 0.49803  0.78943  0.18632  Biso   1.000  C
  C392     1.0000 0.49906  0.81706  0.14854  Biso   1.000  C
  C393     1.0000 0.53285  0.82840  0.13237  Biso   1.000  C
  H211     1.0000 0.55710  0.81960  0.14380  Biso   1.000  H
  C394     1.0000 0.53423  0.85440  0.09710  Biso   1.000  C
  C395     1.0000 0.49793  0.86797  0.08134  Biso   1.000  C
  C396     1.0000 0.46181  0.85481  0.09763  Biso   1.000  C
  H212     1.0000 0.43750  0.86260  0.08570  Biso   1.000  H
  C397     1.0000 0.46138  0.82967  0.13214  Biso   1.000  C
  H213     1.0000 0.43700  0.82160  0.14380  Biso   1.000  H
  C398     1.0000 0.57102  0.86693  0.07877  Biso   1.000  C
  H214     1.0000 0.59560  0.85760  0.08900  Biso   1.000  H
  C399     1.0000 0.57072  0.89244  0.04650  Biso   1.000  C
  H215     1.0000 0.59510  0.90050  0.03500  Biso   1.000  H
  C400     1.0000 0.53400  0.90685  0.03022  Biso   1.000  C
  C401     1.0000 0.49927  0.89464  0.04660  Biso   1.000  C
  H216     1.0000 0.47500  0.90360  0.03530  Biso   1.000  H
  C402     1.0000 0.53448  0.93642  0.99694  Biso   1.000  C
  C403     1.0000 0.56394  0.96650  0.99603  Biso   1.000  C
  H217     1.0000 0.58420  0.96670  0.01560  Biso   1.000  H
  O63      1.0000 0.96666  0.78179  0.30043  Biso   1.000  O
  O64      1.0000 0.03575  0.78198  0.30010  Biso   1.000  O
  C404     1.0000 0.00197  0.78943  0.31368  Biso   1.000  C
  C405     1.0000 0.00094  0.81706  0.35146  Biso   1.000  C
  C406     1.0000 0.96715  0.82840  0.36763  Biso   1.000  C
  H218     1.0000 0.94290  0.81960  0.35620  Biso   1.000  H
  C407     1.0000 0.96577  0.85440  0.40290  Biso   1.000  C
  C408     1.0000 0.00207  0.86797  0.41866  Biso   1.000  C
  C409     1.0000 0.03819  0.85481  0.40237  Biso   1.000  C
  H219     1.0000 0.06250  0.86260  0.41430  Biso   1.000  H
  C410     1.0000 0.03862  0.82967  0.36786  Biso   1.000  C
  H220     1.0000 0.06300  0.82160  0.35620  Biso   1.000  H
  C411     1.0000 0.92898  0.86693  0.42123  Biso   1.000  C
  H221     1.0000 0.90440  0.85760  0.41100  Biso   1.000  H
  C412     1.0000 0.92928  0.89244  0.45350  Biso   1.000  C
  H222     1.0000 0.90490  0.90050  0.46500  Biso   1.000  H
  C413     1.0000 0.96600  0.90685  0.46978  Biso   1.000  C
  C414     1.0000 0.00073  0.89464  0.45340  Biso   1.000  C
  H223     1.0000 0.02500  0.90360  0.46470  Biso   1.000  H
  C415     1.0000 0.96552  0.93642  0.50306  Biso   1.000  C
  C416     1.0000 0.93606  0.96650  0.50397  Biso   1.000  C
  H224     1.0000 0.91580  0.96670  0.48440  Biso   1.000  H
  O65      1.0000 0.71821  0.30043  0.53334  Biso   1.000  O
  O66      1.0000 0.71802  0.30010  0.46425  Biso   1.000  O
  C417     1.0000 0.71057  0.31368  0.49803  Biso   1.000  C
  C418     1.0000 0.68294  0.35146  0.49906  Biso   1.000  C
  C419     1.0000 0.67160  0.36763  0.53285  Biso   1.000  C
  H225     1.0000 0.68040  0.35620  0.55710  Biso   1.000  H
  C420     1.0000 0.64560  0.40290  0.53423  Biso   1.000  C
  C421     1.0000 0.63203  0.41866  0.49793  Biso   1.000  C
  C422     1.0000 0.64519  0.40237  0.46181  Biso   1.000  C
  H226     1.0000 0.63740  0.41430  0.43750  Biso   1.000  H
  C423     1.0000 0.67033  0.36786  0.46138  Biso   1.000  C
  H227     1.0000 0.67840  0.35620  0.43700  Biso   1.000  H
  C424     1.0000 0.63307  0.42123  0.57102  Biso   1.000  C
  H228     1.0000 0.64240  0.41100  0.59560  Biso   1.000  H
  C425     1.0000 0.60756  0.45350  0.57072  Biso   1.000  C
  H229     1.0000 0.59950  0.46500  0.59510  Biso   1.000  H
  C426     1.0000 0.59315  0.46978  0.53400  Biso   1.000  C
  C427     1.0000 0.60536  0.45340  0.49927  Biso   1.000  C
  H230     1.0000 0.59640  0.46470  0.47500  Biso   1.000  H
  C428     1.0000 0.56358  0.50306  0.53448  Biso   1.000  C
  C429     1.0000 0.53350  0.50397  0.56394  Biso   1.000  C
  H231     1.0000 0.53330  0.48440  0.58420  Biso   1.000  H
  O67      1.0000 0.71821  0.19957  0.96666  Biso   1.000  O
  O68      1.0000 0.71802  0.19990  0.03575  Biso   1.000  O
  C430     1.0000 0.71057  0.18632  0.00197  Biso   1.000  C
  C431     1.0000 0.68294  0.14854  0.00094  Biso   1.000  C
  C432     1.0000 0.67160  0.13237  0.96715  Biso   1.000  C
  H232     1.0000 0.68040  0.14380  0.94290  Biso   1.000  H
  C433     1.0000 0.64560  0.09710  0.96577  Biso   1.000  C
  C434     1.0000 0.63203  0.08134  0.00207  Biso   1.000  C
  C435     1.0000 0.64519  0.09763  0.03819  Biso   1.000  C
  H233     1.0000 0.63740  0.08570  0.06250  Biso   1.000  H
  C436     1.0000 0.67033  0.13214  0.03862  Biso   1.000  C
  H234     1.0000 0.67840  0.14380  0.06300  Biso   1.000  H
  C437     1.0000 0.63307  0.07877  0.92898  Biso   1.000  C
  H235     1.0000 0.64240  0.08900  0.90440  Biso   1.000  H
  C438     1.0000 0.60756  0.04650  0.92928  Biso   1.000  C
  H236     1.0000 0.59950  0.03500  0.90490  Biso   1.000  H
  C439     1.0000 0.59315  0.03022  0.96600  Biso   1.000  C
  C440     1.0000 0.60536  0.04660  0.00073  Biso   1.000  C
  H237     1.0000 0.59640  0.03530  0.02500  Biso   1.000  H
  C441     1.0000 0.56358  0.99694  0.96552  Biso   1.000  C
  C442     1.0000 0.53350  0.99603  0.93606  Biso   1.000  C
  H238     1.0000 0.53330  0.01560  0.91580  Biso   1.000  H
  O69      1.0000 0.78179  0.30043  0.96666  Biso   1.000  O
  O70      1.0000 0.78198  0.30010  0.03575  Biso   1.000  O
  C443     1.0000 0.78943  0.31368  0.00197  Biso   1.000  C
  C444     1.0000 0.81706  0.35146  0.00094  Biso   1.000  C
  C445     1.0000 0.82840  0.36763  0.96715  Biso   1.000  C
  H239     1.0000 0.81960  0.35620  0.94290  Biso   1.000  H
  C446     1.0000 0.85440  0.40290  0.96577  Biso   1.000  C
  C447     1.0000 0.86797  0.41866  0.00207  Biso   1.000  C
  C448     1.0000 0.85481  0.40237  0.03819  Biso   1.000  C
  H240     1.0000 0.86260  0.41430  0.06250  Biso   1.000  H
  C449     1.0000 0.82967  0.36786  0.03862  Biso   1.000  C
  H241     1.0000 0.82160  0.35620  0.06300  Biso   1.000  H
  C450     1.0000 0.86693  0.42123  0.92898  Biso   1.000  C
  H242     1.0000 0.85760  0.41100  0.90440  Biso   1.000  H
  C451     1.0000 0.89244  0.45350  0.92928  Biso   1.000  C
  H243     1.0000 0.90050  0.46500  0.90490  Biso   1.000  H
  C452     1.0000 0.90685  0.46978  0.96600  Biso   1.000  C
  C453     1.0000 0.89464  0.45340  0.00073  Biso   1.000  C
  H244     1.0000 0.90360  0.46470  0.02500  Biso   1.000  H
  C454     1.0000 0.93642  0.50306  0.96552  Biso   1.000  C
  C455     1.0000 0.96650  0.50397  0.93606  Biso   1.000  C
  H245     1.0000 0.96670  0.48440  0.91580  Biso   1.000  H
  O71      1.0000 0.78179  0.19957  0.53334  Biso   1.000  O
  O72      1.0000 0.78198  0.19990  0.46425  Biso   1.000  O
  C456     1.0000 0.78943  0.18632  0.49803  Biso   1.000  C
  C457     1.0000 0.81706  0.14854  0.49906  Biso   1.000  C
  C458     1.0000 0.82840  0.13237  0.53285  Biso   1.000  C
  H246     1.0000 0.81960  0.14380  0.55710  Biso   1.000  H
  C459     1.0000 0.85440  0.09710  0.53423  Biso   1.000  C
  C460     1.0000 0.86797  0.08134  0.49793  Biso   1.000  C
  C461     1.0000 0.85481  0.09763  0.46181  Biso   1.000  C
  H247     1.0000 0.86260  0.08570  0.43750  Biso   1.000  H
  C462     1.0000 0.82967  0.13214  0.46138  Biso   1.000  C
  H248     1.0000 0.82160  0.14380  0.43700  Biso   1.000  H
  C463     1.0000 0.86693  0.07877  0.57102  Biso   1.000  C
  H249     1.0000 0.85760  0.08900  0.59560  Biso   1.000  H
  C464     1.0000 0.89244  0.04650  0.57072  Biso   1.000  C
  H250     1.0000 0.90050  0.03500  0.59510  Biso   1.000  H
  C465     1.0000 0.90685  0.03022  0.53400  Biso   1.000  C
  C466     1.0000 0.89464  0.04660  0.49927  Biso   1.000  C
  H251     1.0000 0.90360  0.03530  0.47500  Biso   1.000  H
  C467     1.0000 0.93642  0.99694  0.53448  Biso   1.000  C
  C468     1.0000 0.96650  0.99603  0.56394  Biso   1.000  C
  H252     1.0000 0.96670  0.01560  0.58420  Biso   1.000  H
  O73      1.0000 0.03334  0.69957  0.28179  Biso   1.000  O
  O74      1.0000 0.96425  0.69990  0.28198  Biso   1.000  O
  C469     1.0000 0.99803  0.68632  0.28943  Biso   1.000  C
  C470     1.0000 0.99906  0.64854  0.31706  Biso   1.000  C
  C471     1.0000 0.03285  0.63237  0.32840  Biso   1.000  C
  H253     1.0000 0.05710  0.64380  0.31960  Biso   1.000  H
  C472     1.0000 0.03423  0.59710  0.35440  Biso   1.000  C
  C473     1.0000 0.99793  0.58134  0.36797  Biso   1.000  C
  C474     1.0000 0.96181  0.59763  0.35481  Biso   1.000  C
  H254     1.0000 0.93750  0.58570  0.36260  Biso   1.000  H
  C475     1.0000 0.96138  0.63214  0.32967  Biso   1.000  C
  H255     1.0000 0.93700  0.64380  0.32160  Biso   1.000  H
  C476     1.0000 0.07102  0.57877  0.36693  Biso   1.000  C
  H256     1.0000 0.09560  0.58900  0.35760  Biso   1.000  H
  C477     1.0000 0.07072  0.54650  0.39244  Biso   1.000  C
  H257     1.0000 0.09510  0.53500  0.40050  Biso   1.000  H
  C478     1.0000 0.03400  0.53022  0.40685  Biso   1.000  C
  C479     1.0000 0.99927  0.54660  0.39464  Biso   1.000  C
  H258     1.0000 0.97500  0.53530  0.40360  Biso   1.000  H
  C480     1.0000 0.03448  0.49694  0.43642  Biso   1.000  C
  C481     1.0000 0.06394  0.49603  0.46650  Biso   1.000  C
  H259     1.0000 0.08420  0.51560  0.46670  Biso   1.000  H
  O75      1.0000 0.46666  0.80043  0.28179  Biso   1.000  O
  O76      1.0000 0.53575  0.80010  0.28198  Biso   1.000  O
  C482     1.0000 0.50197  0.81368  0.28943  Biso   1.000  C
  C483     1.0000 0.50094  0.85146  0.31706  Biso   1.000  C
  C484     1.0000 0.46715  0.86763  0.32840  Biso   1.000  C
  H260     1.0000 0.44290  0.85620  0.31960  Biso   1.000  H
  C485     1.0000 0.46577  0.90290  0.35440  Biso   1.000  C
  C486     1.0000 0.50207  0.91866  0.36797  Biso   1.000  C
  C487     1.0000 0.53819  0.90237  0.35481  Biso   1.000  C
  H261     1.0000 0.56250  0.91430  0.36260  Biso   1.000  H
  C488     1.0000 0.53862  0.86786  0.32967  Biso   1.000  C
  H262     1.0000 0.56300  0.85620  0.32160  Biso   1.000  H
  C489     1.0000 0.42898  0.92123  0.36693  Biso   1.000  C
  H263     1.0000 0.40440  0.91100  0.35760  Biso   1.000  H
  C490     1.0000 0.42928  0.95350  0.39244  Biso   1.000  C
  H264     1.0000 0.40490  0.96500  0.40050  Biso   1.000  H
  C491     1.0000 0.46600  0.96978  0.40685  Biso   1.000  C
  C492     1.0000 0.50073  0.95340  0.39464  Biso   1.000  C
  H265     1.0000 0.52500  0.96470  0.40360  Biso   1.000  H
  C493     1.0000 0.46552  0.00306  0.43642  Biso   1.000  C
  C494     1.0000 0.43606  0.00397  0.46650  Biso   1.000  C
  H266     1.0000 0.41580  0.98440  0.46670  Biso   1.000  H
  O77      1.0000 0.46666  0.69957  0.21821  Biso   1.000  O
  O78      1.0000 0.53575  0.69990  0.21802  Biso   1.000  O
  C495     1.0000 0.50197  0.68632  0.21057  Biso   1.000  C
  C496     1.0000 0.50094  0.64854  0.18294  Biso   1.000  C
  C497     1.0000 0.46715  0.63237  0.17160  Biso   1.000  C
  H267     1.0000 0.44290  0.64380  0.18040  Biso   1.000  H
  C498     1.0000 0.46577  0.59710  0.14560  Biso   1.000  C
  C499     1.0000 0.50207  0.58134  0.13203  Biso   1.000  C
  C500     1.0000 0.53819  0.59763  0.14519  Biso   1.000  C
  H268     1.0000 0.56250  0.58570  0.13740  Biso   1.000  H
  C501     1.0000 0.53862  0.63214  0.17033  Biso   1.000  C
  H269     1.0000 0.56300  0.64380  0.17840  Biso   1.000  H
  C502     1.0000 0.42898  0.57877  0.13307  Biso   1.000  C
  H270     1.0000 0.40440  0.58900  0.14240  Biso   1.000  H
  C503     1.0000 0.42928  0.54650  0.10756  Biso   1.000  C
  H271     1.0000 0.40490  0.53500  0.09950  Biso   1.000  H
  C504     1.0000 0.46600  0.53022  0.09315  Biso   1.000  C
  C505     1.0000 0.50073  0.54660  0.10536  Biso   1.000  C
  H272     1.0000 0.52500  0.53530  0.09640  Biso   1.000  H
  C506     1.0000 0.46552  0.49694  0.06358  Biso   1.000  C
  C507     1.0000 0.43606  0.49603  0.03350  Biso   1.000  C
  H273     1.0000 0.41580  0.51560  0.03330  Biso   1.000  H
  O79      1.0000 0.03334  0.80043  0.21821  Biso   1.000  O
  O80      1.0000 0.96425  0.80010  0.21802  Biso   1.000  O
  C508     1.0000 0.99803  0.81368  0.21057  Biso   1.000  C
  C509     1.0000 0.99906  0.85146  0.18294  Biso   1.000  C
  C510     1.0000 0.03285  0.86763  0.17160  Biso   1.000  C
  H274     1.0000 0.05710  0.85620  0.18040  Biso   1.000  H
  C511     1.0000 0.03423  0.90290  0.14560  Biso   1.000  C
  C512     1.0000 0.99793  0.91866  0.13203  Biso   1.000  C
  C513     1.0000 0.96181  0.90237  0.14519  Biso   1.000  C
  H275     1.0000 0.93750  0.91430  0.13740  Biso   1.000  H
  C514     1.0000 0.96138  0.86786  0.17033  Biso   1.000  C
  H276     1.0000 0.93700  0.85620  0.17840  Biso   1.000  H
  C515     1.0000 0.07102  0.92123  0.13307  Biso   1.000  C
  H277     1.0000 0.09560  0.91100  0.14240  Biso   1.000  H
  C516     1.0000 0.07072  0.95350  0.10756  Biso   1.000  C
  H278     1.0000 0.09510  0.96500  0.09950  Biso   1.000  H
  C517     1.0000 0.03400  0.96978  0.09315  Biso   1.000  C
  C518     1.0000 0.99927  0.95340  0.10536  Biso   1.000  C
  H279     1.0000 0.97500  0.96470  0.09640  Biso   1.000  H
  C519     1.0000 0.03448  0.00306  0.06358  Biso   1.000  C
  C520     1.0000 0.06394  0.00397  0.03350  Biso   1.000  C
  H280     1.0000 0.08420  0.98440  0.03330  Biso   1.000  H
  O81      1.0000 0.28179  0.03334  0.69957  Biso   1.000  O
  O82      1.0000 0.28198  0.96425  0.69990  Biso   1.000  O
  C521     1.0000 0.28943  0.99803  0.68632  Biso   1.000  C
  C522     1.0000 0.31706  0.99906  0.64854  Biso   1.000  C
  C523     1.0000 0.32840  0.03285  0.63237  Biso   1.000  C
  H281     1.0000 0.31960  0.05710  0.64380  Biso   1.000  H
  C524     1.0000 0.35440  0.03423  0.59710  Biso   1.000  C
  C525     1.0000 0.36797  0.99793  0.58134  Biso   1.000  C
  C526     1.0000 0.35481  0.96181  0.59763  Biso   1.000  C
  H282     1.0000 0.36260  0.93750  0.58570  Biso   1.000  H
  C527     1.0000 0.32967  0.96138  0.63214  Biso   1.000  C
  H283     1.0000 0.32160  0.93700  0.64380  Biso   1.000  H
  C528     1.0000 0.36693  0.07102  0.57877  Biso   1.000  C
  H284     1.0000 0.35760  0.09560  0.58900  Biso   1.000  H
  C529     1.0000 0.39244  0.07072  0.54650  Biso   1.000  C
  H285     1.0000 0.40050  0.09510  0.53500  Biso   1.000  H
  C530     1.0000 0.40685  0.03400  0.53022  Biso   1.000  C
  C531     1.0000 0.39464  0.99927  0.54660  Biso   1.000  C
  H286     1.0000 0.40360  0.97500  0.53530  Biso   1.000  H
  C532     1.0000 0.43642  0.03448  0.49694  Biso   1.000  C
  C533     1.0000 0.46650  0.06394  0.49603  Biso   1.000  C
  H287     1.0000 0.46670  0.08420  0.51560  Biso   1.000  H
  O83      1.0000 0.28179  0.46666  0.80043  Biso   1.000  O
  O84      1.0000 0.28198  0.53575  0.80010  Biso   1.000  O
  C534     1.0000 0.28943  0.50197  0.81368  Biso   1.000  C
  C535     1.0000 0.31706  0.50094  0.85146  Biso   1.000  C
  C536     1.0000 0.32840  0.46715  0.86763  Biso   1.000  C
  H288     1.0000 0.31960  0.44290  0.85620  Biso   1.000  H
  C537     1.0000 0.35440  0.46577  0.90290  Biso   1.000  C
  C538     1.0000 0.36797  0.50207  0.91866  Biso   1.000  C
  C539     1.0000 0.35481  0.53819  0.90237  Biso   1.000  C
  H289     1.0000 0.36260  0.56250  0.91430  Biso   1.000  H
  C540     1.0000 0.32967  0.53862  0.86786  Biso   1.000  C
  H290     1.0000 0.32160  0.56300  0.85620  Biso   1.000  H
  C541     1.0000 0.36693  0.42898  0.92123  Biso   1.000  C
  H291     1.0000 0.35760  0.40440  0.91100  Biso   1.000  H
  C542     1.0000 0.39244  0.42928  0.95350  Biso   1.000  C
  H292     1.0000 0.40050  0.40490  0.96500  Biso   1.000  H
  C543     1.0000 0.40685  0.46600  0.96978  Biso   1.000  C
  C544     1.0000 0.39464  0.50073  0.95340  Biso   1.000  C
  H293     1.0000 0.40360  0.52500  0.96470  Biso   1.000  H
  C545     1.0000 0.43642  0.46552  0.00306  Biso   1.000  C
  C546     1.0000 0.46650  0.43606  0.00397  Biso   1.000  C
  H294     1.0000 0.46670  0.41580  0.98440  Biso   1.000  H
  O85      1.0000 0.21821  0.46666  0.69957  Biso   1.000  O
  O86      1.0000 0.21802  0.53575  0.69990  Biso   1.000  O
  C547     1.0000 0.21057  0.50197  0.68632  Biso   1.000  C
  C548     1.0000 0.18294  0.50094  0.64854  Biso   1.000  C
  C549     1.0000 0.17160  0.46715  0.63237  Biso   1.000  C
  H295     1.0000 0.18040  0.44290  0.64380  Biso   1.000  H
  C550     1.0000 0.14560  0.46577  0.59710  Biso   1.000  C
  C551     1.0000 0.13203  0.50207  0.58134  Biso   1.000  C
  C552     1.0000 0.14519  0.53819  0.59763  Biso   1.000  C
  H296     1.0000 0.13740  0.56250  0.58570  Biso   1.000  H
  C553     1.0000 0.17033  0.53862  0.63214  Biso   1.000  C
  H297     1.0000 0.17840  0.56300  0.64380  Biso   1.000  H
  C554     1.0000 0.13307  0.42898  0.57877  Biso   1.000  C
  H298     1.0000 0.14240  0.40440  0.58900  Biso   1.000  H
  C555     1.0000 0.10756  0.42928  0.54650  Biso   1.000  C
  H299     1.0000 0.09950  0.40490  0.53500  Biso   1.000  H
  C556     1.0000 0.09315  0.46600  0.53022  Biso   1.000  C
  C557     1.0000 0.10536  0.50073  0.54660  Biso   1.000  C
  H300     1.0000 0.09640  0.52500  0.53530  Biso   1.000  H
  C558     1.0000 0.06358  0.46552  0.49694  Biso   1.000  C
  C559     1.0000 0.03350  0.43606  0.49603  Biso   1.000  C
  H301     1.0000 0.03330  0.41580  0.51560  Biso   1.000  H
  O87      1.0000 0.21821  0.03334  0.80043  Biso   1.000  O
  O88      1.0000 0.21802  0.96425  0.80010  Biso   1.000  O
  C560     1.0000 0.21057  0.99803  0.81368  Biso   1.000  C
  C561     1.0000 0.18294  0.99906  0.85146  Biso   1.000  C
  C562     1.0000 0.17160  0.03285  0.86763  Biso   1.000  C
  H302     1.0000 0.18040  0.05710  0.85620  Biso   1.000  H
  C563     1.0000 0.14560  0.03423  0.90290  Biso   1.000  C
  C564     1.0000 0.13203  0.99793  0.91866  Biso   1.000  C
  C565     1.0000 0.14519  0.96181  0.90237  Biso   1.000  C
  H303     1.0000 0.13740  0.93750  0.91430  Biso   1.000  H
  C566     1.0000 0.17033  0.96138  0.86786  Biso   1.000  C
  H304     1.0000 0.17840  0.93700  0.85620  Biso   1.000  H
  C567     1.0000 0.13307  0.07102  0.92123  Biso   1.000  C
  H305     1.0000 0.14240  0.09560  0.91100  Biso   1.000  H
  C568     1.0000 0.10756  0.07072  0.95350  Biso   1.000  C
  H306     1.0000 0.09950  0.09510  0.96500  Biso   1.000  H
  C569     1.0000 0.09315  0.03400  0.96978  Biso   1.000  C
  C570     1.0000 0.10536  0.99927  0.95340  Biso   1.000  C
  H307     1.0000 0.09640  0.97500  0.96470  Biso   1.000  H
  C571     1.0000 0.06358  0.03448  0.00306  Biso   1.000  C
  C572     1.0000 0.03350  0.06394  0.00397  Biso   1.000  C
  H308     1.0000 0.03330  0.08420  0.98440  Biso   1.000  H
  O89      1.0000 0.69957  0.28179  0.03334  Biso   1.000  O
  O90      1.0000 0.69990  0.28198  0.96425  Biso   1.000  O
  C573     1.0000 0.68632  0.28943  0.99803  Biso   1.000  C
  C574     1.0000 0.64854  0.31706  0.99906  Biso   1.000  C
  C575     1.0000 0.63237  0.32840  0.03285  Biso   1.000  C
  H309     1.0000 0.64380  0.31960  0.05710  Biso   1.000  H
  C576     1.0000 0.59710  0.35440  0.03423  Biso   1.000  C
  C577     1.0000 0.58134  0.36797  0.99793  Biso   1.000  C
  C578     1.0000 0.59763  0.35481  0.96181  Biso   1.000  C
  H310     1.0000 0.58570  0.36260  0.93750  Biso   1.000  H
  C579     1.0000 0.63214  0.32967  0.96138  Biso   1.000  C
  H311     1.0000 0.64380  0.32160  0.93700  Biso   1.000  H
  C580     1.0000 0.57877  0.36693  0.07102  Biso   1.000  C
  H312     1.0000 0.58900  0.35760  0.09560  Biso   1.000  H
  C581     1.0000 0.54650  0.39244  0.07072  Biso   1.000  C
  H313     1.0000 0.53500  0.40050  0.09510  Biso   1.000  H
  C582     1.0000 0.53022  0.40685  0.03400  Biso   1.000  C
  C583     1.0000 0.54660  0.39464  0.99927  Biso   1.000  C
  H314     1.0000 0.53530  0.40360  0.97500  Biso   1.000  H
  C584     1.0000 0.49694  0.43642  0.03448  Biso   1.000  C
  C585     1.0000 0.49603  0.46650  0.06394  Biso   1.000  C
  H315     1.0000 0.51560  0.46670  0.08420  Biso   1.000  H
  O91      1.0000 0.80043  0.28179  0.46666  Biso   1.000  O
  O92      1.0000 0.80010  0.28198  0.53575  Biso   1.000  O
  C586     1.0000 0.81368  0.28943  0.50197  Biso   1.000  C
  C587     1.0000 0.85146  0.31706  0.50094  Biso   1.000  C
  C588     1.0000 0.86763  0.32840  0.46715  Biso   1.000  C
  H316     1.0000 0.85620  0.31960  0.44290  Biso   1.000  H
  C589     1.0000 0.90290  0.35440  0.46577  Biso   1.000  C
  C590     1.0000 0.91866  0.36797  0.50207  Biso   1.000  C
  C591     1.0000 0.90237  0.35481  0.53819  Biso   1.000  C
  H317     1.0000 0.91430  0.36260  0.56250  Biso   1.000  H
  C592     1.0000 0.86786  0.32967  0.53862  Biso   1.000  C
  H318     1.0000 0.85620  0.32160  0.56300  Biso   1.000  H
  C593     1.0000 0.92123  0.36693  0.42898  Biso   1.000  C
  H319     1.0000 0.91100  0.35760  0.40440  Biso   1.000  H
  C594     1.0000 0.95350  0.39244  0.42928  Biso   1.000  C
  H320     1.0000 0.96500  0.40050  0.40490  Biso   1.000  H
  C595     1.0000 0.96978  0.40685  0.46600  Biso   1.000  C
  C596     1.0000 0.95340  0.39464  0.50073  Biso   1.000  C
  H321     1.0000 0.96470  0.40360  0.52500  Biso   1.000  H
  C597     1.0000 0.00306  0.43642  0.46552  Biso   1.000  C
  C598     1.0000 0.00397  0.46650  0.43606  Biso   1.000  C
  H322     1.0000 0.98440  0.46670  0.41580  Biso   1.000  H
  O93      1.0000 0.69957  0.21821  0.46666  Biso   1.000  O
  O94      1.0000 0.69990  0.21802  0.53575  Biso   1.000  O
  C599     1.0000 0.68632  0.21057  0.50197  Biso   1.000  C
  C600     1.0000 0.64854  0.18294  0.50094  Biso   1.000  C
  C601     1.0000 0.63237  0.17160  0.46715  Biso   1.000  C
  H323     1.0000 0.64380  0.18040  0.44290  Biso   1.000  H
  C602     1.0000 0.59710  0.14560  0.46577  Biso   1.000  C
  C603     1.0000 0.58134  0.13203  0.50207  Biso   1.000  C
  C604     1.0000 0.59763  0.14519  0.53819  Biso   1.000  C
  H324     1.0000 0.58570  0.13740  0.56250  Biso   1.000  H
  C605     1.0000 0.63214  0.17033  0.53862  Biso   1.000  C
  H325     1.0000 0.64380  0.17840  0.56300  Biso   1.000  H
  C606     1.0000 0.57877  0.13307  0.42898  Biso   1.000  C
  H326     1.0000 0.58900  0.14240  0.40440  Biso   1.000  H
  C607     1.0000 0.54650  0.10756  0.42928  Biso   1.000  C
  H327     1.0000 0.53500  0.09950  0.40490  Biso   1.000  H
  C608     1.0000 0.53022  0.09315  0.46600  Biso   1.000  C
  C609     1.0000 0.54660  0.10536  0.50073  Biso   1.000  C
  H328     1.0000 0.53530  0.09640  0.52500  Biso   1.000  H
  C610     1.0000 0.49694  0.06358  0.46552  Biso   1.000  C
  C611     1.0000 0.49603  0.03350  0.43606  Biso   1.000  C
  H329     1.0000 0.51560  0.03330  0.41580  Biso   1.000  H
  O95      1.0000 0.80043  0.21821  0.03334  Biso   1.000  O
  O96      1.0000 0.80010  0.21802  0.96425  Biso   1.000  O
  C612     1.0000 0.81368  0.21057  0.99803  Biso   1.000  C
  C613     1.0000 0.85146  0.18294  0.99906  Biso   1.000  C
  C614     1.0000 0.86763  0.17160  0.03285  Biso   1.000  C
  H330     1.0000 0.85620  0.18040  0.05710  Biso   1.000  H
  C615     1.0000 0.90290  0.14560  0.03423  Biso   1.000  C
  C616     1.0000 0.91866  0.13203  0.99793  Biso   1.000  C
  C617     1.0000 0.90237  0.14519  0.96181  Biso   1.000  C
  H331     1.0000 0.91430  0.13740  0.93750  Biso   1.000  H
  C618     1.0000 0.86786  0.17033  0.96138  Biso   1.000  C
  H332     1.0000 0.85620  0.17840  0.93700  Biso   1.000  H
  C619     1.0000 0.92123  0.13307  0.07102  Biso   1.000  C
  H333     1.0000 0.91100  0.14240  0.09560  Biso   1.000  H
  C620     1.0000 0.95350  0.10756  0.07072  Biso   1.000  C
  H334     1.0000 0.96500  0.09950  0.09510  Biso   1.000  H
  C621     1.0000 0.96978  0.09315  0.03400  Biso   1.000  C
  C622     1.0000 0.95340  0.10536  0.99927  Biso   1.000  C
  H335     1.0000 0.96470  0.09640  0.97500  Biso   1.000  H
  C623     1.0000 0.00306  0.06358  0.03448  Biso   1.000  C
  C624     1.0000 0.00397  0.03350  0.06394  Biso   1.000  C
  H336     1.0000 0.98440  0.03330  0.08420  Biso   1.000  H
  Cu13     1.0000 0.25000  0.96026  0.75000  Biso   1.000  Cu
  Cu14     1.0000 0.25000  0.53974  0.75000  Biso   1.000  Cu
  Cu15     1.0000 0.96026  0.75000  0.25000  Biso   1.000  Cu
  Cu16     1.0000 0.53974  0.75000  0.25000  Biso   1.000  Cu
  Cu17     1.0000 0.75000  0.25000  0.53974  Biso   1.000  Cu
  Cu18     1.0000 0.75000  0.25000  0.96026  Biso   1.000  Cu
  Cu19     1.0000 0.03974  0.75000  0.25000  Biso   1.000  Cu
  Cu20     1.0000 0.46026  0.75000  0.25000  Biso   1.000  Cu
  Cu21     1.0000 0.25000  0.03974  0.75000  Biso   1.000  Cu
  Cu22     1.0000 0.25000  0.46026  0.75000  Biso   1.000  Cu
  Cu23     1.0000 0.75000  0.25000  0.03974  Biso   1.000  Cu
  Cu24     1.0000 0.75000  0.25000  0.46026  Biso   1.000  Cu
