data_image0
_cell_length_a       32.8643
_cell_length_b       32.8643
_cell_length_c       32.8643
_cell_angle_alpha    90
_cell_angle_beta     90
_cell_angle_gamma    90

_symmetry_space_group_name_H-M    "P 1"
_symmetry_int_tables_number       1

loop_
  _symmetry_equiv_pos_as_xyz
  'x, y, z'

loop_
  _atom_site_label
  _atom_site_occupancy
  _atom_site_fract_x
  _atom_site_fract_y
  _atom_site_fract_z
  _atom_site_thermal_displace_type
  _atom_site_B_iso_or_equiv
  _atom_site_type_symbol
  O1       1.0000 0.21607  0.79849  0.02870  Biso   1.000  O
  O2       1.0000 0.21549  0.79970  0.96038  Biso   1.000  O
  C1       1.0000 0.20583  0.81293  0.99474  Biso   1.000  C
  C2       1.0000 0.17987  0.85059  0.99604  Biso   1.000  C
  C3       1.0000 0.16978  0.86765  0.03249  Biso   1.000  C
  H1       1.0000 0.17900  0.85530  0.05700  Biso   1.000  H
  C4       1.0000 0.14619  0.90287  0.03439  Biso   1.000  C
  C5       1.0000 0.13501  0.92109  0.07061  Biso   1.000  C
  H2       1.0000 0.14510  0.91050  0.09550  Biso   1.000  H
  C6       1.0000 0.10931  0.95451  0.07115  Biso   1.000  C
  H3       1.0000 0.10200  0.96640  0.09650  Biso   1.000  H
  C7       1.0000 0.09426  0.97080  0.03561  Biso   1.000  C
  C8       1.0000 0.10429  0.95316  0.99923  Biso   1.000  C
  H4       1.0000 0.09310  0.96400  0.97490  Biso   1.000  H
  C9       1.0000 0.13049  0.91963  0.99670  Biso   1.000  C
  C10      1.0000 0.14229  0.90115  0.96022  Biso   1.000  C
  H5       1.0000 0.13380  0.91300  0.93530  Biso   1.000  H
  C11      1.0000 0.16523  0.86720  0.95905  Biso   1.000  C
  H6       1.0000 0.17150  0.85460  0.93380  Biso   1.000  H
  C12      1.0000 0.06463  0.00506  0.03571  Biso   1.000  C
  C13      1.0000 0.06556  0.03488  0.00614  Biso   1.000  C
  H7       1.0000 0.08670  0.03500  0.98650  Biso   1.000  H
  O3       1.0000 0.28393  0.70151  0.02870  Biso   1.000  O
  O4       1.0000 0.28451  0.70030  0.96038  Biso   1.000  O
  C14      1.0000 0.29417  0.68707  0.99474  Biso   1.000  C
  C15      1.0000 0.32013  0.64941  0.99604  Biso   1.000  C
  C16      1.0000 0.33022  0.63235  0.03249  Biso   1.000  C
  H8       1.0000 0.32100  0.64470  0.05700  Biso   1.000  H
  C17      1.0000 0.35381  0.59713  0.03439  Biso   1.000  C
  C18      1.0000 0.36499  0.57891  0.07061  Biso   1.000  C
  H9       1.0000 0.35490  0.58950  0.09550  Biso   1.000  H
  C19      1.0000 0.39069  0.54549  0.07115  Biso   1.000  C
  H10      1.0000 0.39800  0.53360  0.09650  Biso   1.000  H
  C20      1.0000 0.40574  0.52920  0.03561  Biso   1.000  C
  C21      1.0000 0.39571  0.54684  0.99923  Biso   1.000  C
  H11      1.0000 0.40690  0.53600  0.97490  Biso   1.000  H
  C22      1.0000 0.36951  0.58037  0.99670  Biso   1.000  C
  C23      1.0000 0.35771  0.59885  0.96022  Biso   1.000  C
  H12      1.0000 0.36620  0.58700  0.93530  Biso   1.000  H
  C24      1.0000 0.33477  0.63280  0.95905  Biso   1.000  C
  H13      1.0000 0.32850  0.64540  0.93380  Biso   1.000  H
  C25      1.0000 0.43537  0.49494  0.03571  Biso   1.000  C
  C26      1.0000 0.43444  0.46512  0.00614  Biso   1.000  C
  H14      1.0000 0.41330  0.46500  0.98650  Biso   1.000  H
  O5       1.0000 0.28393  0.79849  0.47130  Biso   1.000  O
  O6       1.0000 0.28451  0.79970  0.53962  Biso   1.000  O
  C27      1.0000 0.29417  0.81293  0.50526  Biso   1.000  C
  C28      1.0000 0.32013  0.85059  0.50396  Biso   1.000  C
  C29      1.0000 0.33022  0.86765  0.46751  Biso   1.000  C
  H15      1.0000 0.32100  0.85530  0.44300  Biso   1.000  H
  C30      1.0000 0.35381  0.90287  0.46561  Biso   1.000  C
  C31      1.0000 0.36499  0.92109  0.42939  Biso   1.000  C
  H16      1.0000 0.35490  0.91050  0.40450  Biso   1.000  H
  C32      1.0000 0.39069  0.95451  0.42885  Biso   1.000  C
  H17      1.0000 0.39800  0.96640  0.40350  Biso   1.000  H
  C33      1.0000 0.40574  0.97080  0.46439  Biso   1.000  C
  C34      1.0000 0.39571  0.95316  0.50077  Biso   1.000  C
  H18      1.0000 0.40690  0.96400  0.52510  Biso   1.000  H
  C35      1.0000 0.36951  0.91963  0.50330  Biso   1.000  C
  C36      1.0000 0.35771  0.90115  0.53978  Biso   1.000  C
  H19      1.0000 0.36620  0.91300  0.56470  Biso   1.000  H
  C37      1.0000 0.33477  0.86720  0.54095  Biso   1.000  C
  H20      1.0000 0.32850  0.85460  0.56620  Biso   1.000  H
  C38      1.0000 0.43537  0.00506  0.46429  Biso   1.000  C
  C39      1.0000 0.43444  0.03488  0.49386  Biso   1.000  C
  H21      1.0000 0.41330  0.03500  0.51350  Biso   1.000  H
  O7       1.0000 0.21607  0.70151  0.47130  Biso   1.000  O
  O8       1.0000 0.21549  0.70030  0.53962  Biso   1.000  O
  C40      1.0000 0.20583  0.68707  0.50526  Biso   1.000  C
  C41      1.0000 0.17987  0.64941  0.50396  Biso   1.000  C
  C42      1.0000 0.16978  0.63235  0.46751  Biso   1.000  C
  H22      1.0000 0.17900  0.64470  0.44300  Biso   1.000  H
  C43      1.0000 0.14619  0.59713  0.46561  Biso   1.000  C
  C44      1.0000 0.13501  0.57891  0.42939  Biso   1.000  C
  H23      1.0000 0.14510  0.58950  0.40450  Biso   1.000  H
  C45      1.0000 0.10931  0.54549  0.42885  Biso   1.000  C
  H24      1.0000 0.10200  0.53360  0.40350  Biso   1.000  H
  C46      1.0000 0.09426  0.52920  0.46439  Biso   1.000  C
  C47      1.0000 0.10429  0.54684  0.50077  Biso   1.000  C
  H25      1.0000 0.09310  0.53600  0.52510  Biso   1.000  H
  C48      1.0000 0.13049  0.58037  0.50330  Biso   1.000  C
  C49      1.0000 0.14229  0.59885  0.53978  Biso   1.000  C
  H26      1.0000 0.13380  0.58700  0.56470  Biso   1.000  H
  C50      1.0000 0.16523  0.63280  0.54095  Biso   1.000  C
  H27      1.0000 0.17150  0.64540  0.56620  Biso   1.000  H
  C51      1.0000 0.06463  0.49494  0.46429  Biso   1.000  C
  C52      1.0000 0.06556  0.46512  0.49386  Biso   1.000  C
  H28      1.0000 0.08670  0.46500  0.51350  Biso   1.000  H
  O9       1.0000 0.02870  0.21607  0.79849  Biso   1.000  O
  O10      1.0000 0.96038  0.21549  0.79970  Biso   1.000  O
  C53      1.0000 0.99474  0.20583  0.81293  Biso   1.000  C
  C54      1.0000 0.99604  0.17987  0.85059  Biso   1.000  C
  C55      1.0000 0.03249  0.16978  0.86765  Biso   1.000  C
  H29      1.0000 0.05700  0.17900  0.85530  Biso   1.000  H
  C56      1.0000 0.03439  0.14619  0.90287  Biso   1.000  C
  C57      1.0000 0.07061  0.13501  0.92109  Biso   1.000  C
  H30      1.0000 0.09550  0.14510  0.91050  Biso   1.000  H
  C58      1.0000 0.07115  0.10931  0.95451  Biso   1.000  C
  H31      1.0000 0.09650  0.10200  0.96640  Biso   1.000  H
  C59      1.0000 0.03561  0.09426  0.97080  Biso   1.000  C
  C60      1.0000 0.99923  0.10429  0.95316  Biso   1.000  C
  H32      1.0000 0.97490  0.09310  0.96400  Biso   1.000  H
  C61      1.0000 0.99670  0.13049  0.91963  Biso   1.000  C
  C62      1.0000 0.96022  0.14229  0.90115  Biso   1.000  C
  H33      1.0000 0.93530  0.13380  0.91300  Biso   1.000  H
  C63      1.0000 0.95905  0.16523  0.86720  Biso   1.000  C
  H34      1.0000 0.93380  0.17150  0.85460  Biso   1.000  H
  C64      1.0000 0.03571  0.06463  0.00506  Biso   1.000  C
  C65      1.0000 0.00614  0.06556  0.03488  Biso   1.000  C
  H35      1.0000 0.98650  0.08670  0.03500  Biso   1.000  H
  O11      1.0000 0.02870  0.28393  0.70151  Biso   1.000  O
  O12      1.0000 0.96038  0.28451  0.70030  Biso   1.000  O
  C66      1.0000 0.99474  0.29417  0.68707  Biso   1.000  C
  C67      1.0000 0.99604  0.32013  0.64941  Biso   1.000  C
  C68      1.0000 0.03249  0.33022  0.63235  Biso   1.000  C
  H36      1.0000 0.05700  0.32100  0.64470  Biso   1.000  H
  C69      1.0000 0.03439  0.35381  0.59713  Biso   1.000  C
  C70      1.0000 0.07061  0.36499  0.57891  Biso   1.000  C
  H37      1.0000 0.09550  0.35490  0.58950  Biso   1.000  H
  C71      1.0000 0.07115  0.39069  0.54549  Biso   1.000  C
  H38      1.0000 0.09650  0.39800  0.53360  Biso   1.000  H
  C72      1.0000 0.03561  0.40574  0.52920  Biso   1.000  C
  C73      1.0000 0.99923  0.39571  0.54684  Biso   1.000  C
  H39      1.0000 0.97490  0.40690  0.53600  Biso   1.000  H
  C74      1.0000 0.99670  0.36951  0.58037  Biso   1.000  C
  C75      1.0000 0.96022  0.35771  0.59885  Biso   1.000  C
  H40      1.0000 0.93530  0.36620  0.58700  Biso   1.000  H
  C76      1.0000 0.95905  0.33477  0.63280  Biso   1.000  C
  H41      1.0000 0.93380  0.32850  0.64540  Biso   1.000  H
  C77      1.0000 0.03571  0.43537  0.49494  Biso   1.000  C
  C78      1.0000 0.00614  0.43444  0.46512  Biso   1.000  C
  H42      1.0000 0.98650  0.41330  0.46500  Biso   1.000  H
  O13      1.0000 0.47130  0.28393  0.79849  Biso   1.000  O
  O14      1.0000 0.53962  0.28451  0.79970  Biso   1.000  O
  C79      1.0000 0.50526  0.29417  0.81293  Biso   1.000  C
  C80      1.0000 0.50396  0.32013  0.85059  Biso   1.000  C
  C81      1.0000 0.46751  0.33022  0.86765  Biso   1.000  C
  H43      1.0000 0.44300  0.32100  0.85530  Biso   1.000  H
  C82      1.0000 0.46561  0.35381  0.90287  Biso   1.000  C
  C83      1.0000 0.42939  0.36499  0.92109  Biso   1.000  C
  H44      1.0000 0.40450  0.35490  0.91050  Biso   1.000  H
  C84      1.0000 0.42885  0.39069  0.95451  Biso   1.000  C
  H45      1.0000 0.40350  0.39800  0.96640  Biso   1.000  H
  C85      1.0000 0.46439  0.40574  0.97080  Biso   1.000  C
  C86      1.0000 0.50077  0.39571  0.95316  Biso   1.000  C
  H46      1.0000 0.52510  0.40690  0.96400  Biso   1.000  H
  C87      1.0000 0.50330  0.36951  0.91963  Biso   1.000  C
  C88      1.0000 0.53978  0.35771  0.90115  Biso   1.000  C
  H47      1.0000 0.56470  0.36620  0.91300  Biso   1.000  H
  C89      1.0000 0.54095  0.33477  0.86720  Biso   1.000  C
  H48      1.0000 0.56620  0.32850  0.85460  Biso   1.000  H
  C90      1.0000 0.46429  0.43537  0.00506  Biso   1.000  C
  C91      1.0000 0.49386  0.43444  0.03488  Biso   1.000  C
  H49      1.0000 0.51350  0.41330  0.03500  Biso   1.000  H
  O15      1.0000 0.47130  0.21607  0.70151  Biso   1.000  O
  O16      1.0000 0.53962  0.21549  0.70030  Biso   1.000  O
  C92      1.0000 0.50526  0.20583  0.68707  Biso   1.000  C
  C93      1.0000 0.50396  0.17987  0.64941  Biso   1.000  C
  C94      1.0000 0.46751  0.16978  0.63235  Biso   1.000  C
  H50      1.0000 0.44300  0.17900  0.64470  Biso   1.000  H
  C95      1.0000 0.46561  0.14619  0.59713  Biso   1.000  C
  C96      1.0000 0.42939  0.13501  0.57891  Biso   1.000  C
  H51      1.0000 0.40450  0.14510  0.58950  Biso   1.000  H
  C97      1.0000 0.42885  0.10931  0.54549  Biso   1.000  C
  H52      1.0000 0.40350  0.10200  0.53360  Biso   1.000  H
  C98      1.0000 0.46439  0.09426  0.52920  Biso   1.000  C
  C99      1.0000 0.50077  0.10429  0.54684  Biso   1.000  C
  H53      1.0000 0.52510  0.09310  0.53600  Biso   1.000  H
  C100     1.0000 0.50330  0.13049  0.58037  Biso   1.000  C
  C101     1.0000 0.53978  0.14229  0.59885  Biso   1.000  C
  H54      1.0000 0.56470  0.13380  0.58700  Biso   1.000  H
  C102     1.0000 0.54095  0.16523  0.63280  Biso   1.000  C
  H55      1.0000 0.56620  0.17150  0.64540  Biso   1.000  H
  C103     1.0000 0.46429  0.06463  0.49494  Biso   1.000  C
  C104     1.0000 0.49386  0.06556  0.46512  Biso   1.000  C
  H56      1.0000 0.51350  0.08670  0.46500  Biso   1.000  H
  O17      1.0000 0.79849  0.02870  0.21607  Biso   1.000  O
  O18      1.0000 0.79970  0.96038  0.21549  Biso   1.000  O
  C105     1.0000 0.81293  0.99474  0.20583  Biso   1.000  C
  C106     1.0000 0.85059  0.99604  0.17987  Biso   1.000  C
  C107     1.0000 0.86765  0.03249  0.16978  Biso   1.000  C
  H57      1.0000 0.85530  0.05700  0.17900  Biso   1.000  H
  C108     1.0000 0.90287  0.03439  0.14619  Biso   1.000  C
  C109     1.0000 0.92109  0.07061  0.13501  Biso   1.000  C
  H58      1.0000 0.91050  0.09550  0.14510  Biso   1.000  H
  C110     1.0000 0.95451  0.07115  0.10931  Biso   1.000  C
  H59      1.0000 0.96640  0.09650  0.10200  Biso   1.000  H
  C111     1.0000 0.97080  0.03561  0.09426  Biso   1.000  C
  C112     1.0000 0.95316  0.99923  0.10429  Biso   1.000  C
  H60      1.0000 0.96400  0.97490  0.09310  Biso   1.000  H
  C113     1.0000 0.91963  0.99670  0.13049  Biso   1.000  C
  C114     1.0000 0.90115  0.96022  0.14229  Biso   1.000  C
  H61      1.0000 0.91300  0.93530  0.13380  Biso   1.000  H
  C115     1.0000 0.86720  0.95905  0.16523  Biso   1.000  C
  H62      1.0000 0.85460  0.93380  0.17150  Biso   1.000  H
  C116     1.0000 0.00506  0.03571  0.06463  Biso   1.000  C
  C117     1.0000 0.03488  0.00614  0.06556  Biso   1.000  C
  H63      1.0000 0.03500  0.98650  0.08670  Biso   1.000  H
  O19      1.0000 0.70151  0.02870  0.28393  Biso   1.000  O
  O20      1.0000 0.70030  0.96038  0.28451  Biso   1.000  O
  C118     1.0000 0.68707  0.99474  0.29417  Biso   1.000  C
  C119     1.0000 0.64941  0.99604  0.32013  Biso   1.000  C
  C120     1.0000 0.63235  0.03249  0.33022  Biso   1.000  C
  H64      1.0000 0.64470  0.05700  0.32100  Biso   1.000  H
  C121     1.0000 0.59713  0.03439  0.35381  Biso   1.000  C
  C122     1.0000 0.57891  0.07061  0.36499  Biso   1.000  C
  H65      1.0000 0.58950  0.09550  0.35490  Biso   1.000  H
  C123     1.0000 0.54549  0.07115  0.39069  Biso   1.000  C
  H66      1.0000 0.53360  0.09650  0.39800  Biso   1.000  H
  C124     1.0000 0.52920  0.03561  0.40574  Biso   1.000  C
  C125     1.0000 0.54684  0.99923  0.39571  Biso   1.000  C
  H67      1.0000 0.53600  0.97490  0.40690  Biso   1.000  H
  C126     1.0000 0.58037  0.99670  0.36951  Biso   1.000  C
  C127     1.0000 0.59885  0.96022  0.35771  Biso   1.000  C
  H68      1.0000 0.58700  0.93530  0.36620  Biso   1.000  H
  C128     1.0000 0.63280  0.95905  0.33477  Biso   1.000  C
  H69      1.0000 0.64540  0.93380  0.32850  Biso   1.000  H
  C129     1.0000 0.49494  0.03571  0.43537  Biso   1.000  C
  C130     1.0000 0.46512  0.00614  0.43444  Biso   1.000  C
  H70      1.0000 0.46500  0.98650  0.41330  Biso   1.000  H
  O21      1.0000 0.79849  0.47130  0.28393  Biso   1.000  O
  O22      1.0000 0.79970  0.53962  0.28451  Biso   1.000  O
  C131     1.0000 0.81293  0.50526  0.29417  Biso   1.000  C
  C132     1.0000 0.85059  0.50396  0.32013  Biso   1.000  C
  C133     1.0000 0.86765  0.46751  0.33022  Biso   1.000  C
  H71      1.0000 0.85530  0.44300  0.32100  Biso   1.000  H
  C134     1.0000 0.90287  0.46561  0.35381  Biso   1.000  C
  C135     1.0000 0.92109  0.42939  0.36499  Biso   1.000  C
  H72      1.0000 0.91050  0.40450  0.35490  Biso   1.000  H
  C136     1.0000 0.95451  0.42885  0.39069  Biso   1.000  C
  H73      1.0000 0.96640  0.40350  0.39800  Biso   1.000  H
  C137     1.0000 0.97080  0.46439  0.40574  Biso   1.000  C
  C138     1.0000 0.95316  0.50077  0.39571  Biso   1.000  C
  H74      1.0000 0.96400  0.52510  0.40690  Biso   1.000  H
  C139     1.0000 0.91963  0.50330  0.36951  Biso   1.000  C
  C140     1.0000 0.90115  0.53978  0.35771  Biso   1.000  C
  H75      1.0000 0.91300  0.56470  0.36620  Biso   1.000  H
  C141     1.0000 0.86720  0.54095  0.33477  Biso   1.000  C
  H76      1.0000 0.85460  0.56620  0.32850  Biso   1.000  H
  C142     1.0000 0.00506  0.46429  0.43537  Biso   1.000  C
  C143     1.0000 0.03488  0.49386  0.43444  Biso   1.000  C
  H77      1.0000 0.03500  0.51350  0.41330  Biso   1.000  H
  O23      1.0000 0.70151  0.47130  0.21607  Biso   1.000  O
  O24      1.0000 0.70030  0.53962  0.21549  Biso   1.000  O
  C144     1.0000 0.68707  0.50526  0.20583  Biso   1.000  C
  C145     1.0000 0.64941  0.50396  0.17987  Biso   1.000  C
  C146     1.0000 0.63235  0.46751  0.16978  Biso   1.000  C
  H78      1.0000 0.64470  0.44300  0.17900  Biso   1.000  H
  C147     1.0000 0.59713  0.46561  0.14619  Biso   1.000  C
  C148     1.0000 0.57891  0.42939  0.13501  Biso   1.000  C
  H79      1.0000 0.58950  0.40450  0.14510  Biso   1.000  H
  C149     1.0000 0.54549  0.42885  0.10931  Biso   1.000  C
  H80      1.0000 0.53360  0.40350  0.10200  Biso   1.000  H
  C150     1.0000 0.52920  0.46439  0.09426  Biso   1.000  C
  C151     1.0000 0.54684  0.50077  0.10429  Biso   1.000  C
  H81      1.0000 0.53600  0.52510  0.09310  Biso   1.000  H
  C152     1.0000 0.58037  0.50330  0.13049  Biso   1.000  C
  C153     1.0000 0.59885  0.53978  0.14229  Biso   1.000  C
  H82      1.0000 0.58700  0.56470  0.13380  Biso   1.000  H
  C154     1.0000 0.63280  0.54095  0.16523  Biso   1.000  C
  H83      1.0000 0.64540  0.56620  0.17150  Biso   1.000  H
  C155     1.0000 0.49494  0.46429  0.06463  Biso   1.000  C
  C156     1.0000 0.46512  0.49386  0.06556  Biso   1.000  C
  H84      1.0000 0.46500  0.51350  0.08670  Biso   1.000  H
  O25      1.0000 0.20151  0.78393  0.52870  Biso   1.000  O
  O26      1.0000 0.20030  0.78451  0.46038  Biso   1.000  O
  C157     1.0000 0.18707  0.79417  0.49474  Biso   1.000  C
  C158     1.0000 0.14941  0.82013  0.49604  Biso   1.000  C
  C159     1.0000 0.13235  0.83022  0.53249  Biso   1.000  C
  H85      1.0000 0.14470  0.82100  0.55700  Biso   1.000  H
  C160     1.0000 0.09713  0.85381  0.53439  Biso   1.000  C
  C161     1.0000 0.07891  0.86499  0.57061  Biso   1.000  C
  H86      1.0000 0.08950  0.85490  0.59550  Biso   1.000  H
  C162     1.0000 0.04549  0.89069  0.57115  Biso   1.000  C
  H87      1.0000 0.03360  0.89800  0.59650  Biso   1.000  H
  C163     1.0000 0.02920  0.90574  0.53561  Biso   1.000  C
  C164     1.0000 0.04684  0.89571  0.49923  Biso   1.000  C
  H88      1.0000 0.03600  0.90690  0.47490  Biso   1.000  H
  C165     1.0000 0.08037  0.86951  0.49670  Biso   1.000  C
  C166     1.0000 0.09885  0.85771  0.46022  Biso   1.000  C
  H89      1.0000 0.08700  0.86620  0.43530  Biso   1.000  H
  C167     1.0000 0.13280  0.83477  0.45905  Biso   1.000  C
  H90      1.0000 0.14540  0.82850  0.43380  Biso   1.000  H
  C168     1.0000 0.99494  0.93537  0.53571  Biso   1.000  C
  C169     1.0000 0.96512  0.93444  0.50614  Biso   1.000  C
  H91      1.0000 0.96500  0.91330  0.48650  Biso   1.000  H
  O27      1.0000 0.29849  0.71607  0.52870  Biso   1.000  O
  O28      1.0000 0.29970  0.71549  0.46038  Biso   1.000  O
  C170     1.0000 0.31293  0.70583  0.49474  Biso   1.000  C
  C171     1.0000 0.35059  0.67987  0.49604  Biso   1.000  C
  C172     1.0000 0.36765  0.66978  0.53249  Biso   1.000  C
  H92      1.0000 0.35530  0.67900  0.55700  Biso   1.000  H
  C173     1.0000 0.40287  0.64619  0.53439  Biso   1.000  C
  C174     1.0000 0.42109  0.63501  0.57061  Biso   1.000  C
  H93      1.0000 0.41050  0.64510  0.59550  Biso   1.000  H
  C175     1.0000 0.45451  0.60931  0.57115  Biso   1.000  C
  H94      1.0000 0.46640  0.60200  0.59650  Biso   1.000  H
  C176     1.0000 0.47080  0.59426  0.53561  Biso   1.000  C
  C177     1.0000 0.45316  0.60429  0.49923  Biso   1.000  C
  H95      1.0000 0.46400  0.59310  0.47490  Biso   1.000  H
  C178     1.0000 0.41963  0.63049  0.49670  Biso   1.000  C
  C179     1.0000 0.40115  0.64229  0.46022  Biso   1.000  C
  H96      1.0000 0.41300  0.63380  0.43530  Biso   1.000  H
  C180     1.0000 0.36720  0.66523  0.45905  Biso   1.000  C
  H97      1.0000 0.35460  0.67150  0.43380  Biso   1.000  H
  C181     1.0000 0.50506  0.56463  0.53571  Biso   1.000  C
  C182     1.0000 0.53488  0.56556  0.50614  Biso   1.000  C
  H98      1.0000 0.53500  0.58670  0.48650  Biso   1.000  H
  O29      1.0000 0.20151  0.71607  0.97130  Biso   1.000  O
  O30      1.0000 0.20030  0.71549  0.03962  Biso   1.000  O
  C183     1.0000 0.18707  0.70583  0.00526  Biso   1.000  C
  C184     1.0000 0.14941  0.67987  0.00396  Biso   1.000  C
  C185     1.0000 0.13235  0.66978  0.96751  Biso   1.000  C
  H99      1.0000 0.14470  0.67900  0.94300  Biso   1.000  H
  C186     1.0000 0.09713  0.64619  0.96561  Biso   1.000  C
  C187     1.0000 0.07891  0.63501  0.92939  Biso   1.000  C
  H100     1.0000 0.08950  0.64510  0.90450  Biso   1.000  H
  C188     1.0000 0.04549  0.60931  0.92885  Biso   1.000  C
  H101     1.0000 0.03360  0.60200  0.90350  Biso   1.000  H
  C189     1.0000 0.02920  0.59426  0.96439  Biso   1.000  C
  C190     1.0000 0.04684  0.60429  0.00077  Biso   1.000  C
  H102     1.0000 0.03600  0.59310  0.02510  Biso   1.000  H
  C191     1.0000 0.08037  0.63049  0.00330  Biso   1.000  C
  C192     1.0000 0.09885  0.64229  0.03978  Biso   1.000  C
  H103     1.0000 0.08700  0.63380  0.06470  Biso   1.000  H
  C193     1.0000 0.13280  0.66523  0.04095  Biso   1.000  C
  H104     1.0000 0.14540  0.67150  0.06620  Biso   1.000  H
  C194     1.0000 0.99494  0.56463  0.96429  Biso   1.000  C
  C195     1.0000 0.96512  0.56556  0.99386  Biso   1.000  C
  H105     1.0000 0.96500  0.58670  0.01350  Biso   1.000  H
  O31      1.0000 0.29849  0.78393  0.97130  Biso   1.000  O
  O32      1.0000 0.29970  0.78451  0.03962  Biso   1.000  O
  C196     1.0000 0.31293  0.79417  0.00526  Biso   1.000  C
  C197     1.0000 0.35059  0.82013  0.00396  Biso   1.000  C
  C198     1.0000 0.36765  0.83022  0.96751  Biso   1.000  C
  H106     1.0000 0.35530  0.82100  0.94300  Biso   1.000  H
  C199     1.0000 0.40287  0.85381  0.96561  Biso   1.000  C
  C200     1.0000 0.42109  0.86499  0.92939  Biso   1.000  C
  H107     1.0000 0.41050  0.85490  0.90450  Biso   1.000  H
  C201     1.0000 0.45451  0.89069  0.92885  Biso   1.000  C
  H108     1.0000 0.46640  0.89800  0.90350  Biso   1.000  H
  C202     1.0000 0.47080  0.90574  0.96439  Biso   1.000  C
  C203     1.0000 0.45316  0.89571  0.00077  Biso   1.000  C
  H109     1.0000 0.46400  0.90690  0.02510  Biso   1.000  H
  C204     1.0000 0.41963  0.86951  0.00330  Biso   1.000  C
  C205     1.0000 0.40115  0.85771  0.03978  Biso   1.000  C
  H110     1.0000 0.41300  0.86620  0.06470  Biso   1.000  H
  C206     1.0000 0.36720  0.83477  0.04095  Biso   1.000  C
  H111     1.0000 0.35460  0.82850  0.06620  Biso   1.000  H
  C207     1.0000 0.50506  0.93537  0.96429  Biso   1.000  C
  C208     1.0000 0.53488  0.93444  0.99386  Biso   1.000  C
  H112     1.0000 0.53500  0.91330  0.01350  Biso   1.000  H
  O33      1.0000 0.78393  0.97130  0.29849  Biso   1.000  O
  O34      1.0000 0.78451  0.03962  0.29970  Biso   1.000  O
  C209     1.0000 0.79417  0.00526  0.31293  Biso   1.000  C
  C210     1.0000 0.82013  0.00396  0.35059  Biso   1.000  C
  C211     1.0000 0.83022  0.96751  0.36765  Biso   1.000  C
  H113     1.0000 0.82100  0.94300  0.35530  Biso   1.000  H
  C212     1.0000 0.85381  0.96561  0.40287  Biso   1.000  C
  C213     1.0000 0.86499  0.92939  0.42109  Biso   1.000  C
  H114     1.0000 0.85490  0.90450  0.41050  Biso   1.000  H
  C214     1.0000 0.89069  0.92885  0.45451  Biso   1.000  C
  H115     1.0000 0.89800  0.90350  0.46640  Biso   1.000  H
  C215     1.0000 0.90574  0.96439  0.47080  Biso   1.000  C
  C216     1.0000 0.89571  0.00077  0.45316  Biso   1.000  C
  H116     1.0000 0.90690  0.02510  0.46400  Biso   1.000  H
  C217     1.0000 0.86951  0.00330  0.41963  Biso   1.000  C
  C218     1.0000 0.85771  0.03978  0.40115  Biso   1.000  C
  H117     1.0000 0.86620  0.06470  0.41300  Biso   1.000  H
  C219     1.0000 0.83477  0.04095  0.36720  Biso   1.000  C
  H118     1.0000 0.82850  0.06620  0.35460  Biso   1.000  H
  C220     1.0000 0.93537  0.96429  0.50506  Biso   1.000  C
  C221     1.0000 0.93444  0.99386  0.53488  Biso   1.000  C
  H119     1.0000 0.91330  0.01350  0.53500  Biso   1.000  H
  O35      1.0000 0.71607  0.97130  0.20151  Biso   1.000  O
  O36      1.0000 0.71549  0.03962  0.20030  Biso   1.000  O
  C222     1.0000 0.70583  0.00526  0.18707  Biso   1.000  C
  C223     1.0000 0.67987  0.00396  0.14941  Biso   1.000  C
  C224     1.0000 0.66978  0.96751  0.13235  Biso   1.000  C
  H120     1.0000 0.67900  0.94300  0.14470  Biso   1.000  H
  C225     1.0000 0.64619  0.96561  0.09713  Biso   1.000  C
  C226     1.0000 0.63501  0.92939  0.07891  Biso   1.000  C
  H121     1.0000 0.64510  0.90450  0.08950  Biso   1.000  H
  C227     1.0000 0.60931  0.92885  0.04549  Biso   1.000  C
  H122     1.0000 0.60200  0.90350  0.03360  Biso   1.000  H
  C228     1.0000 0.59426  0.96439  0.02920  Biso   1.000  C
  C229     1.0000 0.60429  0.00077  0.04684  Biso   1.000  C
  H123     1.0000 0.59310  0.02510  0.03600  Biso   1.000  H
  C230     1.0000 0.63049  0.00330  0.08037  Biso   1.000  C
  C231     1.0000 0.64229  0.03978  0.09885  Biso   1.000  C
  H124     1.0000 0.63380  0.06470  0.08700  Biso   1.000  H
  C232     1.0000 0.66523  0.04095  0.13280  Biso   1.000  C
  H125     1.0000 0.67150  0.06620  0.14540  Biso   1.000  H
  C233     1.0000 0.56463  0.96429  0.99494  Biso   1.000  C
  C234     1.0000 0.56556  0.99386  0.96512  Biso   1.000  C
  H126     1.0000 0.58670  0.01350  0.96500  Biso   1.000  H
  O37      1.0000 0.71607  0.52870  0.29849  Biso   1.000  O
  O38      1.0000 0.71549  0.46038  0.29970  Biso   1.000  O
  C235     1.0000 0.70583  0.49474  0.31293  Biso   1.000  C
  C236     1.0000 0.67987  0.49604  0.35059  Biso   1.000  C
  C237     1.0000 0.66978  0.53249  0.36765  Biso   1.000  C
  H127     1.0000 0.67900  0.55700  0.35530  Biso   1.000  H
  C238     1.0000 0.64619  0.53439  0.40287  Biso   1.000  C
  C239     1.0000 0.63501  0.57061  0.42109  Biso   1.000  C
  H128     1.0000 0.64510  0.59550  0.41050  Biso   1.000  H
  C240     1.0000 0.60931  0.57115  0.45451  Biso   1.000  C
  H129     1.0000 0.60200  0.59650  0.46640  Biso   1.000  H
  C241     1.0000 0.59426  0.53561  0.47080  Biso   1.000  C
  C242     1.0000 0.60429  0.49923  0.45316  Biso   1.000  C
  H130     1.0000 0.59310  0.47490  0.46400  Biso   1.000  H
  C243     1.0000 0.63049  0.49670  0.41963  Biso   1.000  C
  C244     1.0000 0.64229  0.46022  0.40115  Biso   1.000  C
  H131     1.0000 0.63380  0.43530  0.41300  Biso   1.000  H
  C245     1.0000 0.66523  0.45905  0.36720  Biso   1.000  C
  H132     1.0000 0.67150  0.43380  0.35460  Biso   1.000  H
  C246     1.0000 0.56463  0.53571  0.50506  Biso   1.000  C
  C247     1.0000 0.56556  0.50614  0.53488  Biso   1.000  C
  H133     1.0000 0.58670  0.48650  0.53500  Biso   1.000  H
  O39      1.0000 0.78393  0.52870  0.20151  Biso   1.000  O
  O40      1.0000 0.78451  0.46038  0.20030  Biso   1.000  O
  C248     1.0000 0.79417  0.49474  0.18707  Biso   1.000  C
  C249     1.0000 0.82013  0.49604  0.14941  Biso   1.000  C
  C250     1.0000 0.83022  0.53249  0.13235  Biso   1.000  C
  H134     1.0000 0.82100  0.55700  0.14470  Biso   1.000  H
  C251     1.0000 0.85381  0.53439  0.09713  Biso   1.000  C
  C252     1.0000 0.86499  0.57061  0.07891  Biso   1.000  C
  H135     1.0000 0.85490  0.59550  0.08950  Biso   1.000  H
  C253     1.0000 0.89069  0.57115  0.04549  Biso   1.000  C
  H136     1.0000 0.89800  0.59650  0.03360  Biso   1.000  H
  C254     1.0000 0.90574  0.53561  0.02920  Biso   1.000  C
  C255     1.0000 0.89571  0.49923  0.04684  Biso   1.000  C
  H137     1.0000 0.90690  0.47490  0.03600  Biso   1.000  H
  C256     1.0000 0.86951  0.49670  0.08037  Biso   1.000  C
  C257     1.0000 0.85771  0.46022  0.09885  Biso   1.000  C
  H138     1.0000 0.86620  0.43530  0.08700  Biso   1.000  H
  C258     1.0000 0.83477  0.45905  0.13280  Biso   1.000  C
  H139     1.0000 0.82850  0.43380  0.14540  Biso   1.000  H
  C259     1.0000 0.93537  0.53571  0.99494  Biso   1.000  C
  C260     1.0000 0.93444  0.50614  0.96512  Biso   1.000  C
  H140     1.0000 0.91330  0.48650  0.96500  Biso   1.000  H
  O41      1.0000 0.97130  0.20151  0.71607  Biso   1.000  O
  O42      1.0000 0.03962  0.20030  0.71549  Biso   1.000  O
  C261     1.0000 0.00526  0.18707  0.70583  Biso   1.000  C
  C262     1.0000 0.00396  0.14941  0.67987  Biso   1.000  C
  C263     1.0000 0.96751  0.13235  0.66978  Biso   1.000  C
  H141     1.0000 0.94300  0.14470  0.67900  Biso   1.000  H
  C264     1.0000 0.96561  0.09713  0.64619  Biso   1.000  C
  C265     1.0000 0.92939  0.07891  0.63501  Biso   1.000  C
  H142     1.0000 0.90450  0.08950  0.64510  Biso   1.000  H
  C266     1.0000 0.92885  0.04549  0.60931  Biso   1.000  C
  H143     1.0000 0.90350  0.03360  0.60200  Biso   1.000  H
  C267     1.0000 0.96439  0.02920  0.59426  Biso   1.000  C
  C268     1.0000 0.00077  0.04684  0.60429  Biso   1.000  C
  H144     1.0000 0.02510  0.03600  0.59310  Biso   1.000  H
  C269     1.0000 0.00330  0.08037  0.63049  Biso   1.000  C
  C270     1.0000 0.03978  0.09885  0.64229  Biso   1.000  C
  H145     1.0000 0.06470  0.08700  0.63380  Biso   1.000  H
  C271     1.0000 0.04095  0.13280  0.66523  Biso   1.000  C
  H146     1.0000 0.06620  0.14540  0.67150  Biso   1.000  H
  C272     1.0000 0.96429  0.99494  0.56463  Biso   1.000  C
  C273     1.0000 0.99386  0.96512  0.56556  Biso   1.000  C
  H147     1.0000 0.01350  0.96500  0.58670  Biso   1.000  H
  O43      1.0000 0.97130  0.29849  0.78393  Biso   1.000  O
  O44      1.0000 0.03962  0.29970  0.78451  Biso   1.000  O
  C274     1.0000 0.00526  0.31293  0.79417  Biso   1.000  C
  C275     1.0000 0.00396  0.35059  0.82013  Biso   1.000  C
  C276     1.0000 0.96751  0.36765  0.83022  Biso   1.000  C
  H148     1.0000 0.94300  0.35530  0.82100  Biso   1.000  H
  C277     1.0000 0.96561  0.40287  0.85381  Biso   1.000  C
  C278     1.0000 0.92939  0.42109  0.86499  Biso   1.000  C
  H149     1.0000 0.90450  0.41050  0.85490  Biso   1.000  H
  C279     1.0000 0.92885  0.45451  0.89069  Biso   1.000  C
  H150     1.0000 0.90350  0.46640  0.89800  Biso   1.000  H
  C280     1.0000 0.96439  0.47080  0.90574  Biso   1.000  C
  C281     1.0000 0.00077  0.45316  0.89571  Biso   1.000  C
  H151     1.0000 0.02510  0.46400  0.90690  Biso   1.000  H
  C282     1.0000 0.00330  0.41963  0.86951  Biso   1.000  C
  C283     1.0000 0.03978  0.40115  0.85771  Biso   1.000  C
  H152     1.0000 0.06470  0.41300  0.86620  Biso   1.000  H
  C284     1.0000 0.04095  0.36720  0.83477  Biso   1.000  C
  H153     1.0000 0.06620  0.35460  0.82850  Biso   1.000  H
  C285     1.0000 0.96429  0.50506  0.93537  Biso   1.000  C
  C286     1.0000 0.99386  0.53488  0.93444  Biso   1.000  C
  H154     1.0000 0.01350  0.53500  0.91330  Biso   1.000  H
  O45      1.0000 0.52870  0.20151  0.78393  Biso   1.000  O
  O46      1.0000 0.46038  0.20030  0.78451  Biso   1.000  O
  C287     1.0000 0.49474  0.18707  0.79417  Biso   1.000  C
  C288     1.0000 0.49604  0.14941  0.82013  Biso   1.000  C
  C289     1.0000 0.53249  0.13235  0.83022  Biso   1.000  C
  H155     1.0000 0.55700  0.14470  0.82100  Biso   1.000  H
  C290     1.0000 0.53439  0.09713  0.85381  Biso   1.000  C
  C291     1.0000 0.57061  0.07891  0.86499  Biso   1.000  C
  H156     1.0000 0.59550  0.08950  0.85490  Biso   1.000  H
  C292     1.0000 0.57115  0.04549  0.89069  Biso   1.000  C
  H157     1.0000 0.59650  0.03360  0.89800  Biso   1.000  H
  C293     1.0000 0.53561  0.02920  0.90574  Biso   1.000  C
  C294     1.0000 0.49923  0.04684  0.89571  Biso   1.000  C
  H158     1.0000 0.47490  0.03600  0.90690  Biso   1.000  H
  C295     1.0000 0.49670  0.08037  0.86951  Biso   1.000  C
  C296     1.0000 0.46022  0.09885  0.85771  Biso   1.000  C
  H159     1.0000 0.43530  0.08700  0.86620  Biso   1.000  H
  C297     1.0000 0.45905  0.13280  0.83477  Biso   1.000  C
  H160     1.0000 0.43380  0.14540  0.82850  Biso   1.000  H
  C298     1.0000 0.53571  0.99494  0.93537  Biso   1.000  C
  C299     1.0000 0.50614  0.96512  0.93444  Biso   1.000  C
  H161     1.0000 0.48650  0.96500  0.91330  Biso   1.000  H
  O47      1.0000 0.52870  0.29849  0.71607  Biso   1.000  O
  O48      1.0000 0.46038  0.29970  0.71549  Biso   1.000  O
  C300     1.0000 0.49474  0.31293  0.70583  Biso   1.000  C
  C301     1.0000 0.49604  0.35059  0.67987  Biso   1.000  C
  C302     1.0000 0.53249  0.36765  0.66978  Biso   1.000  C
  H162     1.0000 0.55700  0.35530  0.67900  Biso   1.000  H
  C303     1.0000 0.53439  0.40287  0.64619  Biso   1.000  C
  C304     1.0000 0.57061  0.42109  0.63501  Biso   1.000  C
  H163     1.0000 0.59550  0.41050  0.64510  Biso   1.000  H
  C305     1.0000 0.57115  0.45451  0.60931  Biso   1.000  C
  H164     1.0000 0.59650  0.46640  0.60200  Biso   1.000  H
  C306     1.0000 0.53561  0.47080  0.59426  Biso   1.000  C
  C307     1.0000 0.49923  0.45316  0.60429  Biso   1.000  C
  H165     1.0000 0.47490  0.46400  0.59310  Biso   1.000  H
  C308     1.0000 0.49670  0.41963  0.63049  Biso   1.000  C
  C309     1.0000 0.46022  0.40115  0.64229  Biso   1.000  C
  H166     1.0000 0.43530  0.41300  0.63380  Biso   1.000  H
  C310     1.0000 0.45905  0.36720  0.66523  Biso   1.000  C
  H167     1.0000 0.43380  0.35460  0.67150  Biso   1.000  H
  C311     1.0000 0.53571  0.50506  0.56463  Biso   1.000  C
  C312     1.0000 0.50614  0.53488  0.56556  Biso   1.000  C
  H168     1.0000 0.48650  0.53500  0.58670  Biso   1.000  H
  Zn1      1.0000 0.25000  0.75000  0.04588  Biso   1.000  Zn
  Zn2      1.0000 0.25000  0.75000  0.45412  Biso   1.000  Zn
  Zn3      1.0000 0.04588  0.25000  0.75000  Biso   1.000  Zn
  Zn4      1.0000 0.45412  0.25000  0.75000  Biso   1.000  Zn
  Zn5      1.0000 0.75000  0.04588  0.25000  Biso   1.000  Zn
  Zn6      1.0000 0.75000  0.45412  0.25000  Biso   1.000  Zn
  Zn7      1.0000 0.25000  0.75000  0.54588  Biso   1.000  Zn
  Zn8      1.0000 0.25000  0.75000  0.95412  Biso   1.000  Zn
  Zn9      1.0000 0.75000  0.95412  0.25000  Biso   1.000  Zn
  Zn10     1.0000 0.75000  0.54588  0.25000  Biso   1.000  Zn
  Zn11     1.0000 0.95412  0.25000  0.75000  Biso   1.000  Zn
  Zn12     1.0000 0.54588  0.25000  0.75000  Biso   1.000  Zn
  O49      1.0000 0.79849  0.21607  0.47130  Biso   1.000  O
  O50      1.0000 0.79970  0.21549  0.53962  Biso   1.000  O
  C313     1.0000 0.81293  0.20583  0.50526  Biso   1.000  C
  C314     1.0000 0.85059  0.17987  0.50396  Biso   1.000  C
  C315     1.0000 0.86765  0.16978  0.46751  Biso   1.000  C
  H169     1.0000 0.85530  0.17900  0.44300  Biso   1.000  H
  C316     1.0000 0.90287  0.14619  0.46561  Biso   1.000  C
  C317     1.0000 0.92109  0.13501  0.42939  Biso   1.000  C
  H170     1.0000 0.91050  0.14510  0.40450  Biso   1.000  H
  C318     1.0000 0.95451  0.10931  0.42885  Biso   1.000  C
  H171     1.0000 0.96640  0.10200  0.40350  Biso   1.000  H
  C319     1.0000 0.97080  0.09426  0.46439  Biso   1.000  C
  C320     1.0000 0.95316  0.10429  0.50077  Biso   1.000  C
  H172     1.0000 0.96400  0.09310  0.52510  Biso   1.000  H
  C321     1.0000 0.91963  0.13049  0.50330  Biso   1.000  C
  C322     1.0000 0.90115  0.14229  0.53978  Biso   1.000  C
  H173     1.0000 0.91300  0.13380  0.56470  Biso   1.000  H
  C323     1.0000 0.86720  0.16523  0.54095  Biso   1.000  C
  H174     1.0000 0.85460  0.17150  0.56620  Biso   1.000  H
  C324     1.0000 0.00506  0.06463  0.46429  Biso   1.000  C
  C325     1.0000 0.03488  0.06556  0.49386  Biso   1.000  C
  H175     1.0000 0.03500  0.08670  0.51350  Biso   1.000  H
  O51      1.0000 0.70151  0.28393  0.47130  Biso   1.000  O
  O52      1.0000 0.70030  0.28451  0.53962  Biso   1.000  O
  C326     1.0000 0.68707  0.29417  0.50526  Biso   1.000  C
  C327     1.0000 0.64941  0.32013  0.50396  Biso   1.000  C
  C328     1.0000 0.63235  0.33022  0.46751  Biso   1.000  C
  H176     1.0000 0.64470  0.32100  0.44300  Biso   1.000  H
  C329     1.0000 0.59713  0.35381  0.46561  Biso   1.000  C
  C330     1.0000 0.57891  0.36499  0.42939  Biso   1.000  C
  H177     1.0000 0.58950  0.35490  0.40450  Biso   1.000  H
  C331     1.0000 0.54549  0.39069  0.42885  Biso   1.000  C
  H178     1.0000 0.53360  0.39800  0.40350  Biso   1.000  H
  C332     1.0000 0.52920  0.40574  0.46439  Biso   1.000  C
  C333     1.0000 0.54684  0.39571  0.50077  Biso   1.000  C
  H179     1.0000 0.53600  0.40690  0.52510  Biso   1.000  H
  C334     1.0000 0.58037  0.36951  0.50330  Biso   1.000  C
  C335     1.0000 0.59885  0.35771  0.53978  Biso   1.000  C
  H180     1.0000 0.58700  0.36620  0.56470  Biso   1.000  H
  C336     1.0000 0.63280  0.33477  0.54095  Biso   1.000  C
  H181     1.0000 0.64540  0.32850  0.56620  Biso   1.000  H
  C337     1.0000 0.49494  0.43537  0.46429  Biso   1.000  C
  C338     1.0000 0.46512  0.43444  0.49386  Biso   1.000  C
  H182     1.0000 0.46500  0.41330  0.51350  Biso   1.000  H
  O53      1.0000 0.79849  0.28393  0.02870  Biso   1.000  O
  O54      1.0000 0.79970  0.28451  0.96038  Biso   1.000  O
  C339     1.0000 0.81293  0.29417  0.99474  Biso   1.000  C
  C340     1.0000 0.85059  0.32013  0.99604  Biso   1.000  C
  C341     1.0000 0.86765  0.33022  0.03249  Biso   1.000  C
  H183     1.0000 0.85530  0.32100  0.05700  Biso   1.000  H
  C342     1.0000 0.90287  0.35381  0.03439  Biso   1.000  C
  C343     1.0000 0.92109  0.36499  0.07061  Biso   1.000  C
  H184     1.0000 0.91050  0.35490  0.09550  Biso   1.000  H
  C344     1.0000 0.95451  0.39069  0.07115  Biso   1.000  C
  H185     1.0000 0.96640  0.39800  0.09650  Biso   1.000  H
  C345     1.0000 0.97080  0.40574  0.03561  Biso   1.000  C
  C346     1.0000 0.95316  0.39571  0.99923  Biso   1.000  C
  H186     1.0000 0.96400  0.40690  0.97490  Biso   1.000  H
  C347     1.0000 0.91963  0.36951  0.99670  Biso   1.000  C
  C348     1.0000 0.90115  0.35771  0.96022  Biso   1.000  C
  H187     1.0000 0.91300  0.36620  0.93530  Biso   1.000  H
  C349     1.0000 0.86720  0.33477  0.95905  Biso   1.000  C
  H188     1.0000 0.85460  0.32850  0.93380  Biso   1.000  H
  C350     1.0000 0.00506  0.43537  0.03571  Biso   1.000  C
  C351     1.0000 0.03488  0.43444  0.00614  Biso   1.000  C
  H189     1.0000 0.03500  0.41330  0.98650  Biso   1.000  H
  O55      1.0000 0.70151  0.21607  0.02870  Biso   1.000  O
  O56      1.0000 0.70030  0.21549  0.96038  Biso   1.000  O
  C352     1.0000 0.68707  0.20583  0.99474  Biso   1.000  C
  C353     1.0000 0.64941  0.17987  0.99604  Biso   1.000  C
  C354     1.0000 0.63235  0.16978  0.03249  Biso   1.000  C
  H190     1.0000 0.64470  0.17900  0.05700  Biso   1.000  H
  C355     1.0000 0.59713  0.14619  0.03439  Biso   1.000  C
  C356     1.0000 0.57891  0.13501  0.07061  Biso   1.000  C
  H191     1.0000 0.58950  0.14510  0.09550  Biso   1.000  H
  C357     1.0000 0.54549  0.10931  0.07115  Biso   1.000  C
  H192     1.0000 0.53360  0.10200  0.09650  Biso   1.000  H
  C358     1.0000 0.52920  0.09426  0.03561  Biso   1.000  C
  C359     1.0000 0.54684  0.10429  0.99923  Biso   1.000  C
  H193     1.0000 0.53600  0.09310  0.97490  Biso   1.000  H
  C360     1.0000 0.58037  0.13049  0.99670  Biso   1.000  C
  C361     1.0000 0.59885  0.14229  0.96022  Biso   1.000  C
  H194     1.0000 0.58700  0.13380  0.93530  Biso   1.000  H
  C362     1.0000 0.63280  0.16523  0.95905  Biso   1.000  C
  H195     1.0000 0.64540  0.17150  0.93380  Biso   1.000  H
  C363     1.0000 0.49494  0.06463  0.03571  Biso   1.000  C
  C364     1.0000 0.46512  0.06556  0.00614  Biso   1.000  C
  H196     1.0000 0.46500  0.08670  0.98650  Biso   1.000  H
  O57      1.0000 0.21607  0.02870  0.70151  Biso   1.000  O
  O58      1.0000 0.21549  0.96038  0.70030  Biso   1.000  O
  C365     1.0000 0.20583  0.99474  0.68707  Biso   1.000  C
  C366     1.0000 0.17987  0.99604  0.64941  Biso   1.000  C
  C367     1.0000 0.16978  0.03249  0.63235  Biso   1.000  C
  H197     1.0000 0.17900  0.05700  0.64470  Biso   1.000  H
  C368     1.0000 0.14619  0.03439  0.59713  Biso   1.000  C
  C369     1.0000 0.13501  0.07061  0.57891  Biso   1.000  C
  H198     1.0000 0.14510  0.09550  0.58950  Biso   1.000  H
  C370     1.0000 0.10931  0.07115  0.54549  Biso   1.000  C
  H199     1.0000 0.10200  0.09650  0.53360  Biso   1.000  H
  C371     1.0000 0.09426  0.03561  0.52920  Biso   1.000  C
  C372     1.0000 0.10429  0.99923  0.54684  Biso   1.000  C
  H200     1.0000 0.09310  0.97490  0.53600  Biso   1.000  H
  C373     1.0000 0.13049  0.99670  0.58037  Biso   1.000  C
  C374     1.0000 0.14229  0.96022  0.59885  Biso   1.000  C
  H201     1.0000 0.13380  0.93530  0.58700  Biso   1.000  H
  C375     1.0000 0.16523  0.95905  0.63280  Biso   1.000  C
  H202     1.0000 0.17150  0.93380  0.64540  Biso   1.000  H
  C376     1.0000 0.06463  0.03571  0.49494  Biso   1.000  C
  C377     1.0000 0.06556  0.00614  0.46512  Biso   1.000  C
  H203     1.0000 0.08670  0.98650  0.46500  Biso   1.000  H
  O59      1.0000 0.28393  0.02870  0.79849  Biso   1.000  O
  O60      1.0000 0.28451  0.96038  0.79970  Biso   1.000  O
  C378     1.0000 0.29417  0.99474  0.81293  Biso   1.000  C
  C379     1.0000 0.32013  0.99604  0.85059  Biso   1.000  C
  C380     1.0000 0.33022  0.03249  0.86765  Biso   1.000  C
  H204     1.0000 0.32100  0.05700  0.85530  Biso   1.000  H
  C381     1.0000 0.35381  0.03439  0.90287  Biso   1.000  C
  C382     1.0000 0.36499  0.07061  0.92109  Biso   1.000  C
  H205     1.0000 0.35490  0.09550  0.91050  Biso   1.000  H
  C383     1.0000 0.39069  0.07115  0.95451  Biso   1.000  C
  H206     1.0000 0.39800  0.09650  0.96640  Biso   1.000  H
  C384     1.0000 0.40574  0.03561  0.97080  Biso   1.000  C
  C385     1.0000 0.39571  0.99923  0.95316  Biso   1.000  C
  H207     1.0000 0.40690  0.97490  0.96400  Biso   1.000  H
  C386     1.0000 0.36951  0.99670  0.91963  Biso   1.000  C
  C387     1.0000 0.35771  0.96022  0.90115  Biso   1.000  C
  H208     1.0000 0.36620  0.93530  0.91300  Biso   1.000  H
  C388     1.0000 0.33477  0.95905  0.86720  Biso   1.000  C
  H209     1.0000 0.32850  0.93380  0.85460  Biso   1.000  H
  C389     1.0000 0.43537  0.03571  0.00506  Biso   1.000  C
  C390     1.0000 0.43444  0.00614  0.03488  Biso   1.000  C
  H210     1.0000 0.41330  0.98650  0.03500  Biso   1.000  H
  O61      1.0000 0.28393  0.47130  0.70151  Biso   1.000  O
  O62      1.0000 0.28451  0.53962  0.70030  Biso   1.000  O
  C391     1.0000 0.29417  0.50526  0.68707  Biso   1.000  C
  C392     1.0000 0.32013  0.50396  0.64941  Biso   1.000  C
  C393     1.0000 0.33022  0.46751  0.63235  Biso   1.000  C
  H211     1.0000 0.32100  0.44300  0.64470  Biso   1.000  H
  C394     1.0000 0.35381  0.46561  0.59713  Biso   1.000  C
  C395     1.0000 0.36499  0.42939  0.57891  Biso   1.000  C
  H212     1.0000 0.35490  0.40450  0.58950  Biso   1.000  H
  C396     1.0000 0.39069  0.42885  0.54549  Biso   1.000  C
  H213     1.0000 0.39800  0.40350  0.53360  Biso   1.000  H
  C397     1.0000 0.40574  0.46439  0.52920  Biso   1.000  C
  C398     1.0000 0.39571  0.50077  0.54684  Biso   1.000  C
  H214     1.0000 0.40690  0.52510  0.53600  Biso   1.000  H
  C399     1.0000 0.36951  0.50330  0.58037  Biso   1.000  C
  C400     1.0000 0.35771  0.53978  0.59885  Biso   1.000  C
  H215     1.0000 0.36620  0.56470  0.58700  Biso   1.000  H
  C401     1.0000 0.33477  0.54095  0.63280  Biso   1.000  C
  H216     1.0000 0.32850  0.56620  0.64540  Biso   1.000  H
  C402     1.0000 0.43537  0.46429  0.49494  Biso   1.000  C
  C403     1.0000 0.43444  0.49386  0.46512  Biso   1.000  C
  H217     1.0000 0.41330  0.51350  0.46500  Biso   1.000  H
  O63      1.0000 0.21607  0.47130  0.79849  Biso   1.000  O
  O64      1.0000 0.21549  0.53962  0.79970  Biso   1.000  O
  C404     1.0000 0.20583  0.50526  0.81293  Biso   1.000  C
  C405     1.0000 0.17987  0.50396  0.85059  Biso   1.000  C
  C406     1.0000 0.16978  0.46751  0.86765  Biso   1.000  C
  H218     1.0000 0.17900  0.44300  0.85530  Biso   1.000  H
  C407     1.0000 0.14619  0.46561  0.90287  Biso   1.000  C
  C408     1.0000 0.13501  0.42939  0.92109  Biso   1.000  C
  H219     1.0000 0.14510  0.40450  0.91050  Biso   1.000  H
  C409     1.0000 0.10931  0.42885  0.95451  Biso   1.000  C
  H220     1.0000 0.10200  0.40350  0.96640  Biso   1.000  H
  C410     1.0000 0.09426  0.46439  0.97080  Biso   1.000  C
  C411     1.0000 0.10429  0.50077  0.95316  Biso   1.000  C
  H221     1.0000 0.09310  0.52510  0.96400  Biso   1.000  H
  C412     1.0000 0.13049  0.50330  0.91963  Biso   1.000  C
  C413     1.0000 0.14229  0.53978  0.90115  Biso   1.000  C
  H222     1.0000 0.13380  0.56470  0.91300  Biso   1.000  H
  C414     1.0000 0.16523  0.54095  0.86720  Biso   1.000  C
  H223     1.0000 0.17150  0.56620  0.85460  Biso   1.000  H
  C415     1.0000 0.06463  0.46429  0.00506  Biso   1.000  C
  C416     1.0000 0.06556  0.49386  0.03488  Biso   1.000  C
  H224     1.0000 0.08670  0.51350  0.03500  Biso   1.000  H
  O65      1.0000 0.02870  0.79849  0.28393  Biso   1.000  O
  O66      1.0000 0.96038  0.79970  0.28451  Biso   1.000  O
  C417     1.0000 0.99474  0.81293  0.29417  Biso   1.000  C
  C418     1.0000 0.99604  0.85059  0.32013  Biso   1.000  C
  C419     1.0000 0.03249  0.86765  0.33022  Biso   1.000  C
  H225     1.0000 0.05700  0.85530  0.32100  Biso   1.000  H
  C420     1.0000 0.03439  0.90287  0.35381  Biso   1.000  C
  C421     1.0000 0.07061  0.92109  0.36499  Biso   1.000  C
  H226     1.0000 0.09550  0.91050  0.35490  Biso   1.000  H
  C422     1.0000 0.07115  0.95451  0.39069  Biso   1.000  C
  H227     1.0000 0.09650  0.96640  0.39800  Biso   1.000  H
  C423     1.0000 0.03561  0.97080  0.40574  Biso   1.000  C
  C424     1.0000 0.99923  0.95316  0.39571  Biso   1.000  C
  H228     1.0000 0.97490  0.96400  0.40690  Biso   1.000  H
  C425     1.0000 0.99670  0.91963  0.36951  Biso   1.000  C
  C426     1.0000 0.96022  0.90115  0.35771  Biso   1.000  C
  H229     1.0000 0.93530  0.91300  0.36620  Biso   1.000  H
  C427     1.0000 0.95905  0.86720  0.33477  Biso   1.000  C
  H230     1.0000 0.93380  0.85460  0.32850  Biso   1.000  H
  C428     1.0000 0.03571  0.00506  0.43537  Biso   1.000  C
  C429     1.0000 0.00614  0.03488  0.43444  Biso   1.000  C
  H231     1.0000 0.98650  0.03500  0.41330  Biso   1.000  H
  O67      1.0000 0.02870  0.70151  0.21607  Biso   1.000  O
  O68      1.0000 0.96038  0.70030  0.21549  Biso   1.000  O
  C430     1.0000 0.99474  0.68707  0.20583  Biso   1.000  C
  C431     1.0000 0.99604  0.64941  0.17987  Biso   1.000  C
  C432     1.0000 0.03249  0.63235  0.16978  Biso   1.000  C
  H232     1.0000 0.05700  0.64470  0.17900  Biso   1.000  H
  C433     1.0000 0.03439  0.59713  0.14619  Biso   1.000  C
  C434     1.0000 0.07061  0.57891  0.13501  Biso   1.000  C
  H233     1.0000 0.09550  0.58950  0.14510  Biso   1.000  H
  C435     1.0000 0.07115  0.54549  0.10931  Biso   1.000  C
  H234     1.0000 0.09650  0.53360  0.10200  Biso   1.000  H
  C436     1.0000 0.03561  0.52920  0.09426  Biso   1.000  C
  C437     1.0000 0.99923  0.54684  0.10429  Biso   1.000  C
  H235     1.0000 0.97490  0.53600  0.09310  Biso   1.000  H
  C438     1.0000 0.99670  0.58037  0.13049  Biso   1.000  C
  C439     1.0000 0.96022  0.59885  0.14229  Biso   1.000  C
  H236     1.0000 0.93530  0.58700  0.13380  Biso   1.000  H
  C440     1.0000 0.95905  0.63280  0.16523  Biso   1.000  C
  H237     1.0000 0.93380  0.64540  0.17150  Biso   1.000  H
  C441     1.0000 0.03571  0.49494  0.06463  Biso   1.000  C
  C442     1.0000 0.00614  0.46512  0.06556  Biso   1.000  C
  H238     1.0000 0.98650  0.46500  0.08670  Biso   1.000  H
  O69      1.0000 0.47130  0.79849  0.21607  Biso   1.000  O
  O70      1.0000 0.53962  0.79970  0.21549  Biso   1.000  O
  C443     1.0000 0.50526  0.81293  0.20583  Biso   1.000  C
  C444     1.0000 0.50396  0.85059  0.17987  Biso   1.000  C
  C445     1.0000 0.46751  0.86765  0.16978  Biso   1.000  C
  H239     1.0000 0.44300  0.85530  0.17900  Biso   1.000  H
  C446     1.0000 0.46561  0.90287  0.14619  Biso   1.000  C
  C447     1.0000 0.42939  0.92109  0.13501  Biso   1.000  C
  H240     1.0000 0.40450  0.91050  0.14510  Biso   1.000  H
  C448     1.0000 0.42885  0.95451  0.10931  Biso   1.000  C
  H241     1.0000 0.40350  0.96640  0.10200  Biso   1.000  H
  C449     1.0000 0.46439  0.97080  0.09426  Biso   1.000  C
  C450     1.0000 0.50077  0.95316  0.10429  Biso   1.000  C
  H242     1.0000 0.52510  0.96400  0.09310  Biso   1.000  H
  C451     1.0000 0.50330  0.91963  0.13049  Biso   1.000  C
  C452     1.0000 0.53978  0.90115  0.14229  Biso   1.000  C
  H243     1.0000 0.56470  0.91300  0.13380  Biso   1.000  H
  C453     1.0000 0.54095  0.86720  0.16523  Biso   1.000  C
  H244     1.0000 0.56620  0.85460  0.17150  Biso   1.000  H
  C454     1.0000 0.46429  0.00506  0.06463  Biso   1.000  C
  C455     1.0000 0.49386  0.03488  0.06556  Biso   1.000  C
  H245     1.0000 0.51350  0.03500  0.08670  Biso   1.000  H
  O71      1.0000 0.47130  0.70151  0.28393  Biso   1.000  O
  O72      1.0000 0.53962  0.70030  0.28451  Biso   1.000  O
  C456     1.0000 0.50526  0.68707  0.29417  Biso   1.000  C
  C457     1.0000 0.50396  0.64941  0.32013  Biso   1.000  C
  C458     1.0000 0.46751  0.63235  0.33022  Biso   1.000  C
  H246     1.0000 0.44300  0.64470  0.32100  Biso   1.000  H
  C459     1.0000 0.46561  0.59713  0.35381  Biso   1.000  C
  C460     1.0000 0.42939  0.57891  0.36499  Biso   1.000  C
  H247     1.0000 0.40450  0.58950  0.35490  Biso   1.000  H
  C461     1.0000 0.42885  0.54549  0.39069  Biso   1.000  C
  H248     1.0000 0.40350  0.53360  0.39800  Biso   1.000  H
  C462     1.0000 0.46439  0.52920  0.40574  Biso   1.000  C
  C463     1.0000 0.50077  0.54684  0.39571  Biso   1.000  C
  H249     1.0000 0.52510  0.53600  0.40690  Biso   1.000  H
  C464     1.0000 0.50330  0.58037  0.36951  Biso   1.000  C
  C465     1.0000 0.53978  0.59885  0.35771  Biso   1.000  C
  H250     1.0000 0.56470  0.58700  0.36620  Biso   1.000  H
  C466     1.0000 0.54095  0.63280  0.33477  Biso   1.000  C
  H251     1.0000 0.56620  0.64540  0.32850  Biso   1.000  H
  C467     1.0000 0.46429  0.49494  0.43537  Biso   1.000  C
  C468     1.0000 0.49386  0.46512  0.43444  Biso   1.000  C
  H252     1.0000 0.51350  0.46500  0.41330  Biso   1.000  H
  O73      1.0000 0.78393  0.20151  0.97130  Biso   1.000  O
  O74      1.0000 0.78451  0.20030  0.03962  Biso   1.000  O
  C469     1.0000 0.79417  0.18707  0.00526  Biso   1.000  C
  C470     1.0000 0.82013  0.14941  0.00396  Biso   1.000  C
  C471     1.0000 0.83022  0.13235  0.96751  Biso   1.000  C
  H253     1.0000 0.82100  0.14470  0.94300  Biso   1.000  H
  C472     1.0000 0.85381  0.09713  0.96561  Biso   1.000  C
  C473     1.0000 0.86499  0.07891  0.92939  Biso   1.000  C
  H254     1.0000 0.85490  0.08950  0.90450  Biso   1.000  H
  C474     1.0000 0.89069  0.04549  0.92885  Biso   1.000  C
  H255     1.0000 0.89800  0.03360  0.90350  Biso   1.000  H
  C475     1.0000 0.90574  0.02920  0.96439  Biso   1.000  C
  C476     1.0000 0.89571  0.04684  0.00077  Biso   1.000  C
  H256     1.0000 0.90690  0.03600  0.02510  Biso   1.000  H
  C477     1.0000 0.86951  0.08037  0.00330  Biso   1.000  C
  C478     1.0000 0.85771  0.09885  0.03978  Biso   1.000  C
  H257     1.0000 0.86620  0.08700  0.06470  Biso   1.000  H
  C479     1.0000 0.83477  0.13280  0.04095  Biso   1.000  C
  H258     1.0000 0.82850  0.14540  0.06620  Biso   1.000  H
  C480     1.0000 0.93537  0.99494  0.96429  Biso   1.000  C
  C481     1.0000 0.93444  0.96512  0.99386  Biso   1.000  C
  H259     1.0000 0.91330  0.96500  0.01350  Biso   1.000  H
  O75      1.0000 0.71607  0.29849  0.97130  Biso   1.000  O
  O76      1.0000 0.71549  0.29970  0.03962  Biso   1.000  O
  C482     1.0000 0.70583  0.31293  0.00526  Biso   1.000  C
  C483     1.0000 0.67987  0.35059  0.00396  Biso   1.000  C
  C484     1.0000 0.66978  0.36765  0.96751  Biso   1.000  C
  H260     1.0000 0.67900  0.35530  0.94300  Biso   1.000  H
  C485     1.0000 0.64619  0.40287  0.96561  Biso   1.000  C
  C486     1.0000 0.63501  0.42109  0.92939  Biso   1.000  C
  H261     1.0000 0.64510  0.41050  0.90450  Biso   1.000  H
  C487     1.0000 0.60931  0.45451  0.92885  Biso   1.000  C
  H262     1.0000 0.60200  0.46640  0.90350  Biso   1.000  H
  C488     1.0000 0.59426  0.47080  0.96439  Biso   1.000  C
  C489     1.0000 0.60429  0.45316  0.00077  Biso   1.000  C
  H263     1.0000 0.59310  0.46400  0.02510  Biso   1.000  H
  C490     1.0000 0.63049  0.41963  0.00330  Biso   1.000  C
  C491     1.0000 0.64229  0.40115  0.03978  Biso   1.000  C
  H264     1.0000 0.63380  0.41300  0.06470  Biso   1.000  H
  C492     1.0000 0.66523  0.36720  0.04095  Biso   1.000  C
  H265     1.0000 0.67150  0.35460  0.06620  Biso   1.000  H
  C493     1.0000 0.56463  0.50506  0.96429  Biso   1.000  C
  C494     1.0000 0.56556  0.53488  0.99386  Biso   1.000  C
  H266     1.0000 0.58670  0.53500  0.01350  Biso   1.000  H
  O77      1.0000 0.71607  0.20151  0.52870  Biso   1.000  O
  O78      1.0000 0.71549  0.20030  0.46038  Biso   1.000  O
  C495     1.0000 0.70583  0.18707  0.49474  Biso   1.000  C
  C496     1.0000 0.67987  0.14941  0.49604  Biso   1.000  C
  C497     1.0000 0.66978  0.13235  0.53249  Biso   1.000  C
  H267     1.0000 0.67900  0.14470  0.55700  Biso   1.000  H
  C498     1.0000 0.64619  0.09713  0.53439  Biso   1.000  C
  C499     1.0000 0.63501  0.07891  0.57061  Biso   1.000  C
  H268     1.0000 0.64510  0.08950  0.59550  Biso   1.000  H
  C500     1.0000 0.60931  0.04549  0.57115  Biso   1.000  C
  H269     1.0000 0.60200  0.03360  0.59650  Biso   1.000  H
  C501     1.0000 0.59426  0.02920  0.53561  Biso   1.000  C
  C502     1.0000 0.60429  0.04684  0.49923  Biso   1.000  C
  H270     1.0000 0.59310  0.03600  0.47490  Biso   1.000  H
  C503     1.0000 0.63049  0.08037  0.49670  Biso   1.000  C
  C504     1.0000 0.64229  0.09885  0.46022  Biso   1.000  C
  H271     1.0000 0.63380  0.08700  0.43530  Biso   1.000  H
  C505     1.0000 0.66523  0.13280  0.45905  Biso   1.000  C
  H272     1.0000 0.67150  0.14540  0.43380  Biso   1.000  H
  C506     1.0000 0.56463  0.99494  0.53571  Biso   1.000  C
  C507     1.0000 0.56556  0.96512  0.50614  Biso   1.000  C
  H273     1.0000 0.58670  0.96500  0.48650  Biso   1.000  H
  O79      1.0000 0.78393  0.29849  0.52870  Biso   1.000  O
  O80      1.0000 0.78451  0.29970  0.46038  Biso   1.000  O
  C508     1.0000 0.79417  0.31293  0.49474  Biso   1.000  C
  C509     1.0000 0.82013  0.35059  0.49604  Biso   1.000  C
  C510     1.0000 0.83022  0.36765  0.53249  Biso   1.000  C
  H274     1.0000 0.82100  0.35530  0.55700  Biso   1.000  H
  C511     1.0000 0.85381  0.40287  0.53439  Biso   1.000  C
  C512     1.0000 0.86499  0.42109  0.57061  Biso   1.000  C
  H275     1.0000 0.85490  0.41050  0.59550  Biso   1.000  H
  C513     1.0000 0.89069  0.45451  0.57115  Biso   1.000  C
  H276     1.0000 0.89800  0.46640  0.59650  Biso   1.000  H
  C514     1.0000 0.90574  0.47080  0.53561  Biso   1.000  C
  C515     1.0000 0.89571  0.45316  0.49923  Biso   1.000  C
  H277     1.0000 0.90690  0.46400  0.47490  Biso   1.000  H
  C516     1.0000 0.86951  0.41963  0.49670  Biso   1.000  C
  C517     1.0000 0.85771  0.40115  0.46022  Biso   1.000  C
  H278     1.0000 0.86620  0.41300  0.43530  Biso   1.000  H
  C518     1.0000 0.83477  0.36720  0.45905  Biso   1.000  C
  H279     1.0000 0.82850  0.35460  0.43380  Biso   1.000  H
  C519     1.0000 0.93537  0.50506  0.53571  Biso   1.000  C
  C520     1.0000 0.93444  0.53488  0.50614  Biso   1.000  C
  H280     1.0000 0.91330  0.53500  0.48650  Biso   1.000  H
  O81      1.0000 0.97130  0.78393  0.20151  Biso   1.000  O
  O82      1.0000 0.03962  0.78451  0.20030  Biso   1.000  O
  C521     1.0000 0.00526  0.79417  0.18707  Biso   1.000  C
  C522     1.0000 0.00396  0.82013  0.14941  Biso   1.000  C
  C523     1.0000 0.96751  0.83022  0.13235  Biso   1.000  C
  H281     1.0000 0.94300  0.82100  0.14470  Biso   1.000  H
  C524     1.0000 0.96561  0.85381  0.09713  Biso   1.000  C
  C525     1.0000 0.92939  0.86499  0.07891  Biso   1.000  C
  H282     1.0000 0.90450  0.85490  0.08950  Biso   1.000  H
  C526     1.0000 0.92885  0.89069  0.04549  Biso   1.000  C
  H283     1.0000 0.90350  0.89800  0.03360  Biso   1.000  H
  C527     1.0000 0.96439  0.90574  0.02920  Biso   1.000  C
  C528     1.0000 0.00077  0.89571  0.04684  Biso   1.000  C
  H284     1.0000 0.02510  0.90690  0.03600  Biso   1.000  H
  C529     1.0000 0.00330  0.86951  0.08037  Biso   1.000  C
  C530     1.0000 0.03978  0.85771  0.09885  Biso   1.000  C
  H285     1.0000 0.06470  0.86620  0.08700  Biso   1.000  H
  C531     1.0000 0.04095  0.83477  0.13280  Biso   1.000  C
  H286     1.0000 0.06620  0.82850  0.14540  Biso   1.000  H
  C532     1.0000 0.96429  0.93537  0.99494  Biso   1.000  C
  C533     1.0000 0.99386  0.93444  0.96512  Biso   1.000  C
  H287     1.0000 0.01350  0.91330  0.96500  Biso   1.000  H
  O83      1.0000 0.97130  0.71607  0.29849  Biso   1.000  O
  O84      1.0000 0.03962  0.71549  0.29970  Biso   1.000  O
  C534     1.0000 0.00526  0.70583  0.31293  Biso   1.000  C
  C535     1.0000 0.00396  0.67987  0.35059  Biso   1.000  C
  C536     1.0000 0.96751  0.66978  0.36765  Biso   1.000  C
  H288     1.0000 0.94300  0.67900  0.35530  Biso   1.000  H
  C537     1.0000 0.96561  0.64619  0.40287  Biso   1.000  C
  C538     1.0000 0.92939  0.63501  0.42109  Biso   1.000  C
  H289     1.0000 0.90450  0.64510  0.41050  Biso   1.000  H
  C539     1.0000 0.92885  0.60931  0.45451  Biso   1.000  C
  H290     1.0000 0.90350  0.60200  0.46640  Biso   1.000  H
  C540     1.0000 0.96439  0.59426  0.47080  Biso   1.000  C
  C541     1.0000 0.00077  0.60429  0.45316  Biso   1.000  C
  H291     1.0000 0.02510  0.59310  0.46400  Biso   1.000  H
  C542     1.0000 0.00330  0.63049  0.41963  Biso   1.000  C
  C543     1.0000 0.03978  0.64229  0.40115  Biso   1.000  C
  H292     1.0000 0.06470  0.63380  0.41300  Biso   1.000  H
  C544     1.0000 0.04095  0.66523  0.36720  Biso   1.000  C
  H293     1.0000 0.06620  0.67150  0.35460  Biso   1.000  H
  C545     1.0000 0.96429  0.56463  0.50506  Biso   1.000  C
  C546     1.0000 0.99386  0.56556  0.53488  Biso   1.000  C
  H294     1.0000 0.01350  0.58670  0.53500  Biso   1.000  H
  O85      1.0000 0.52870  0.71607  0.20151  Biso   1.000  O
  O86      1.0000 0.46038  0.71549  0.20030  Biso   1.000  O
  C547     1.0000 0.49474  0.70583  0.18707  Biso   1.000  C
  C548     1.0000 0.49604  0.67987  0.14941  Biso   1.000  C
  C549     1.0000 0.53249  0.66978  0.13235  Biso   1.000  C
  H295     1.0000 0.55700  0.67900  0.14470  Biso   1.000  H
  C550     1.0000 0.53439  0.64619  0.09713  Biso   1.000  C
  C551     1.0000 0.57061  0.63501  0.07891  Biso   1.000  C
  H296     1.0000 0.59550  0.64510  0.08950  Biso   1.000  H
  C552     1.0000 0.57115  0.60931  0.04549  Biso   1.000  C
  H297     1.0000 0.59650  0.60200  0.03360  Biso   1.000  H
  C553     1.0000 0.53561  0.59426  0.02920  Biso   1.000  C
  C554     1.0000 0.49923  0.60429  0.04684  Biso   1.000  C
  H298     1.0000 0.47490  0.59310  0.03600  Biso   1.000  H
  C555     1.0000 0.49670  0.63049  0.08037  Biso   1.000  C
  C556     1.0000 0.46022  0.64229  0.09885  Biso   1.000  C
  H299     1.0000 0.43530  0.63380  0.08700  Biso   1.000  H
  C557     1.0000 0.45905  0.66523  0.13280  Biso   1.000  C
  H300     1.0000 0.43380  0.67150  0.14540  Biso   1.000  H
  C558     1.0000 0.53571  0.56463  0.99494  Biso   1.000  C
  C559     1.0000 0.50614  0.56556  0.96512  Biso   1.000  C
  H301     1.0000 0.48650  0.58670  0.96500  Biso   1.000  H
  O87      1.0000 0.52870  0.78393  0.29849  Biso   1.000  O
  O88      1.0000 0.46038  0.78451  0.29970  Biso   1.000  O
  C560     1.0000 0.49474  0.79417  0.31293  Biso   1.000  C
  C561     1.0000 0.49604  0.82013  0.35059  Biso   1.000  C
  C562     1.0000 0.53249  0.83022  0.36765  Biso   1.000  C
  H302     1.0000 0.55700  0.82100  0.35530  Biso   1.000  H
  C563     1.0000 0.53439  0.85381  0.40287  Biso   1.000  C
  C564     1.0000 0.57061  0.86499  0.42109  Biso   1.000  C
  H303     1.0000 0.59550  0.85490  0.41050  Biso   1.000  H
  C565     1.0000 0.57115  0.89069  0.45451  Biso   1.000  C
  H304     1.0000 0.59650  0.89800  0.46640  Biso   1.000  H
  C566     1.0000 0.53561  0.90574  0.47080  Biso   1.000  C
  C567     1.0000 0.49923  0.89571  0.45316  Biso   1.000  C
  H305     1.0000 0.47490  0.90690  0.46400  Biso   1.000  H
  C568     1.0000 0.49670  0.86951  0.41963  Biso   1.000  C
  C569     1.0000 0.46022  0.85771  0.40115  Biso   1.000  C
  H306     1.0000 0.43530  0.86620  0.41300  Biso   1.000  H
  C570     1.0000 0.45905  0.83477  0.36720  Biso   1.000  C
  H307     1.0000 0.43380  0.82850  0.35460  Biso   1.000  H
  C571     1.0000 0.53571  0.93537  0.50506  Biso   1.000  C
  C572     1.0000 0.50614  0.93444  0.53488  Biso   1.000  C
  H308     1.0000 0.48650  0.91330  0.53500  Biso   1.000  H
  O89      1.0000 0.20151  0.97130  0.78393  Biso   1.000  O
  O90      1.0000 0.20030  0.03962  0.78451  Biso   1.000  O
  C573     1.0000 0.18707  0.00526  0.79417  Biso   1.000  C
  C574     1.0000 0.14941  0.00396  0.82013  Biso   1.000  C
  C575     1.0000 0.13235  0.96751  0.83022  Biso   1.000  C
  H309     1.0000 0.14470  0.94300  0.82100  Biso   1.000  H
  C576     1.0000 0.09713  0.96561  0.85381  Biso   1.000  C
  C577     1.0000 0.07891  0.92939  0.86499  Biso   1.000  C
  H310     1.0000 0.08950  0.90450  0.85490  Biso   1.000  H
  C578     1.0000 0.04549  0.92885  0.89069  Biso   1.000  C
  H311     1.0000 0.03360  0.90350  0.89800  Biso   1.000  H
  C579     1.0000 0.02920  0.96439  0.90574  Biso   1.000  C
  C580     1.0000 0.04684  0.00077  0.89571  Biso   1.000  C
  H312     1.0000 0.03600  0.02510  0.90690  Biso   1.000  H
  C581     1.0000 0.08037  0.00330  0.86951  Biso   1.000  C
  C582     1.0000 0.09885  0.03978  0.85771  Biso   1.000  C
  H313     1.0000 0.08700  0.06470  0.86620  Biso   1.000  H
  C583     1.0000 0.13280  0.04095  0.83477  Biso   1.000  C
  H314     1.0000 0.14540  0.06620  0.82850  Biso   1.000  H
  C584     1.0000 0.99494  0.96429  0.93537  Biso   1.000  C
  C585     1.0000 0.96512  0.99386  0.93444  Biso   1.000  C
  H315     1.0000 0.96500  0.01350  0.91330  Biso   1.000  H
  O91      1.0000 0.29849  0.97130  0.71607  Biso   1.000  O
  O92      1.0000 0.29970  0.03962  0.71549  Biso   1.000  O
  C586     1.0000 0.31293  0.00526  0.70583  Biso   1.000  C
  C587     1.0000 0.35059  0.00396  0.67987  Biso   1.000  C
  C588     1.0000 0.36765  0.96751  0.66978  Biso   1.000  C
  H316     1.0000 0.35530  0.94300  0.67900  Biso   1.000  H
  C589     1.0000 0.40287  0.96561  0.64619  Biso   1.000  C
  C590     1.0000 0.42109  0.92939  0.63501  Biso   1.000  C
  H317     1.0000 0.41050  0.90450  0.64510  Biso   1.000  H
  C591     1.0000 0.45451  0.92885  0.60931  Biso   1.000  C
  H318     1.0000 0.46640  0.90350  0.60200  Biso   1.000  H
  C592     1.0000 0.47080  0.96439  0.59426  Biso   1.000  C
  C593     1.0000 0.45316  0.00077  0.60429  Biso   1.000  C
  H319     1.0000 0.46400  0.02510  0.59310  Biso   1.000  H
  C594     1.0000 0.41963  0.00330  0.63049  Biso   1.000  C
  C595     1.0000 0.40115  0.03978  0.64229  Biso   1.000  C
  H320     1.0000 0.41300  0.06470  0.63380  Biso   1.000  H
  C596     1.0000 0.36720  0.04095  0.66523  Biso   1.000  C
  H321     1.0000 0.35460  0.06620  0.67150  Biso   1.000  H
  C597     1.0000 0.50506  0.96429  0.56463  Biso   1.000  C
  C598     1.0000 0.53488  0.99386  0.56556  Biso   1.000  C
  H322     1.0000 0.53500  0.01350  0.58670  Biso   1.000  H
  O93      1.0000 0.20151  0.52870  0.71607  Biso   1.000  O
  O94      1.0000 0.20030  0.46038  0.71549  Biso   1.000  O
  C599     1.0000 0.18707  0.49474  0.70583  Biso   1.000  C
  C600     1.0000 0.14941  0.49604  0.67987  Biso   1.000  C
  C601     1.0000 0.13235  0.53249  0.66978  Biso   1.000  C
  H323     1.0000 0.14470  0.55700  0.67900  Biso   1.000  H
  C602     1.0000 0.09713  0.53439  0.64619  Biso   1.000  C
  C603     1.0000 0.07891  0.57061  0.63501  Biso   1.000  C
  H324     1.0000 0.08950  0.59550  0.64510  Biso   1.000  H
  C604     1.0000 0.04549  0.57115  0.60931  Biso   1.000  C
  H325     1.0000 0.03360  0.59650  0.60200  Biso   1.000  H
  C605     1.0000 0.02920  0.53561  0.59426  Biso   1.000  C
  C606     1.0000 0.04684  0.49923  0.60429  Biso   1.000  C
  H326     1.0000 0.03600  0.47490  0.59310  Biso   1.000  H
  C607     1.0000 0.08037  0.49670  0.63049  Biso   1.000  C
  C608     1.0000 0.09885  0.46022  0.64229  Biso   1.000  C
  H327     1.0000 0.08700  0.43530  0.63380  Biso   1.000  H
  C609     1.0000 0.13280  0.45905  0.66523  Biso   1.000  C
  H328     1.0000 0.14540  0.43380  0.67150  Biso   1.000  H
  C610     1.0000 0.99494  0.53571  0.56463  Biso   1.000  C
  C611     1.0000 0.96512  0.50614  0.56556  Biso   1.000  C
  H329     1.0000 0.96500  0.48650  0.58670  Biso   1.000  H
  O95      1.0000 0.29849  0.52870  0.78393  Biso   1.000  O
  O96      1.0000 0.29970  0.46038  0.78451  Biso   1.000  O
  C612     1.0000 0.31293  0.49474  0.79417  Biso   1.000  C
  C613     1.0000 0.35059  0.49604  0.82013  Biso   1.000  C
  C614     1.0000 0.36765  0.53249  0.83022  Biso   1.000  C
  H330     1.0000 0.35530  0.55700  0.82100  Biso   1.000  H
  C615     1.0000 0.40287  0.53439  0.85381  Biso   1.000  C
  C616     1.0000 0.42109  0.57061  0.86499  Biso   1.000  C
  H331     1.0000 0.41050  0.59550  0.85490  Biso   1.000  H
  C617     1.0000 0.45451  0.57115  0.89069  Biso   1.000  C
  H332     1.0000 0.46640  0.59650  0.89800  Biso   1.000  H
  C618     1.0000 0.47080  0.53561  0.90574  Biso   1.000  C
  C619     1.0000 0.45316  0.49923  0.89571  Biso   1.000  C
  H333     1.0000 0.46400  0.47490  0.90690  Biso   1.000  H
  C620     1.0000 0.41963  0.49670  0.86951  Biso   1.000  C
  C621     1.0000 0.40115  0.46022  0.85771  Biso   1.000  C
  H334     1.0000 0.41300  0.43530  0.86620  Biso   1.000  H
  C622     1.0000 0.36720  0.45905  0.83477  Biso   1.000  C
  H335     1.0000 0.35460  0.43380  0.82850  Biso   1.000  H
  C623     1.0000 0.50506  0.53571  0.93537  Biso   1.000  C
  C624     1.0000 0.53488  0.50614  0.93444  Biso   1.000  C
  H336     1.0000 0.53500  0.48650  0.91330  Biso   1.000  H
  Zn13     1.0000 0.75000  0.25000  0.45412  Biso   1.000  Zn
  Zn14     1.0000 0.75000  0.25000  0.04588  Biso   1.000  Zn
  Zn15     1.0000 0.25000  0.04588  0.75000  Biso   1.000  Zn
  Zn16     1.0000 0.25000  0.45412  0.75000  Biso   1.000  Zn
  Zn17     1.0000 0.04588  0.75000  0.25000  Biso   1.000  Zn
  Zn18     1.0000 0.45412  0.75000  0.25000  Biso   1.000  Zn
  Zn19     1.0000 0.75000  0.25000  0.95412  Biso   1.000  Zn
  Zn20     1.0000 0.75000  0.25000  0.54588  Biso   1.000  Zn
  Zn21     1.0000 0.95412  0.75000  0.25000  Biso   1.000  Zn
  Zn22     1.0000 0.54588  0.75000  0.25000  Biso   1.000  Zn
  Zn23     1.0000 0.25000  0.95412  0.75000  Biso   1.000  Zn
  Zn24     1.0000 0.25000  0.54588  0.75000  Biso   1.000  Zn
