data_image0
_cell_length_a       33.7831
_cell_length_b       33.7831
_cell_length_c       43.456
_cell_angle_alpha    90
_cell_angle_beta     90
_cell_angle_gamma    120

_symmetry_space_group_name_H-M    "P 1"
_symmetry_int_tables_number       1

loop_
  _symmetry_equiv_pos_as_xyz
  'x, y, z'

loop_
  _atom_site_label
  _atom_site_occupancy
  _atom_site_fract_x
  _atom_site_fract_y
  _atom_site_fract_z
  _atom_site_thermal_displace_type
  _atom_site_B_iso_or_equiv
  _atom_site_type_symbol
  O1       1.0000 0.45037  0.46784  0.53840  Biso   1.000  O
  O2       1.0000 0.48650  0.43080  0.52048  Biso   1.000  O
  O3       1.0000 0.43650  0.27730  0.55961  Biso   1.000  O
  O4       1.0000 0.38700  0.24980  0.59758  Biso   1.000  O
  C1       1.0000 0.26200  0.38260  0.69510  Biso   1.000  C
  C2       1.0000 0.22460  0.38400  0.68500  Biso   1.000  C
  C3       1.0000 0.37911  0.36690  0.60166  Biso   1.000  C
  C4       1.0000 0.38170  0.32710  0.60067  Biso   1.000  C
  H1       1.0000 0.36450  0.30320  0.61450  Biso   1.000  H
  C5       1.0000 0.40980  0.32280  0.57922  Biso   1.000  C
  C6       1.0000 0.43533  0.35820  0.55877  Biso   1.000  C
  H2       1.0000 0.45430  0.35520  0.54430  Biso   1.000  H
  C7       1.0000 0.43271  0.39790  0.55976  Biso   1.000  C
  C8       1.0000 0.40460  0.40230  0.58121  Biso   1.000  C
  H3       1.0000 0.40280  0.42910  0.58190  Biso   1.000  H
  C9       1.0000 0.21140  0.38330  0.65244  Biso   1.000  C
  H4       1.0000 0.22780  0.38300  0.63500  Biso   1.000  H
  C10      1.0000 0.31560  0.38280  0.73437  Biso   1.000  C
  H5       1.0000 0.33750  0.38270  0.72120  Biso   1.000  H
  C11      1.0000 0.27430  0.38300  0.72590  Biso   1.000  C
  C12      1.0000 0.45890  0.43550  0.53690  Biso   1.000  C
  C13      1.0000 0.41090  0.28250  0.57820  Biso   1.000  C
  C14      1.0000 0.29260  0.37880  0.66932  Biso   1.000  C
  C15      1.0000 0.33420  0.41640  0.66129  Biso   1.000  C
  H6       1.0000 0.34380  0.44490  0.67070  Biso   1.000  H
  C16      1.0000 0.36180  0.41200  0.63940  Biso   1.000  C
  H7       1.0000 0.38990  0.43750  0.63390  Biso   1.000  H
  C17      1.0000 0.34760  0.37000  0.62547  Biso   1.000  C
  C18      1.0000 0.30590  0.33230  0.63351  Biso   1.000  C
  H8       1.0000 0.29630  0.30390  0.62410  Biso   1.000  H
  C19      1.0000 0.27839  0.33670  0.65543  Biso   1.000  C
  H9       1.0000 0.25020  0.31120  0.66090  Biso   1.000  H
  O5       1.0000 0.53216  0.98253  0.53840  Biso   1.000  O
  O6       1.0000 0.56920  0.05570  0.52048  Biso   1.000  O
  O7       1.0000 0.72270  0.15920  0.55961  Biso   1.000  O
  O8       1.0000 0.75020  0.13720  0.59758  Biso   1.000  O
  C20      1.0000 0.61740  0.87940  0.69510  Biso   1.000  C
  C21      1.0000 0.61600  0.84060  0.68500  Biso   1.000  C
  C22      1.0000 0.63310  0.01221  0.60166  Biso   1.000  C
  C23      1.0000 0.67290  0.05460  0.60067  Biso   1.000  C
  H10      1.0000 0.69680  0.06130  0.61450  Biso   1.000  H
  C24      1.0000 0.67720  0.08700  0.57922  Biso   1.000  C
  C25      1.0000 0.64180  0.07713  0.55877  Biso   1.000  C
  H11      1.0000 0.64480  0.09910  0.54430  Biso   1.000  H
  C26      1.0000 0.60210  0.03481  0.55976  Biso   1.000  C
  C27      1.0000 0.59770  0.00230  0.58121  Biso   1.000  C
  H12      1.0000 0.57090  0.97370  0.58190  Biso   1.000  H
  C28      1.0000 0.61670  0.82810  0.65244  Biso   1.000  C
  H13      1.0000 0.61700  0.84480  0.63500  Biso   1.000  H
  C29      1.0000 0.61720  0.93280  0.73437  Biso   1.000  C
  H14      1.0000 0.61730  0.95480  0.72120  Biso   1.000  H
  C30      1.0000 0.61700  0.89130  0.72590  Biso   1.000  C
  C31      1.0000 0.56450  0.02340  0.53690  Biso   1.000  C
  C32      1.0000 0.71750  0.12840  0.57820  Biso   1.000  C
  C33      1.0000 0.62120  0.91380  0.66932  Biso   1.000  C
  C34      1.0000 0.58360  0.91780  0.66129  Biso   1.000  C
  H15      1.0000 0.55510  0.89890  0.67070  Biso   1.000  H
  C35      1.0000 0.58800  0.94980  0.63940  Biso   1.000  C
  H16      1.0000 0.56250  0.95240  0.63390  Biso   1.000  H
  C36      1.0000 0.63000  0.97760  0.62547  Biso   1.000  C
  C37      1.0000 0.66770  0.97360  0.63351  Biso   1.000  C
  H17      1.0000 0.69610  0.99240  0.62410  Biso   1.000  H
  C38      1.0000 0.66330  0.94169  0.65543  Biso   1.000  C
  H18      1.0000 0.68880  0.93900  0.66090  Biso   1.000  H
  O9       1.0000 0.01747  0.54963  0.53840  Biso   1.000  O
  O10      1.0000 0.94430  0.51350  0.52048  Biso   1.000  O
  O11      1.0000 0.84080  0.56350  0.55961  Biso   1.000  O
  O12      1.0000 0.86280  0.61300  0.59758  Biso   1.000  O
  C39      1.0000 0.12060  0.73800  0.69510  Biso   1.000  C
  C40      1.0000 0.15940  0.77540  0.68500  Biso   1.000  C
  C41      1.0000 0.98779  0.62089  0.60166  Biso   1.000  C
  C42      1.0000 0.94540  0.61830  0.60067  Biso   1.000  C
  H19      1.0000 0.93870  0.63550  0.61450  Biso   1.000  H
  C43      1.0000 0.91300  0.59020  0.57922  Biso   1.000  C
  C44      1.0000 0.92287  0.56467  0.55877  Biso   1.000  C
  H20      1.0000 0.90090  0.54570  0.54430  Biso   1.000  H
  C45      1.0000 0.96519  0.56729  0.55976  Biso   1.000  C
  C46      1.0000 0.99770  0.59540  0.58121  Biso   1.000  C
  H21      1.0000 0.02630  0.59720  0.58190  Biso   1.000  H
  C47      1.0000 0.17190  0.78860  0.65244  Biso   1.000  C
  H22      1.0000 0.15520  0.77220  0.63500  Biso   1.000  H
  C48      1.0000 0.06720  0.68440  0.73437  Biso   1.000  C
  H23      1.0000 0.04520  0.66250  0.72120  Biso   1.000  H
  C49      1.0000 0.10870  0.72570  0.72590  Biso   1.000  C
  C50      1.0000 0.97660  0.54110  0.53690  Biso   1.000  C
  C51      1.0000 0.87160  0.58910  0.57820  Biso   1.000  C
  C52      1.0000 0.08620  0.70740  0.66932  Biso   1.000  C
  C53      1.0000 0.08220  0.66580  0.66129  Biso   1.000  C
  H24      1.0000 0.10110  0.65620  0.67070  Biso   1.000  H
  C54      1.0000 0.05020  0.63820  0.63940  Biso   1.000  C
  H25      1.0000 0.04760  0.61010  0.63390  Biso   1.000  H
  C55      1.0000 0.02240  0.65240  0.62547  Biso   1.000  C
  C56      1.0000 0.02640  0.69410  0.63351  Biso   1.000  C
  H26      1.0000 0.00760  0.70370  0.62410  Biso   1.000  H
  C57      1.0000 0.05831  0.72161  0.65543  Biso   1.000  C
  H27      1.0000 0.06100  0.74980  0.66090  Biso   1.000  H
  O13      1.0000 0.54963  0.53216  0.03840  Biso   1.000  O
  O14      1.0000 0.51350  0.56920  0.02048  Biso   1.000  O
  O15      1.0000 0.56350  0.72270  0.05961  Biso   1.000  O
  O16      1.0000 0.61300  0.75020  0.09758  Biso   1.000  O
  C58      1.0000 0.73800  0.61740  0.19510  Biso   1.000  C
  C59      1.0000 0.77540  0.61600  0.18500  Biso   1.000  C
  C60      1.0000 0.62089  0.63310  0.10166  Biso   1.000  C
  C61      1.0000 0.61830  0.67290  0.10067  Biso   1.000  C
  H28      1.0000 0.63550  0.69680  0.11450  Biso   1.000  H
  C62      1.0000 0.59020  0.67720  0.07922  Biso   1.000  C
  C63      1.0000 0.56467  0.64180  0.05877  Biso   1.000  C
  H29      1.0000 0.54570  0.64480  0.04430  Biso   1.000  H
  C64      1.0000 0.56729  0.60210  0.05976  Biso   1.000  C
  C65      1.0000 0.59540  0.59770  0.08121  Biso   1.000  C
  H30      1.0000 0.59720  0.57090  0.08190  Biso   1.000  H
  C66      1.0000 0.78860  0.61670  0.15244  Biso   1.000  C
  H31      1.0000 0.77220  0.61700  0.13500  Biso   1.000  H
  C67      1.0000 0.68440  0.61720  0.23437  Biso   1.000  C
  H32      1.0000 0.66250  0.61730  0.22120  Biso   1.000  H
  C68      1.0000 0.72570  0.61700  0.22590  Biso   1.000  C
  C69      1.0000 0.54110  0.56450  0.03690  Biso   1.000  C
  C70      1.0000 0.58910  0.71750  0.07820  Biso   1.000  C
  C71      1.0000 0.70740  0.62120  0.16932  Biso   1.000  C
  C72      1.0000 0.66580  0.58360  0.16129  Biso   1.000  C
  H33      1.0000 0.65620  0.55510  0.17070  Biso   1.000  H
  C73      1.0000 0.63820  0.58800  0.13940  Biso   1.000  C
  H34      1.0000 0.61010  0.56250  0.13390  Biso   1.000  H
  C74      1.0000 0.65240  0.63000  0.12547  Biso   1.000  C
  C75      1.0000 0.69410  0.66770  0.13351  Biso   1.000  C
  H35      1.0000 0.70370  0.69610  0.12410  Biso   1.000  H
  C76      1.0000 0.72161  0.66330  0.15543  Biso   1.000  C
  H36      1.0000 0.74980  0.68880  0.16090  Biso   1.000  H
  O17      1.0000 0.46784  0.01747  0.03840  Biso   1.000  O
  O18      1.0000 0.43080  0.94430  0.02048  Biso   1.000  O
  O19      1.0000 0.27730  0.84080  0.05961  Biso   1.000  O
  O20      1.0000 0.24980  0.86280  0.09758  Biso   1.000  O
  C77      1.0000 0.38260  0.12060  0.19510  Biso   1.000  C
  C78      1.0000 0.38400  0.15940  0.18500  Biso   1.000  C
  C79      1.0000 0.36690  0.98779  0.10166  Biso   1.000  C
  C80      1.0000 0.32710  0.94540  0.10067  Biso   1.000  C
  H37      1.0000 0.30320  0.93870  0.11450  Biso   1.000  H
  C81      1.0000 0.32280  0.91300  0.07922  Biso   1.000  C
  C82      1.0000 0.35820  0.92287  0.05877  Biso   1.000  C
  H38      1.0000 0.35520  0.90090  0.04430  Biso   1.000  H
  C83      1.0000 0.39790  0.96519  0.05976  Biso   1.000  C
  C84      1.0000 0.40230  0.99770  0.08121  Biso   1.000  C
  H39      1.0000 0.42910  0.02630  0.08190  Biso   1.000  H
  C85      1.0000 0.38330  0.17190  0.15244  Biso   1.000  C
  H40      1.0000 0.38300  0.15520  0.13500  Biso   1.000  H
  C86      1.0000 0.38280  0.06720  0.23437  Biso   1.000  C
  H41      1.0000 0.38270  0.04520  0.22120  Biso   1.000  H
  C87      1.0000 0.38300  0.10870  0.22590  Biso   1.000  C
  C88      1.0000 0.43550  0.97660  0.03690  Biso   1.000  C
  C89      1.0000 0.28250  0.87160  0.07820  Biso   1.000  C
  C90      1.0000 0.37880  0.08620  0.16932  Biso   1.000  C
  C91      1.0000 0.41640  0.08220  0.16129  Biso   1.000  C
  H42      1.0000 0.44490  0.10110  0.17070  Biso   1.000  H
  C92      1.0000 0.41200  0.05020  0.13940  Biso   1.000  C
  H43      1.0000 0.43750  0.04760  0.13390  Biso   1.000  H
  C93      1.0000 0.37000  0.02240  0.12547  Biso   1.000  C
  C94      1.0000 0.33230  0.02640  0.13351  Biso   1.000  C
  H44      1.0000 0.30390  0.00760  0.12410  Biso   1.000  H
  C95      1.0000 0.33670  0.05831  0.15543  Biso   1.000  C
  H45      1.0000 0.31120  0.06100  0.16090  Biso   1.000  H
  O21      1.0000 0.98253  0.45037  0.03840  Biso   1.000  O
  O22      1.0000 0.05570  0.48650  0.02048  Biso   1.000  O
  O23      1.0000 0.15920  0.43650  0.05961  Biso   1.000  O
  O24      1.0000 0.13720  0.38700  0.09758  Biso   1.000  O
  C96      1.0000 0.87940  0.26200  0.19510  Biso   1.000  C
  C97      1.0000 0.84060  0.22460  0.18500  Biso   1.000  C
  C98      1.0000 0.01221  0.37911  0.10166  Biso   1.000  C
  C99      1.0000 0.05460  0.38170  0.10067  Biso   1.000  C
  H46      1.0000 0.06130  0.36450  0.11450  Biso   1.000  H
  C100     1.0000 0.08700  0.40980  0.07922  Biso   1.000  C
  C101     1.0000 0.07713  0.43533  0.05877  Biso   1.000  C
  H47      1.0000 0.09910  0.45430  0.04430  Biso   1.000  H
  C102     1.0000 0.03481  0.43271  0.05976  Biso   1.000  C
  C103     1.0000 0.00230  0.40460  0.08121  Biso   1.000  C
  H48      1.0000 0.97370  0.40280  0.08190  Biso   1.000  H
  C104     1.0000 0.82810  0.21140  0.15244  Biso   1.000  C
  H49      1.0000 0.84480  0.22780  0.13500  Biso   1.000  H
  C105     1.0000 0.93280  0.31560  0.23437  Biso   1.000  C
  H50      1.0000 0.95480  0.33750  0.22120  Biso   1.000  H
  C106     1.0000 0.89130  0.27430  0.22590  Biso   1.000  C
  C107     1.0000 0.02340  0.45890  0.03690  Biso   1.000  C
  C108     1.0000 0.12840  0.41090  0.07820  Biso   1.000  C
  C109     1.0000 0.91380  0.29260  0.16932  Biso   1.000  C
  C110     1.0000 0.91780  0.33420  0.16129  Biso   1.000  C
  H51      1.0000 0.89890  0.34380  0.17070  Biso   1.000  H
  C111     1.0000 0.94980  0.36180  0.13940  Biso   1.000  C
  H52      1.0000 0.95240  0.38990  0.13390  Biso   1.000  H
  C112     1.0000 0.97760  0.34760  0.12547  Biso   1.000  C
  C113     1.0000 0.97360  0.30590  0.13351  Biso   1.000  C
  H53      1.0000 0.99240  0.29630  0.12410  Biso   1.000  H
  C114     1.0000 0.94169  0.27839  0.15543  Biso   1.000  C
  H54      1.0000 0.93900  0.25020  0.16090  Biso   1.000  H
  O25      1.0000 0.46784  0.45037  0.46160  Biso   1.000  O
  O26      1.0000 0.43080  0.48650  0.47952  Biso   1.000  O
  O27      1.0000 0.27730  0.43650  0.44039  Biso   1.000  O
  O28      1.0000 0.24980  0.38700  0.40242  Biso   1.000  O
  C115     1.0000 0.38260  0.26200  0.30490  Biso   1.000  C
  C116     1.0000 0.38400  0.22460  0.31500  Biso   1.000  C
  C117     1.0000 0.36690  0.37911  0.39834  Biso   1.000  C
  C118     1.0000 0.32710  0.38170  0.39933  Biso   1.000  C
  H55      1.0000 0.30320  0.36450  0.38550  Biso   1.000  H
  C119     1.0000 0.32280  0.40980  0.42078  Biso   1.000  C
  C120     1.0000 0.35820  0.43533  0.44123  Biso   1.000  C
  H56      1.0000 0.35520  0.45430  0.45570  Biso   1.000  H
  C121     1.0000 0.39790  0.43271  0.44024  Biso   1.000  C
  C122     1.0000 0.40230  0.40460  0.41879  Biso   1.000  C
  H57      1.0000 0.42910  0.40280  0.41810  Biso   1.000  H
  C123     1.0000 0.38330  0.21140  0.34756  Biso   1.000  C
  H58      1.0000 0.38300  0.22780  0.36500  Biso   1.000  H
  C124     1.0000 0.38280  0.31560  0.26563  Biso   1.000  C
  H59      1.0000 0.38270  0.33750  0.27880  Biso   1.000  H
  C125     1.0000 0.38300  0.27430  0.27410  Biso   1.000  C
  C126     1.0000 0.43550  0.45890  0.46310  Biso   1.000  C
  C127     1.0000 0.28250  0.41090  0.42180  Biso   1.000  C
  C128     1.0000 0.37880  0.29260  0.33068  Biso   1.000  C
  C129     1.0000 0.41640  0.33420  0.33871  Biso   1.000  C
  H60      1.0000 0.44490  0.34380  0.32930  Biso   1.000  H
  C130     1.0000 0.41200  0.36180  0.36060  Biso   1.000  C
  H61      1.0000 0.43750  0.38990  0.36610  Biso   1.000  H
  C131     1.0000 0.37000  0.34760  0.37453  Biso   1.000  C
  C132     1.0000 0.33230  0.30590  0.36649  Biso   1.000  C
  H62      1.0000 0.30390  0.29630  0.37590  Biso   1.000  H
  C133     1.0000 0.33670  0.27839  0.34457  Biso   1.000  C
  H63      1.0000 0.31120  0.25020  0.33910  Biso   1.000  H
  O29      1.0000 0.98253  0.53216  0.46160  Biso   1.000  O
  O30      1.0000 0.05570  0.56920  0.47952  Biso   1.000  O
  O31      1.0000 0.15920  0.72270  0.44039  Biso   1.000  O
  O32      1.0000 0.13720  0.75020  0.40242  Biso   1.000  O
  C134     1.0000 0.87940  0.61740  0.30490  Biso   1.000  C
  C135     1.0000 0.84060  0.61600  0.31500  Biso   1.000  C
  C136     1.0000 0.01221  0.63310  0.39834  Biso   1.000  C
  C137     1.0000 0.05460  0.67290  0.39933  Biso   1.000  C
  H64      1.0000 0.06130  0.69680  0.38550  Biso   1.000  H
  C138     1.0000 0.08700  0.67720  0.42078  Biso   1.000  C
  C139     1.0000 0.07713  0.64180  0.44123  Biso   1.000  C
  H65      1.0000 0.09910  0.64480  0.45570  Biso   1.000  H
  C140     1.0000 0.03481  0.60210  0.44024  Biso   1.000  C
  C141     1.0000 0.00230  0.59770  0.41879  Biso   1.000  C
  H66      1.0000 0.97370  0.57090  0.41810  Biso   1.000  H
  C142     1.0000 0.82810  0.61670  0.34756  Biso   1.000  C
  H67      1.0000 0.84480  0.61700  0.36500  Biso   1.000  H
  C143     1.0000 0.93280  0.61720  0.26563  Biso   1.000  C
  H68      1.0000 0.95480  0.61730  0.27880  Biso   1.000  H
  C144     1.0000 0.89130  0.61700  0.27410  Biso   1.000  C
  C145     1.0000 0.02340  0.56450  0.46310  Biso   1.000  C
  C146     1.0000 0.12840  0.71750  0.42180  Biso   1.000  C
  C147     1.0000 0.91380  0.62120  0.33068  Biso   1.000  C
  C148     1.0000 0.91780  0.58360  0.33871  Biso   1.000  C
  H69      1.0000 0.89890  0.55510  0.32930  Biso   1.000  H
  C149     1.0000 0.94980  0.58800  0.36060  Biso   1.000  C
  H70      1.0000 0.95240  0.56250  0.36610  Biso   1.000  H
  C150     1.0000 0.97760  0.63000  0.37453  Biso   1.000  C
  C151     1.0000 0.97360  0.66770  0.36649  Biso   1.000  C
  H71      1.0000 0.99240  0.69610  0.37590  Biso   1.000  H
  C152     1.0000 0.94169  0.66330  0.34457  Biso   1.000  C
  H72      1.0000 0.93900  0.68880  0.33910  Biso   1.000  H
  O33      1.0000 0.54963  0.01747  0.46160  Biso   1.000  O
  O34      1.0000 0.51350  0.94430  0.47952  Biso   1.000  O
  O35      1.0000 0.56350  0.84080  0.44039  Biso   1.000  O
  O36      1.0000 0.61300  0.86280  0.40242  Biso   1.000  O
  C153     1.0000 0.73800  0.12060  0.30490  Biso   1.000  C
  C154     1.0000 0.77540  0.15940  0.31500  Biso   1.000  C
  C155     1.0000 0.62089  0.98779  0.39834  Biso   1.000  C
  C156     1.0000 0.61830  0.94540  0.39933  Biso   1.000  C
  H73      1.0000 0.63550  0.93870  0.38550  Biso   1.000  H
  C157     1.0000 0.59020  0.91300  0.42078  Biso   1.000  C
  C158     1.0000 0.56467  0.92287  0.44123  Biso   1.000  C
  H74      1.0000 0.54570  0.90090  0.45570  Biso   1.000  H
  C159     1.0000 0.56729  0.96519  0.44024  Biso   1.000  C
  C160     1.0000 0.59540  0.99770  0.41879  Biso   1.000  C
  H75      1.0000 0.59720  0.02630  0.41810  Biso   1.000  H
  C161     1.0000 0.78860  0.17190  0.34756  Biso   1.000  C
  H76      1.0000 0.77220  0.15520  0.36500  Biso   1.000  H
  C162     1.0000 0.68440  0.06720  0.26563  Biso   1.000  C
  H77      1.0000 0.66250  0.04520  0.27880  Biso   1.000  H
  C163     1.0000 0.72570  0.10870  0.27410  Biso   1.000  C
  C164     1.0000 0.54110  0.97660  0.46310  Biso   1.000  C
  C165     1.0000 0.58910  0.87160  0.42180  Biso   1.000  C
  C166     1.0000 0.70740  0.08620  0.33068  Biso   1.000  C
  C167     1.0000 0.66580  0.08220  0.33871  Biso   1.000  C
  H78      1.0000 0.65620  0.10110  0.32930  Biso   1.000  H
  C168     1.0000 0.63820  0.05020  0.36060  Biso   1.000  C
  H79      1.0000 0.61010  0.04760  0.36610  Biso   1.000  H
  C169     1.0000 0.65240  0.02240  0.37453  Biso   1.000  C
  C170     1.0000 0.69410  0.02640  0.36649  Biso   1.000  C
  H80      1.0000 0.70370  0.00760  0.37590  Biso   1.000  H
  C171     1.0000 0.72161  0.05831  0.34457  Biso   1.000  C
  H81      1.0000 0.74980  0.06100  0.33910  Biso   1.000  H
  O37      1.0000 0.53216  0.54963  0.96160  Biso   1.000  O
  O38      1.0000 0.56920  0.51350  0.97952  Biso   1.000  O
  O39      1.0000 0.72270  0.56350  0.94039  Biso   1.000  O
  O40      1.0000 0.75020  0.61300  0.90242  Biso   1.000  O
  C172     1.0000 0.61740  0.73800  0.80490  Biso   1.000  C
  C173     1.0000 0.61600  0.77540  0.81500  Biso   1.000  C
  C174     1.0000 0.63310  0.62089  0.89834  Biso   1.000  C
  C175     1.0000 0.67290  0.61830  0.89933  Biso   1.000  C
  H82      1.0000 0.69680  0.63550  0.88550  Biso   1.000  H
  C176     1.0000 0.67720  0.59020  0.92078  Biso   1.000  C
  C177     1.0000 0.64180  0.56467  0.94123  Biso   1.000  C
  H83      1.0000 0.64480  0.54570  0.95570  Biso   1.000  H
  C178     1.0000 0.60210  0.56729  0.94024  Biso   1.000  C
  C179     1.0000 0.59770  0.59540  0.91879  Biso   1.000  C
  H84      1.0000 0.57090  0.59720  0.91810  Biso   1.000  H
  C180     1.0000 0.61670  0.78860  0.84756  Biso   1.000  C
  H85      1.0000 0.61700  0.77220  0.86500  Biso   1.000  H
  C181     1.0000 0.61720  0.68440  0.76563  Biso   1.000  C
  H86      1.0000 0.61730  0.66250  0.77880  Biso   1.000  H
  C182     1.0000 0.61700  0.72570  0.77410  Biso   1.000  C
  C183     1.0000 0.56450  0.54110  0.96310  Biso   1.000  C
  C184     1.0000 0.71750  0.58910  0.92180  Biso   1.000  C
  C185     1.0000 0.62120  0.70740  0.83068  Biso   1.000  C
  C186     1.0000 0.58360  0.66580  0.83871  Biso   1.000  C
  H87      1.0000 0.55510  0.65620  0.82930  Biso   1.000  H
  C187     1.0000 0.58800  0.63820  0.86060  Biso   1.000  C
  H88      1.0000 0.56250  0.61010  0.86610  Biso   1.000  H
  C188     1.0000 0.63000  0.65240  0.87453  Biso   1.000  C
  C189     1.0000 0.66770  0.69410  0.86649  Biso   1.000  C
  H89      1.0000 0.69610  0.70370  0.87590  Biso   1.000  H
  C190     1.0000 0.66330  0.72161  0.84457  Biso   1.000  C
  H90      1.0000 0.68880  0.74980  0.83910  Biso   1.000  H
  O41      1.0000 0.01747  0.46784  0.96160  Biso   1.000  O
  O42      1.0000 0.94430  0.43080  0.97952  Biso   1.000  O
  O43      1.0000 0.84080  0.27730  0.94039  Biso   1.000  O
  O44      1.0000 0.86280  0.24980  0.90242  Biso   1.000  O
  C191     1.0000 0.12060  0.38260  0.80490  Biso   1.000  C
  C192     1.0000 0.15940  0.38400  0.81500  Biso   1.000  C
  C193     1.0000 0.98779  0.36690  0.89834  Biso   1.000  C
  C194     1.0000 0.94540  0.32710  0.89933  Biso   1.000  C
  H91      1.0000 0.93870  0.30320  0.88550  Biso   1.000  H
  C195     1.0000 0.91300  0.32280  0.92078  Biso   1.000  C
  C196     1.0000 0.92287  0.35820  0.94123  Biso   1.000  C
  H92      1.0000 0.90090  0.35520  0.95570  Biso   1.000  H
  C197     1.0000 0.96519  0.39790  0.94024  Biso   1.000  C
  C198     1.0000 0.99770  0.40230  0.91879  Biso   1.000  C
  H93      1.0000 0.02630  0.42910  0.91810  Biso   1.000  H
  C199     1.0000 0.17190  0.38330  0.84756  Biso   1.000  C
  H94      1.0000 0.15520  0.38300  0.86500  Biso   1.000  H
  C200     1.0000 0.06720  0.38280  0.76563  Biso   1.000  C
  H95      1.0000 0.04520  0.38270  0.77880  Biso   1.000  H
  C201     1.0000 0.10870  0.38300  0.77410  Biso   1.000  C
  C202     1.0000 0.97660  0.43550  0.96310  Biso   1.000  C
  C203     1.0000 0.87160  0.28250  0.92180  Biso   1.000  C
  C204     1.0000 0.08620  0.37880  0.83068  Biso   1.000  C
  C205     1.0000 0.08220  0.41640  0.83871  Biso   1.000  C
  H96      1.0000 0.10110  0.44490  0.82930  Biso   1.000  H
  C206     1.0000 0.05020  0.41200  0.86060  Biso   1.000  C
  H97      1.0000 0.04760  0.43750  0.86610  Biso   1.000  H
  C207     1.0000 0.02240  0.37000  0.87453  Biso   1.000  C
  C208     1.0000 0.02640  0.33230  0.86649  Biso   1.000  C
  H98      1.0000 0.00760  0.30390  0.87590  Biso   1.000  H
  C209     1.0000 0.05831  0.33670  0.84457  Biso   1.000  C
  H99      1.0000 0.06100  0.31120  0.83910  Biso   1.000  H
  O45      1.0000 0.45037  0.98253  0.96160  Biso   1.000  O
  O46      1.0000 0.48650  0.05570  0.97952  Biso   1.000  O
  O47      1.0000 0.43650  0.15920  0.94039  Biso   1.000  O
  O48      1.0000 0.38700  0.13720  0.90242  Biso   1.000  O
  C210     1.0000 0.26200  0.87940  0.80490  Biso   1.000  C
  C211     1.0000 0.22460  0.84060  0.81500  Biso   1.000  C
  C212     1.0000 0.37911  0.01221  0.89834  Biso   1.000  C
  C213     1.0000 0.38170  0.05460  0.89933  Biso   1.000  C
  H100     1.0000 0.36450  0.06130  0.88550  Biso   1.000  H
  C214     1.0000 0.40980  0.08700  0.92078  Biso   1.000  C
  C215     1.0000 0.43533  0.07713  0.94123  Biso   1.000  C
  H101     1.0000 0.45430  0.09910  0.95570  Biso   1.000  H
  C216     1.0000 0.43271  0.03481  0.94024  Biso   1.000  C
  C217     1.0000 0.40460  0.00230  0.91879  Biso   1.000  C
  H102     1.0000 0.40280  0.97370  0.91810  Biso   1.000  H
  C218     1.0000 0.21140  0.82810  0.84756  Biso   1.000  C
  H103     1.0000 0.22780  0.84480  0.86500  Biso   1.000  H
  C219     1.0000 0.31560  0.93280  0.76563  Biso   1.000  C
  H104     1.0000 0.33750  0.95480  0.77880  Biso   1.000  H
  C220     1.0000 0.27430  0.89130  0.77410  Biso   1.000  C
  C221     1.0000 0.45890  0.02340  0.96310  Biso   1.000  C
  C222     1.0000 0.41090  0.12840  0.92180  Biso   1.000  C
  C223     1.0000 0.29260  0.91380  0.83068  Biso   1.000  C
  C224     1.0000 0.33420  0.91780  0.83871  Biso   1.000  C
  H105     1.0000 0.34380  0.89890  0.82930  Biso   1.000  H
  C225     1.0000 0.36180  0.94980  0.86060  Biso   1.000  C
  H106     1.0000 0.38990  0.95240  0.86610  Biso   1.000  H
  C226     1.0000 0.34760  0.97760  0.87453  Biso   1.000  C
  C227     1.0000 0.30590  0.97360  0.86649  Biso   1.000  C
  H107     1.0000 0.29630  0.99240  0.87590  Biso   1.000  H
  C228     1.0000 0.27839  0.94169  0.84457  Biso   1.000  C
  H108     1.0000 0.25020  0.93900  0.83910  Biso   1.000  H
  O49      1.0000 0.54963  0.53216  0.46160  Biso   1.000  O
  O50      1.0000 0.51350  0.56920  0.47952  Biso   1.000  O
  O51      1.0000 0.56350  0.72270  0.44039  Biso   1.000  O
  O52      1.0000 0.61300  0.75020  0.40242  Biso   1.000  O
  C229     1.0000 0.73800  0.61740  0.30490  Biso   1.000  C
  C230     1.0000 0.77540  0.61600  0.31500  Biso   1.000  C
  C231     1.0000 0.62089  0.63310  0.39834  Biso   1.000  C
  C232     1.0000 0.61830  0.67290  0.39933  Biso   1.000  C
  H109     1.0000 0.63550  0.69680  0.38550  Biso   1.000  H
  C233     1.0000 0.59020  0.67720  0.42078  Biso   1.000  C
  C234     1.0000 0.56467  0.64180  0.44123  Biso   1.000  C
  H110     1.0000 0.54570  0.64480  0.45570  Biso   1.000  H
  C235     1.0000 0.56729  0.60210  0.44024  Biso   1.000  C
  C236     1.0000 0.59540  0.59770  0.41879  Biso   1.000  C
  H111     1.0000 0.59720  0.57090  0.41810  Biso   1.000  H
  C237     1.0000 0.78860  0.61670  0.34756  Biso   1.000  C
  H112     1.0000 0.77220  0.61700  0.36500  Biso   1.000  H
  C238     1.0000 0.68440  0.61720  0.26563  Biso   1.000  C
  H113     1.0000 0.66250  0.61730  0.27880  Biso   1.000  H
  C239     1.0000 0.72570  0.61700  0.27410  Biso   1.000  C
  C240     1.0000 0.54110  0.56450  0.46310  Biso   1.000  C
  C241     1.0000 0.58910  0.71750  0.42180  Biso   1.000  C
  C242     1.0000 0.70740  0.62120  0.33068  Biso   1.000  C
  C243     1.0000 0.66580  0.58360  0.33871  Biso   1.000  C
  H114     1.0000 0.65620  0.55510  0.32930  Biso   1.000  H
  C244     1.0000 0.63820  0.58800  0.36060  Biso   1.000  C
  H115     1.0000 0.61010  0.56250  0.36610  Biso   1.000  H
  C245     1.0000 0.65240  0.63000  0.37453  Biso   1.000  C
  C246     1.0000 0.69410  0.66770  0.36649  Biso   1.000  C
  H116     1.0000 0.70370  0.69610  0.37590  Biso   1.000  H
  C247     1.0000 0.72161  0.66330  0.34457  Biso   1.000  C
  H117     1.0000 0.74980  0.68880  0.33910  Biso   1.000  H
  O53      1.0000 0.46784  0.01747  0.46160  Biso   1.000  O
  O54      1.0000 0.43080  0.94430  0.47952  Biso   1.000  O
  O55      1.0000 0.27730  0.84080  0.44039  Biso   1.000  O
  O56      1.0000 0.24980  0.86280  0.40242  Biso   1.000  O
  C248     1.0000 0.38260  0.12060  0.30490  Biso   1.000  C
  C249     1.0000 0.38400  0.15940  0.31500  Biso   1.000  C
  C250     1.0000 0.36690  0.98779  0.39834  Biso   1.000  C
  C251     1.0000 0.32710  0.94540  0.39933  Biso   1.000  C
  H118     1.0000 0.30320  0.93870  0.38550  Biso   1.000  H
  C252     1.0000 0.32280  0.91300  0.42078  Biso   1.000  C
  C253     1.0000 0.35820  0.92287  0.44123  Biso   1.000  C
  H119     1.0000 0.35520  0.90090  0.45570  Biso   1.000  H
  C254     1.0000 0.39790  0.96519  0.44024  Biso   1.000  C
  C255     1.0000 0.40230  0.99770  0.41879  Biso   1.000  C
  H120     1.0000 0.42910  0.02630  0.41810  Biso   1.000  H
  C256     1.0000 0.38330  0.17190  0.34756  Biso   1.000  C
  H121     1.0000 0.38300  0.15520  0.36500  Biso   1.000  H
  C257     1.0000 0.38280  0.06720  0.26563  Biso   1.000  C
  H122     1.0000 0.38270  0.04520  0.27880  Biso   1.000  H
  C258     1.0000 0.38300  0.10870  0.27410  Biso   1.000  C
  C259     1.0000 0.43550  0.97660  0.46310  Biso   1.000  C
  C260     1.0000 0.28250  0.87160  0.42180  Biso   1.000  C
  C261     1.0000 0.37880  0.08620  0.33068  Biso   1.000  C
  C262     1.0000 0.41640  0.08220  0.33871  Biso   1.000  C
  H123     1.0000 0.44490  0.10110  0.32930  Biso   1.000  H
  C263     1.0000 0.41200  0.05020  0.36060  Biso   1.000  C
  H124     1.0000 0.43750  0.04760  0.36610  Biso   1.000  H
  C264     1.0000 0.37000  0.02240  0.37453  Biso   1.000  C
  C265     1.0000 0.33230  0.02640  0.36649  Biso   1.000  C
  H125     1.0000 0.30390  0.00760  0.37590  Biso   1.000  H
  C266     1.0000 0.33670  0.05831  0.34457  Biso   1.000  C
  H126     1.0000 0.31120  0.06100  0.33910  Biso   1.000  H
  O57      1.0000 0.98253  0.45037  0.46160  Biso   1.000  O
  O58      1.0000 0.05570  0.48650  0.47952  Biso   1.000  O
  O59      1.0000 0.15920  0.43650  0.44039  Biso   1.000  O
  O60      1.0000 0.13720  0.38700  0.40242  Biso   1.000  O
  C267     1.0000 0.87940  0.26200  0.30490  Biso   1.000  C
  C268     1.0000 0.84060  0.22460  0.31500  Biso   1.000  C
  C269     1.0000 0.01221  0.37911  0.39834  Biso   1.000  C
  C270     1.0000 0.05460  0.38170  0.39933  Biso   1.000  C
  H127     1.0000 0.06130  0.36450  0.38550  Biso   1.000  H
  C271     1.0000 0.08700  0.40980  0.42078  Biso   1.000  C
  C272     1.0000 0.07713  0.43533  0.44123  Biso   1.000  C
  H128     1.0000 0.09910  0.45430  0.45570  Biso   1.000  H
  C273     1.0000 0.03481  0.43271  0.44024  Biso   1.000  C
  C274     1.0000 0.00230  0.40460  0.41879  Biso   1.000  C
  H129     1.0000 0.97370  0.40280  0.41810  Biso   1.000  H
  C275     1.0000 0.82810  0.21140  0.34756  Biso   1.000  C
  H130     1.0000 0.84480  0.22780  0.36500  Biso   1.000  H
  C276     1.0000 0.93280  0.31560  0.26563  Biso   1.000  C
  H131     1.0000 0.95480  0.33750  0.27880  Biso   1.000  H
  C277     1.0000 0.89130  0.27430  0.27410  Biso   1.000  C
  C278     1.0000 0.02340  0.45890  0.46310  Biso   1.000  C
  C279     1.0000 0.12840  0.41090  0.42180  Biso   1.000  C
  C280     1.0000 0.91380  0.29260  0.33068  Biso   1.000  C
  C281     1.0000 0.91780  0.33420  0.33871  Biso   1.000  C
  H132     1.0000 0.89890  0.34380  0.32930  Biso   1.000  H
  C282     1.0000 0.94980  0.36180  0.36060  Biso   1.000  C
  H133     1.0000 0.95240  0.38990  0.36610  Biso   1.000  H
  C283     1.0000 0.97760  0.34760  0.37453  Biso   1.000  C
  C284     1.0000 0.97360  0.30590  0.36649  Biso   1.000  C
  H134     1.0000 0.99240  0.29630  0.37590  Biso   1.000  H
  C285     1.0000 0.94169  0.27839  0.34457  Biso   1.000  C
  H135     1.0000 0.93900  0.25020  0.33910  Biso   1.000  H
  O61      1.0000 0.45037  0.46784  0.96160  Biso   1.000  O
  O62      1.0000 0.48650  0.43080  0.97952  Biso   1.000  O
  O63      1.0000 0.43650  0.27730  0.94039  Biso   1.000  O
  O64      1.0000 0.38700  0.24980  0.90242  Biso   1.000  O
  C286     1.0000 0.26200  0.38260  0.80490  Biso   1.000  C
  C287     1.0000 0.22460  0.38400  0.81500  Biso   1.000  C
  C288     1.0000 0.37911  0.36690  0.89834  Biso   1.000  C
  C289     1.0000 0.38170  0.32710  0.89933  Biso   1.000  C
  H136     1.0000 0.36450  0.30320  0.88550  Biso   1.000  H
  C290     1.0000 0.40980  0.32280  0.92078  Biso   1.000  C
  C291     1.0000 0.43533  0.35820  0.94123  Biso   1.000  C
  H137     1.0000 0.45430  0.35520  0.95570  Biso   1.000  H
  C292     1.0000 0.43271  0.39790  0.94024  Biso   1.000  C
  C293     1.0000 0.40460  0.40230  0.91879  Biso   1.000  C
  H138     1.0000 0.40280  0.42910  0.91810  Biso   1.000  H
  C294     1.0000 0.21140  0.38330  0.84756  Biso   1.000  C
  H139     1.0000 0.22780  0.38300  0.86500  Biso   1.000  H
  C295     1.0000 0.31560  0.38280  0.76563  Biso   1.000  C
  H140     1.0000 0.33750  0.38270  0.77880  Biso   1.000  H
  C296     1.0000 0.27430  0.38300  0.77410  Biso   1.000  C
  C297     1.0000 0.45890  0.43550  0.96310  Biso   1.000  C
  C298     1.0000 0.41090  0.28250  0.92180  Biso   1.000  C
  C299     1.0000 0.29260  0.37880  0.83068  Biso   1.000  C
  C300     1.0000 0.33420  0.41640  0.83871  Biso   1.000  C
  H141     1.0000 0.34380  0.44490  0.82930  Biso   1.000  H
  C301     1.0000 0.36180  0.41200  0.86060  Biso   1.000  C
  H142     1.0000 0.38990  0.43750  0.86610  Biso   1.000  H
  C302     1.0000 0.34760  0.37000  0.87453  Biso   1.000  C
  C303     1.0000 0.30590  0.33230  0.86649  Biso   1.000  C
  H143     1.0000 0.29630  0.30390  0.87590  Biso   1.000  H
  C304     1.0000 0.27839  0.33670  0.84457  Biso   1.000  C
  H144     1.0000 0.25020  0.31120  0.83910  Biso   1.000  H
  O65      1.0000 0.53216  0.98253  0.96160  Biso   1.000  O
  O66      1.0000 0.56920  0.05570  0.97952  Biso   1.000  O
  O67      1.0000 0.72270  0.15920  0.94039  Biso   1.000  O
  O68      1.0000 0.75020  0.13720  0.90242  Biso   1.000  O
  C305     1.0000 0.61740  0.87940  0.80490  Biso   1.000  C
  C306     1.0000 0.61600  0.84060  0.81500  Biso   1.000  C
  C307     1.0000 0.63310  0.01221  0.89834  Biso   1.000  C
  C308     1.0000 0.67290  0.05460  0.89933  Biso   1.000  C
  H145     1.0000 0.69680  0.06130  0.88550  Biso   1.000  H
  C309     1.0000 0.67720  0.08700  0.92078  Biso   1.000  C
  C310     1.0000 0.64180  0.07713  0.94123  Biso   1.000  C
  H146     1.0000 0.64480  0.09910  0.95570  Biso   1.000  H
  C311     1.0000 0.60210  0.03481  0.94024  Biso   1.000  C
  C312     1.0000 0.59770  0.00230  0.91879  Biso   1.000  C
  H147     1.0000 0.57090  0.97370  0.91810  Biso   1.000  H
  C313     1.0000 0.61670  0.82810  0.84756  Biso   1.000  C
  H148     1.0000 0.61700  0.84480  0.86500  Biso   1.000  H
  C314     1.0000 0.61720  0.93280  0.76563  Biso   1.000  C
  H149     1.0000 0.61730  0.95480  0.77880  Biso   1.000  H
  C315     1.0000 0.61700  0.89130  0.77410  Biso   1.000  C
  C316     1.0000 0.56450  0.02340  0.96310  Biso   1.000  C
  C317     1.0000 0.71750  0.12840  0.92180  Biso   1.000  C
  C318     1.0000 0.62120  0.91380  0.83068  Biso   1.000  C
  C319     1.0000 0.58360  0.91780  0.83871  Biso   1.000  C
  H150     1.0000 0.55510  0.89890  0.82930  Biso   1.000  H
  C320     1.0000 0.58800  0.94980  0.86060  Biso   1.000  C
  H151     1.0000 0.56250  0.95240  0.86610  Biso   1.000  H
  C321     1.0000 0.63000  0.97760  0.87453  Biso   1.000  C
  C322     1.0000 0.66770  0.97360  0.86649  Biso   1.000  C
  H152     1.0000 0.69610  0.99240  0.87590  Biso   1.000  H
  C323     1.0000 0.66330  0.94169  0.84457  Biso   1.000  C
  H153     1.0000 0.68880  0.93900  0.83910  Biso   1.000  H
  O69      1.0000 0.01747  0.54963  0.96160  Biso   1.000  O
  O70      1.0000 0.94430  0.51350  0.97952  Biso   1.000  O
  O71      1.0000 0.84080  0.56350  0.94039  Biso   1.000  O
  O72      1.0000 0.86280  0.61300  0.90242  Biso   1.000  O
  C324     1.0000 0.12060  0.73800  0.80490  Biso   1.000  C
  C325     1.0000 0.15940  0.77540  0.81500  Biso   1.000  C
  C326     1.0000 0.98779  0.62089  0.89834  Biso   1.000  C
  C327     1.0000 0.94540  0.61830  0.89933  Biso   1.000  C
  H154     1.0000 0.93870  0.63550  0.88550  Biso   1.000  H
  C328     1.0000 0.91300  0.59020  0.92078  Biso   1.000  C
  C329     1.0000 0.92287  0.56467  0.94123  Biso   1.000  C
  H155     1.0000 0.90090  0.54570  0.95570  Biso   1.000  H
  C330     1.0000 0.96519  0.56729  0.94024  Biso   1.000  C
  C331     1.0000 0.99770  0.59540  0.91879  Biso   1.000  C
  H156     1.0000 0.02630  0.59720  0.91810  Biso   1.000  H
  C332     1.0000 0.17190  0.78860  0.84756  Biso   1.000  C
  H157     1.0000 0.15520  0.77220  0.86500  Biso   1.000  H
  C333     1.0000 0.06720  0.68440  0.76563  Biso   1.000  C
  H158     1.0000 0.04520  0.66250  0.77880  Biso   1.000  H
  C334     1.0000 0.10870  0.72570  0.77410  Biso   1.000  C
  C335     1.0000 0.97660  0.54110  0.96310  Biso   1.000  C
  C336     1.0000 0.87160  0.58910  0.92180  Biso   1.000  C
  C337     1.0000 0.08620  0.70740  0.83068  Biso   1.000  C
  C338     1.0000 0.08220  0.66580  0.83871  Biso   1.000  C
  H159     1.0000 0.10110  0.65620  0.82930  Biso   1.000  H
  C339     1.0000 0.05020  0.63820  0.86060  Biso   1.000  C
  H160     1.0000 0.04760  0.61010  0.86610  Biso   1.000  H
  C340     1.0000 0.02240  0.65240  0.87453  Biso   1.000  C
  C341     1.0000 0.02640  0.69410  0.86649  Biso   1.000  C
  H161     1.0000 0.00760  0.70370  0.87590  Biso   1.000  H
  C342     1.0000 0.05831  0.72161  0.84457  Biso   1.000  C
  H162     1.0000 0.06100  0.74980  0.83910  Biso   1.000  H
  O73      1.0000 0.53216  0.54963  0.53840  Biso   1.000  O
  O74      1.0000 0.56920  0.51350  0.52048  Biso   1.000  O
  O75      1.0000 0.72270  0.56350  0.55961  Biso   1.000  O
  O76      1.0000 0.75020  0.61300  0.59758  Biso   1.000  O
  C343     1.0000 0.61740  0.73800  0.69510  Biso   1.000  C
  C344     1.0000 0.61600  0.77540  0.68500  Biso   1.000  C
  C345     1.0000 0.63310  0.62089  0.60166  Biso   1.000  C
  C346     1.0000 0.67290  0.61830  0.60067  Biso   1.000  C
  H163     1.0000 0.69680  0.63550  0.61450  Biso   1.000  H
  C347     1.0000 0.67720  0.59020  0.57922  Biso   1.000  C
  C348     1.0000 0.64180  0.56467  0.55877  Biso   1.000  C
  H164     1.0000 0.64480  0.54570  0.54430  Biso   1.000  H
  C349     1.0000 0.60210  0.56729  0.55976  Biso   1.000  C
  C350     1.0000 0.59770  0.59540  0.58121  Biso   1.000  C
  H165     1.0000 0.57090  0.59720  0.58190  Biso   1.000  H
  C351     1.0000 0.61670  0.78860  0.65244  Biso   1.000  C
  H166     1.0000 0.61700  0.77220  0.63500  Biso   1.000  H
  C352     1.0000 0.61720  0.68440  0.73437  Biso   1.000  C
  H167     1.0000 0.61730  0.66250  0.72120  Biso   1.000  H
  C353     1.0000 0.61700  0.72570  0.72590  Biso   1.000  C
  C354     1.0000 0.56450  0.54110  0.53690  Biso   1.000  C
  C355     1.0000 0.71750  0.58910  0.57820  Biso   1.000  C
  C356     1.0000 0.62120  0.70740  0.66932  Biso   1.000  C
  C357     1.0000 0.58360  0.66580  0.66129  Biso   1.000  C
  H168     1.0000 0.55510  0.65620  0.67070  Biso   1.000  H
  C358     1.0000 0.58800  0.63820  0.63940  Biso   1.000  C
  H169     1.0000 0.56250  0.61010  0.63390  Biso   1.000  H
  C359     1.0000 0.63000  0.65240  0.62547  Biso   1.000  C
  C360     1.0000 0.66770  0.69410  0.63351  Biso   1.000  C
  H170     1.0000 0.69610  0.70370  0.62410  Biso   1.000  H
  C361     1.0000 0.66330  0.72161  0.65543  Biso   1.000  C
  H171     1.0000 0.68880  0.74980  0.66090  Biso   1.000  H
  O77      1.0000 0.01747  0.46784  0.53840  Biso   1.000  O
  O78      1.0000 0.94430  0.43080  0.52048  Biso   1.000  O
  O79      1.0000 0.84080  0.27730  0.55961  Biso   1.000  O
  O80      1.0000 0.86280  0.24980  0.59758  Biso   1.000  O
  C362     1.0000 0.12060  0.38260  0.69510  Biso   1.000  C
  C363     1.0000 0.15940  0.38400  0.68500  Biso   1.000  C
  C364     1.0000 0.98779  0.36690  0.60166  Biso   1.000  C
  C365     1.0000 0.94540  0.32710  0.60067  Biso   1.000  C
  H172     1.0000 0.93870  0.30320  0.61450  Biso   1.000  H
  C366     1.0000 0.91300  0.32280  0.57922  Biso   1.000  C
  C367     1.0000 0.92287  0.35820  0.55877  Biso   1.000  C
  H173     1.0000 0.90090  0.35520  0.54430  Biso   1.000  H
  C368     1.0000 0.96519  0.39790  0.55976  Biso   1.000  C
  C369     1.0000 0.99770  0.40230  0.58121  Biso   1.000  C
  H174     1.0000 0.02630  0.42910  0.58190  Biso   1.000  H
  C370     1.0000 0.17190  0.38330  0.65244  Biso   1.000  C
  H175     1.0000 0.15520  0.38300  0.63500  Biso   1.000  H
  C371     1.0000 0.06720  0.38280  0.73437  Biso   1.000  C
  H176     1.0000 0.04520  0.38270  0.72120  Biso   1.000  H
  C372     1.0000 0.10870  0.38300  0.72590  Biso   1.000  C
  C373     1.0000 0.97660  0.43550  0.53690  Biso   1.000  C
  C374     1.0000 0.87160  0.28250  0.57820  Biso   1.000  C
  C375     1.0000 0.08620  0.37880  0.66932  Biso   1.000  C
  C376     1.0000 0.08220  0.41640  0.66129  Biso   1.000  C
  H177     1.0000 0.10110  0.44490  0.67070  Biso   1.000  H
  C377     1.0000 0.05020  0.41200  0.63940  Biso   1.000  C
  H178     1.0000 0.04760  0.43750  0.63390  Biso   1.000  H
  C378     1.0000 0.02240  0.37000  0.62547  Biso   1.000  C
  C379     1.0000 0.02640  0.33230  0.63351  Biso   1.000  C
  H179     1.0000 0.00760  0.30390  0.62410  Biso   1.000  H
  C380     1.0000 0.05831  0.33670  0.65543  Biso   1.000  C
  H180     1.0000 0.06100  0.31120  0.66090  Biso   1.000  H
  O81      1.0000 0.45037  0.98253  0.53840  Biso   1.000  O
  O82      1.0000 0.48650  0.05570  0.52048  Biso   1.000  O
  O83      1.0000 0.43650  0.15920  0.55961  Biso   1.000  O
  O84      1.0000 0.38700  0.13720  0.59758  Biso   1.000  O
  C381     1.0000 0.26200  0.87940  0.69510  Biso   1.000  C
  C382     1.0000 0.22460  0.84060  0.68500  Biso   1.000  C
  C383     1.0000 0.37911  0.01221  0.60166  Biso   1.000  C
  C384     1.0000 0.38170  0.05460  0.60067  Biso   1.000  C
  H181     1.0000 0.36450  0.06130  0.61450  Biso   1.000  H
  C385     1.0000 0.40980  0.08700  0.57922  Biso   1.000  C
  C386     1.0000 0.43533  0.07713  0.55877  Biso   1.000  C
  H182     1.0000 0.45430  0.09910  0.54430  Biso   1.000  H
  C387     1.0000 0.43271  0.03481  0.55976  Biso   1.000  C
  C388     1.0000 0.40460  0.00230  0.58121  Biso   1.000  C
  H183     1.0000 0.40280  0.97370  0.58190  Biso   1.000  H
  C389     1.0000 0.21140  0.82810  0.65244  Biso   1.000  C
  H184     1.0000 0.22780  0.84480  0.63500  Biso   1.000  H
  C390     1.0000 0.31560  0.93280  0.73437  Biso   1.000  C
  H185     1.0000 0.33750  0.95480  0.72120  Biso   1.000  H
  C391     1.0000 0.27430  0.89130  0.72590  Biso   1.000  C
  C392     1.0000 0.45890  0.02340  0.53690  Biso   1.000  C
  C393     1.0000 0.41090  0.12840  0.57820  Biso   1.000  C
  C394     1.0000 0.29260  0.91380  0.66932  Biso   1.000  C
  C395     1.0000 0.33420  0.91780  0.66129  Biso   1.000  C
  H186     1.0000 0.34380  0.89890  0.67070  Biso   1.000  H
  C396     1.0000 0.36180  0.94980  0.63940  Biso   1.000  C
  H187     1.0000 0.38990  0.95240  0.63390  Biso   1.000  H
  C397     1.0000 0.34760  0.97760  0.62547  Biso   1.000  C
  C398     1.0000 0.30590  0.97360  0.63351  Biso   1.000  C
  H188     1.0000 0.29630  0.99240  0.62410  Biso   1.000  H
  C399     1.0000 0.27839  0.94169  0.65543  Biso   1.000  C
  H189     1.0000 0.25020  0.93900  0.66090  Biso   1.000  H
  O85      1.0000 0.46784  0.45037  0.03840  Biso   1.000  O
  O86      1.0000 0.43080  0.48650  0.02048  Biso   1.000  O
  O87      1.0000 0.27730  0.43650  0.05961  Biso   1.000  O
  O88      1.0000 0.24980  0.38700  0.09758  Biso   1.000  O
  C400     1.0000 0.38260  0.26200  0.19510  Biso   1.000  C
  C401     1.0000 0.38400  0.22460  0.18500  Biso   1.000  C
  C402     1.0000 0.36690  0.37911  0.10166  Biso   1.000  C
  C403     1.0000 0.32710  0.38170  0.10067  Biso   1.000  C
  H190     1.0000 0.30320  0.36450  0.11450  Biso   1.000  H
  C404     1.0000 0.32280  0.40980  0.07922  Biso   1.000  C
  C405     1.0000 0.35820  0.43533  0.05877  Biso   1.000  C
  H191     1.0000 0.35520  0.45430  0.04430  Biso   1.000  H
  C406     1.0000 0.39790  0.43271  0.05976  Biso   1.000  C
  C407     1.0000 0.40230  0.40460  0.08121  Biso   1.000  C
  H192     1.0000 0.42910  0.40280  0.08190  Biso   1.000  H
  C408     1.0000 0.38330  0.21140  0.15244  Biso   1.000  C
  H193     1.0000 0.38300  0.22780  0.13500  Biso   1.000  H
  C409     1.0000 0.38280  0.31560  0.23437  Biso   1.000  C
  H194     1.0000 0.38270  0.33750  0.22120  Biso   1.000  H
  C410     1.0000 0.38300  0.27430  0.22590  Biso   1.000  C
  C411     1.0000 0.43550  0.45890  0.03690  Biso   1.000  C
  C412     1.0000 0.28250  0.41090  0.07820  Biso   1.000  C
  C413     1.0000 0.37880  0.29260  0.16932  Biso   1.000  C
  C414     1.0000 0.41640  0.33420  0.16129  Biso   1.000  C
  H195     1.0000 0.44490  0.34380  0.17070  Biso   1.000  H
  C415     1.0000 0.41200  0.36180  0.13940  Biso   1.000  C
  H196     1.0000 0.43750  0.38990  0.13390  Biso   1.000  H
  C416     1.0000 0.37000  0.34760  0.12547  Biso   1.000  C
  C417     1.0000 0.33230  0.30590  0.13351  Biso   1.000  C
  H197     1.0000 0.30390  0.29630  0.12410  Biso   1.000  H
  C418     1.0000 0.33670  0.27839  0.15543  Biso   1.000  C
  H198     1.0000 0.31120  0.25020  0.16090  Biso   1.000  H
  O89      1.0000 0.98253  0.53216  0.03840  Biso   1.000  O
  O90      1.0000 0.05570  0.56920  0.02048  Biso   1.000  O
  O91      1.0000 0.15920  0.72270  0.05961  Biso   1.000  O
  O92      1.0000 0.13720  0.75020  0.09758  Biso   1.000  O
  C419     1.0000 0.87940  0.61740  0.19510  Biso   1.000  C
  C420     1.0000 0.84060  0.61600  0.18500  Biso   1.000  C
  C421     1.0000 0.01221  0.63310  0.10166  Biso   1.000  C
  C422     1.0000 0.05460  0.67290  0.10067  Biso   1.000  C
  H199     1.0000 0.06130  0.69680  0.11450  Biso   1.000  H
  C423     1.0000 0.08700  0.67720  0.07922  Biso   1.000  C
  C424     1.0000 0.07713  0.64180  0.05877  Biso   1.000  C
  H200     1.0000 0.09910  0.64480  0.04430  Biso   1.000  H
  C425     1.0000 0.03481  0.60210  0.05976  Biso   1.000  C
  C426     1.0000 0.00230  0.59770  0.08121  Biso   1.000  C
  H201     1.0000 0.97370  0.57090  0.08190  Biso   1.000  H
  C427     1.0000 0.82810  0.61670  0.15244  Biso   1.000  C
  H202     1.0000 0.84480  0.61700  0.13500  Biso   1.000  H
  C428     1.0000 0.93280  0.61720  0.23437  Biso   1.000  C
  H203     1.0000 0.95480  0.61730  0.22120  Biso   1.000  H
  C429     1.0000 0.89130  0.61700  0.22590  Biso   1.000  C
  C430     1.0000 0.02340  0.56450  0.03690  Biso   1.000  C
  C431     1.0000 0.12840  0.71750  0.07820  Biso   1.000  C
  C432     1.0000 0.91380  0.62120  0.16932  Biso   1.000  C
  C433     1.0000 0.91780  0.58360  0.16129  Biso   1.000  C
  H204     1.0000 0.89890  0.55510  0.17070  Biso   1.000  H
  C434     1.0000 0.94980  0.58800  0.13940  Biso   1.000  C
  H205     1.0000 0.95240  0.56250  0.13390  Biso   1.000  H
  C435     1.0000 0.97760  0.63000  0.12547  Biso   1.000  C
  C436     1.0000 0.97360  0.66770  0.13351  Biso   1.000  C
  H206     1.0000 0.99240  0.69610  0.12410  Biso   1.000  H
  C437     1.0000 0.94169  0.66330  0.15543  Biso   1.000  C
  H207     1.0000 0.93900  0.68880  0.16090  Biso   1.000  H
  O93      1.0000 0.54963  0.01747  0.03840  Biso   1.000  O
  O94      1.0000 0.51350  0.94430  0.02048  Biso   1.000  O
  O95      1.0000 0.56350  0.84080  0.05961  Biso   1.000  O
  O96      1.0000 0.61300  0.86280  0.09758  Biso   1.000  O
  C438     1.0000 0.73800  0.12060  0.19510  Biso   1.000  C
  C439     1.0000 0.77540  0.15940  0.18500  Biso   1.000  C
  C440     1.0000 0.62089  0.98779  0.10166  Biso   1.000  C
  C441     1.0000 0.61830  0.94540  0.10067  Biso   1.000  C
  H208     1.0000 0.63550  0.93870  0.11450  Biso   1.000  H
  C442     1.0000 0.59020  0.91300  0.07922  Biso   1.000  C
  C443     1.0000 0.56467  0.92287  0.05877  Biso   1.000  C
  H209     1.0000 0.54570  0.90090  0.04430  Biso   1.000  H
  C444     1.0000 0.56729  0.96519  0.05976  Biso   1.000  C
  C445     1.0000 0.59540  0.99770  0.08121  Biso   1.000  C
  H210     1.0000 0.59720  0.02630  0.08190  Biso   1.000  H
  C446     1.0000 0.78860  0.17190  0.15244  Biso   1.000  C
  H211     1.0000 0.77220  0.15520  0.13500  Biso   1.000  H
  C447     1.0000 0.68440  0.06720  0.23437  Biso   1.000  C
  H212     1.0000 0.66250  0.04520  0.22120  Biso   1.000  H
  C448     1.0000 0.72570  0.10870  0.22590  Biso   1.000  C
  C449     1.0000 0.54110  0.97660  0.03690  Biso   1.000  C
  C450     1.0000 0.58910  0.87160  0.07820  Biso   1.000  C
  C451     1.0000 0.70740  0.08620  0.16932  Biso   1.000  C
  C452     1.0000 0.66580  0.08220  0.16129  Biso   1.000  C
  H213     1.0000 0.65620  0.10110  0.17070  Biso   1.000  H
  C453     1.0000 0.63820  0.05020  0.13940  Biso   1.000  C
  H214     1.0000 0.61010  0.04760  0.13390  Biso   1.000  H
  C454     1.0000 0.65240  0.02240  0.12547  Biso   1.000  C
  C455     1.0000 0.69410  0.02640  0.13351  Biso   1.000  C
  H215     1.0000 0.70370  0.00760  0.12410  Biso   1.000  H
  C456     1.0000 0.72161  0.05831  0.15543  Biso   1.000  C
  H216     1.0000 0.74980  0.06100  0.16090  Biso   1.000  H
  Cu1      1.0000 0.47876  0.52124  0.51088  Biso   1.000  Cu
  Cu2      1.0000 0.47876  0.95752  0.51088  Biso   1.000  Cu
  Cu3      1.0000 0.04248  0.52124  0.51088  Biso   1.000  Cu
  Cu4      1.0000 0.52124  0.47876  0.01088  Biso   1.000  Cu
  Cu5      1.0000 0.52124  0.04248  0.01088  Biso   1.000  Cu
  Cu6      1.0000 0.95752  0.47876  0.01088  Biso   1.000  Cu
  Cu7      1.0000 0.52124  0.47876  0.48912  Biso   1.000  Cu
  Cu8      1.0000 0.95752  0.47876  0.48912  Biso   1.000  Cu
  Cu9      1.0000 0.52124  0.04248  0.48912  Biso   1.000  Cu
  Cu10     1.0000 0.47876  0.52124  0.98912  Biso   1.000  Cu
  Cu11     1.0000 0.04248  0.52124  0.98912  Biso   1.000  Cu
  Cu12     1.0000 0.47876  0.95752  0.98912  Biso   1.000  Cu
  Cu13     1.0000 0.38211  0.19105  0.59988  Biso   1.000  Cu
  Cu14     1.0000 0.44310  0.22155  0.55586  Biso   1.000  Cu
  O97      1.0000 0.43740  0.21870  0.62640  Biso   1.000  O
  O98      1.0000 0.39050  0.19525  0.52730  Biso   1.000  O
  C457     1.0000 0.35090  0.17545  0.53660  Biso   1.000  C
  H217     1.0000 0.32710  0.16355  0.52200  Biso   1.000  H
  C458     1.0000 0.47890  0.23945  0.61840  Biso   1.000  C
  H218     1.0000 0.50230  0.25115  0.63330  Biso   1.000  H
  O99      1.0000 0.34100  0.17050  0.56400  Biso   1.000  O
  O100     1.0000 0.48790  0.24395  0.59110  Biso   1.000  O
  Cu15     1.0000 0.80895  0.19105  0.59988  Biso   1.000  Cu
  Cu16     1.0000 0.77845  0.22155  0.55586  Biso   1.000  Cu
  O101     1.0000 0.78130  0.21870  0.62640  Biso   1.000  O
  O102     1.0000 0.80475  0.19525  0.52730  Biso   1.000  O
  C459     1.0000 0.82455  0.17545  0.53660  Biso   1.000  C
  H219     1.0000 0.83645  0.16355  0.52200  Biso   1.000  H
  C460     1.0000 0.76055  0.23945  0.61840  Biso   1.000  C
  H220     1.0000 0.74885  0.25115  0.63330  Biso   1.000  H
  O103     1.0000 0.82950  0.17050  0.56400  Biso   1.000  O
  O104     1.0000 0.75605  0.24395  0.59110  Biso   1.000  O
  Cu17     1.0000 0.80895  0.61789  0.59988  Biso   1.000  Cu
  Cu18     1.0000 0.77845  0.55690  0.55586  Biso   1.000  Cu
  O105     1.0000 0.78130  0.56260  0.62640  Biso   1.000  O
  O106     1.0000 0.80475  0.60950  0.52730  Biso   1.000  O
  C461     1.0000 0.82455  0.64910  0.53660  Biso   1.000  C
  H221     1.0000 0.83645  0.67290  0.52200  Biso   1.000  H
  C462     1.0000 0.76055  0.52110  0.61840  Biso   1.000  C
  H222     1.0000 0.74885  0.49770  0.63330  Biso   1.000  H
  O107     1.0000 0.82950  0.65900  0.56400  Biso   1.000  O
  O108     1.0000 0.75605  0.51210  0.59110  Biso   1.000  O
  Cu19     1.0000 0.61789  0.80895  0.09988  Biso   1.000  Cu
  Cu20     1.0000 0.55690  0.77845  0.05586  Biso   1.000  Cu
  O109     1.0000 0.56260  0.78130  0.12640  Biso   1.000  O
  O110     1.0000 0.60950  0.80475  0.02730  Biso   1.000  O
  C463     1.0000 0.64910  0.82455  0.03660  Biso   1.000  C
  H223     1.0000 0.67290  0.83645  0.02200  Biso   1.000  H
  C464     1.0000 0.52110  0.76055  0.11840  Biso   1.000  C
  H224     1.0000 0.49770  0.74885  0.13330  Biso   1.000  H
  O111     1.0000 0.65900  0.82950  0.06400  Biso   1.000  O
  O112     1.0000 0.51210  0.75605  0.09110  Biso   1.000  O
  Cu21     1.0000 0.19105  0.80894  0.09988  Biso   1.000  Cu
  Cu22     1.0000 0.22155  0.77845  0.05586  Biso   1.000  Cu
  O113     1.0000 0.21870  0.78130  0.12640  Biso   1.000  O
  O114     1.0000 0.19525  0.80475  0.02730  Biso   1.000  O
  C465     1.0000 0.17545  0.82455  0.03660  Biso   1.000  C
  H225     1.0000 0.16355  0.83645  0.02200  Biso   1.000  H
  C466     1.0000 0.23945  0.76055  0.11840  Biso   1.000  C
  H226     1.0000 0.25115  0.74885  0.13330  Biso   1.000  H
  O115     1.0000 0.17050  0.82950  0.06400  Biso   1.000  O
  O116     1.0000 0.24395  0.75605  0.09110  Biso   1.000  O
  Cu23     1.0000 0.19106  0.38211  0.09988  Biso   1.000  Cu
  Cu24     1.0000 0.22155  0.44310  0.05586  Biso   1.000  Cu
  O117     1.0000 0.21870  0.43740  0.12640  Biso   1.000  O
  O118     1.0000 0.19525  0.39050  0.02730  Biso   1.000  O
  C467     1.0000 0.17545  0.35090  0.03660  Biso   1.000  C
  H227     1.0000 0.16355  0.32710  0.02200  Biso   1.000  H
  C468     1.0000 0.23945  0.47890  0.11840  Biso   1.000  C
  H228     1.0000 0.25115  0.50230  0.13330  Biso   1.000  H
  O119     1.0000 0.17050  0.34100  0.06400  Biso   1.000  O
  O120     1.0000 0.24395  0.48790  0.09110  Biso   1.000  O
  Cu25     1.0000 0.19105  0.38211  0.40012  Biso   1.000  Cu
  Cu26     1.0000 0.22155  0.44310  0.44414  Biso   1.000  Cu
  O121     1.0000 0.21870  0.43740  0.37360  Biso   1.000  O
  O122     1.0000 0.19525  0.39050  0.47270  Biso   1.000  O
  C469     1.0000 0.17545  0.35090  0.46340  Biso   1.000  C
  H229     1.0000 0.16355  0.32710  0.47800  Biso   1.000  H
  C470     1.0000 0.23945  0.47890  0.38160  Biso   1.000  C
  H230     1.0000 0.25115  0.50230  0.36670  Biso   1.000  H
  O123     1.0000 0.17050  0.34100  0.43600  Biso   1.000  O
  O124     1.0000 0.24395  0.48790  0.40890  Biso   1.000  O
  Cu27     1.0000 0.19106  0.80895  0.40012  Biso   1.000  Cu
  Cu28     1.0000 0.22155  0.77845  0.44414  Biso   1.000  Cu
  O125     1.0000 0.21870  0.78130  0.37360  Biso   1.000  O
  O126     1.0000 0.19525  0.80475  0.47270  Biso   1.000  O
  C471     1.0000 0.17545  0.82455  0.46340  Biso   1.000  C
  H231     1.0000 0.16355  0.83645  0.47800  Biso   1.000  H
  C472     1.0000 0.23945  0.76055  0.38160  Biso   1.000  C
  H232     1.0000 0.25115  0.74885  0.36670  Biso   1.000  H
  O127     1.0000 0.17050  0.82950  0.43600  Biso   1.000  O
  O128     1.0000 0.24395  0.75605  0.40890  Biso   1.000  O
  Cu29     1.0000 0.61789  0.80894  0.40012  Biso   1.000  Cu
  Cu30     1.0000 0.55690  0.77845  0.44414  Biso   1.000  Cu
  O129     1.0000 0.56260  0.78130  0.37360  Biso   1.000  O
  O130     1.0000 0.60950  0.80475  0.47270  Biso   1.000  O
  C473     1.0000 0.64910  0.82455  0.46340  Biso   1.000  C
  H233     1.0000 0.67290  0.83645  0.47800  Biso   1.000  H
  C474     1.0000 0.52110  0.76055  0.38160  Biso   1.000  C
  H234     1.0000 0.49770  0.74885  0.36670  Biso   1.000  H
  O131     1.0000 0.65900  0.82950  0.43600  Biso   1.000  O
  O132     1.0000 0.51210  0.75605  0.40890  Biso   1.000  O
  Cu31     1.0000 0.80895  0.61789  0.90012  Biso   1.000  Cu
  Cu32     1.0000 0.77845  0.55690  0.94414  Biso   1.000  Cu
  O133     1.0000 0.78130  0.56260  0.87360  Biso   1.000  O
  O134     1.0000 0.80475  0.60950  0.97270  Biso   1.000  O
  C475     1.0000 0.82455  0.64910  0.96340  Biso   1.000  C
  H235     1.0000 0.83645  0.67290  0.97800  Biso   1.000  H
  C476     1.0000 0.76055  0.52110  0.88160  Biso   1.000  C
  H236     1.0000 0.74885  0.49770  0.86670  Biso   1.000  H
  O135     1.0000 0.82950  0.65900  0.93600  Biso   1.000  O
  O136     1.0000 0.75605  0.51210  0.90890  Biso   1.000  O
  Cu33     1.0000 0.80895  0.19105  0.90012  Biso   1.000  Cu
  Cu34     1.0000 0.77845  0.22155  0.94414  Biso   1.000  Cu
  O137     1.0000 0.78130  0.21870  0.87360  Biso   1.000  O
  O138     1.0000 0.80475  0.19525  0.97270  Biso   1.000  O
  C477     1.0000 0.82455  0.17545  0.96340  Biso   1.000  C
  H237     1.0000 0.83645  0.16355  0.97800  Biso   1.000  H
  C478     1.0000 0.76055  0.23945  0.88160  Biso   1.000  C
  H238     1.0000 0.74885  0.25115  0.86670  Biso   1.000  H
  O139     1.0000 0.82950  0.17050  0.93600  Biso   1.000  O
  O140     1.0000 0.75605  0.24395  0.90890  Biso   1.000  O
  Cu35     1.0000 0.38211  0.19105  0.90012  Biso   1.000  Cu
  Cu36     1.0000 0.44310  0.22155  0.94414  Biso   1.000  Cu
  O141     1.0000 0.43740  0.21870  0.87360  Biso   1.000  O
  O142     1.0000 0.39050  0.19525  0.97270  Biso   1.000  O
  C479     1.0000 0.35090  0.17545  0.96340  Biso   1.000  C
  H239     1.0000 0.32710  0.16355  0.97800  Biso   1.000  H
  C480     1.0000 0.47890  0.23945  0.88160  Biso   1.000  C
  H240     1.0000 0.50230  0.25115  0.86670  Biso   1.000  H
  O143     1.0000 0.34100  0.17050  0.93600  Biso   1.000  O
  O144     1.0000 0.48790  0.24395  0.90890  Biso   1.000  O
  N1       1.0000 0.19230  0.38460  0.70400  Biso   1.000  N
  N2       1.0000 0.61540  0.80770  0.70400  Biso   1.000  N
  N3       1.0000 0.19230  0.80770  0.70400  Biso   1.000  N
  N4       1.0000 0.80770  0.61540  0.20400  Biso   1.000  N
  N5       1.0000 0.38460  0.19230  0.20400  Biso   1.000  N
  N6       1.0000 0.80770  0.19230  0.20400  Biso   1.000  N
  N7       1.0000 0.38460  0.19230  0.29600  Biso   1.000  N
  N8       1.0000 0.80770  0.61540  0.29600  Biso   1.000  N
  N9       1.0000 0.80770  0.19230  0.29600  Biso   1.000  N
  N10      1.0000 0.61540  0.80770  0.79600  Biso   1.000  N
  N11      1.0000 0.19230  0.38460  0.79600  Biso   1.000  N
  N12      1.0000 0.19230  0.80770  0.79600  Biso   1.000  N
  N13      1.0000 0.25080  0.38530  0.75000  Biso   1.000  N
  N14      1.0000 0.61470  0.86550  0.75000  Biso   1.000  N
  N15      1.0000 0.13450  0.74920  0.75000  Biso   1.000  N
  N16      1.0000 0.74920  0.61470  0.25000  Biso   1.000  N
  N17      1.0000 0.38530  0.13450  0.25000  Biso   1.000  N
  N18      1.0000 0.86550  0.25080  0.25000  Biso   1.000  N
  N19      1.0000 0.38530  0.25080  0.25000  Biso   1.000  N
  N20      1.0000 0.86550  0.61470  0.25000  Biso   1.000  N
  N21      1.0000 0.74920  0.13450  0.25000  Biso   1.000  N
  N22      1.0000 0.61470  0.74920  0.75000  Biso   1.000  N
  N23      1.0000 0.13450  0.38530  0.75000  Biso   1.000  N
  N24      1.0000 0.25080  0.86550  0.75000  Biso   1.000  N
  Cu37     1.0000 0.19193  0.38385  0.75000  Biso   1.000  Cu
  Cu38     1.0000 0.61615  0.80807  0.75000  Biso   1.000  Cu
  Cu39     1.0000 0.19193  0.80807  0.75000  Biso   1.000  Cu
  Cu40     1.0000 0.80808  0.61615  0.25000  Biso   1.000  Cu
  Cu41     1.0000 0.38385  0.19193  0.25000  Biso   1.000  Cu
  Cu42     1.0000 0.80808  0.19192  0.25000  Biso   1.000  Cu
