data_BIYYEP_charged
_audit_creation_date              2015-10-16
_audit_creation_method            'Materials Studio'
_symmetry_space_group_name_H-M    'P1'
_symmetry_Int_Tables_number       1
_symmetry_cell_setting            triclinic
loop_
_symmetry_equiv_pos_as_xyz
  x,y,z
_cell_length_a                    23.9061
_cell_length_b                    24.0393
_cell_length_c                    24.5496
_cell_angle_alpha                 86.0530
_cell_angle_beta                  61.6020
_cell_angle_gamma                 61.4980
loop_
_atom_site_label
_atom_site_type_symbol
_atom_site_fract_x
_atom_site_fract_y
_atom_site_fract_z
_atom_site_U_iso_or_equiv
_atom_site_adp_type
_atom_site_occupancy
Er1    Er    0.36614   0.20400   0.84644   0.01267  Uiso   1.00
Er2    Er    0.63386   0.79600   0.15356   0.01267  Uiso   1.00
Er3    Er    0.86054   0.35529   0.70407   0.01267  Uiso   1.00
Er4    Er    0.13946   0.64471   0.29593   0.01267  Uiso   1.00
Er5    Er    0.76067   0.22430   0.25744   0.01267  Uiso   1.00
Er6    Er    0.23933   0.77570   0.74256   0.01267  Uiso   1.00
H1     H     0.93990   0.23430   0.44990   0.01267  Uiso   1.00
H2     H     0.33960   0.42930   0.36590   0.01267  Uiso   1.00
H3     H     0.09760   0.85770   0.93720   0.01267  Uiso   1.00
H4     H     0.92380   0.24470   0.23790   0.01267  Uiso   1.00
H5     H     0.76580   0.10270   0.36870   0.01267  Uiso   1.00
H6     H     0.29260   0.65640   0.02020   0.01267  Uiso   1.00
H7     H     0.22520   0.71400   0.34210   0.01267  Uiso   1.00
H8     H     0.35260   0.58740   0.18750   0.01267  Uiso   1.00
H9     H     0.54730   0.11690   0.66740   0.01267  Uiso   1.00
H10    H     0.95700   0.66490   0.44050   0.01267  Uiso   1.00
H11    H     0.12830   0.45280   0.18410   0.01267  Uiso   1.00
H12    H     0.02760   0.90610   0.86780   0.01267  Uiso   1.00
H13    H     0.17380   0.25710   0.64620   0.01267  Uiso   1.00
H14    H     0.26900   0.10750   0.91110   0.01267  Uiso   1.00
H15    H     0.71000   0.22860   0.69250   0.01267  Uiso   1.00
H16    H     0.82620   0.74290   0.35380   0.01267  Uiso   1.00
H17    H     0.89040   0.50430   0.67950   0.01267  Uiso   1.00
H18    H     0.44200   0.44280   0.34970   0.01267  Uiso   1.00
H19    H     0.58030   0.00060   0.90180   0.01267  Uiso   1.00
H20    H     0.44280   0.43520   0.17890   0.01267  Uiso   1.00
H21    H     0.06310   0.68230   0.18510   0.01267  Uiso   1.00
H22    H     0.84430   0.00830   0.39160   0.01267  Uiso   1.00
H23    H     0.33080   0.48490   0.18250   0.01267  Uiso   1.00
H24    H     0.18470   0.08970   0.99350   0.01267  Uiso   1.00
H25    H     0.43790   0.86270   0.73250   0.01267  Uiso   1.00
H26    H     0.11900   0.84530   0.02270   0.01267  Uiso   1.00
H27    H     0.60140   0.58110   0.24400   0.01267  Uiso   1.00
H28    H     0.27770   0.14910   0.78360   0.01267  Uiso   1.00
H29    H     0.08230   0.80350   0.11820   0.01267  Uiso   1.00
H30    H     0.66040   0.57070   0.63410   0.01267  Uiso   1.00
H31    H     0.33110   0.09580   0.97750   0.01267  Uiso   1.00
H32    H     0.35380   0.31110   0.05670   0.01267  Uiso   1.00
H33    H     0.22500   0.48780   0.37080   0.01267  Uiso   1.00
H34    H     0.55800   0.55720   0.65030   0.01267  Uiso   1.00
H35    H     0.96300   0.80640   0.41300   0.01267  Uiso   1.00
H36    H     0.90240   0.14230   0.06280   0.01267  Uiso   1.00
H37    H     0.87170   0.54720   0.81590   0.01267  Uiso   1.00
H38    H     0.08630   0.25360   0.62960   0.01267  Uiso   1.00
H39    H     0.41510   0.87050   0.21790   0.01267  Uiso   1.00
H40    H     0.91770   0.19650   0.88180   0.01267  Uiso   1.00
H41    H     0.70740   0.34360   0.97980   0.01267  Uiso   1.00
H42    H     0.25910   0.06110   0.78380   0.01267  Uiso   1.00
H43    H     0.32480   0.42330   0.06150   0.01267  Uiso   1.00
H44    H     0.01770   0.25610   0.15510   0.01267  Uiso   1.00
H45    H     0.02390   0.33030   0.83090   0.01267  Uiso   1.00
H46    H     0.58490   0.12950   0.78210   0.01267  Uiso   1.00
H47    H     0.42270   0.63820   0.13940   0.01267  Uiso   1.00
H48    H     0.84940   0.59570   0.91930   0.01267  Uiso   1.00
H49    H     0.17860   0.49040   0.87940   0.01267  Uiso   1.00
H50    H     0.77490   0.33240   0.12670   0.01267  Uiso   1.00
H51    H     0.02690   0.72440   0.49400   0.01267  Uiso   1.00
H52    H     0.98230   0.74390   0.84490   0.01267  Uiso   1.00
H53    H     0.73100   0.89250   0.08890   0.01267  Uiso   1.00
H54    H     0.56210   0.13730   0.26750   0.01267  Uiso   1.00
H55    H     0.89300   0.90560   0.39260   0.01267  Uiso   1.00
H56    H     0.91130   0.63980   0.17090   0.01267  Uiso   1.00
H57    H     0.76680   0.00590   0.14920   0.01267  Uiso   1.00
H58    H     0.73280   0.38160   0.54660   0.01267  Uiso   1.00
H59    H     0.09240   0.54780   0.23000   0.01267  Uiso   1.00
H60    H     0.55850   0.38790   0.34470   0.01267  Uiso   1.00
H61    H     0.68550   0.32700   0.41900   0.01267  Uiso   1.00
H62    H     0.06950   0.09990   0.04660   0.01267  Uiso   1.00
H63    H     0.95720   0.71240   0.95320   0.01267  Uiso   1.00
H64    H     0.14590   0.81080   0.28330   0.01267  Uiso   1.00
H65    H     0.89990   0.19620   0.41680   0.01267  Uiso   1.00
H66    H     0.50060   0.32660   0.88370   0.01267  Uiso   1.00
H67    H     0.13010   0.29860   0.95790   0.01267  Uiso   1.00
H68    H     0.09030   0.78940   0.21390   0.01267  Uiso   1.00
H69    H     0.08170   0.96780   0.81560   0.01267  Uiso   1.00
H70    H     0.93210   0.61240   0.52480   0.01267  Uiso   1.00
H71    H     0.59450   0.11730   0.56770   0.01267  Uiso   1.00
H72    H     0.29040   0.64600   0.11500   0.01267  Uiso   1.00
H73    H     0.83360   0.41510   0.12980   0.01267  Uiso   1.00
H74    H     0.29100   0.52480   0.10200   0.01267  Uiso   1.00
H75    H     0.18440   0.32340   0.01350   0.01267  Uiso   1.00
H76    H     0.37350   0.05630   0.05060   0.01267  Uiso   1.00
H77    H     0.43220   0.67200   0.57680   0.01267  Uiso   1.00
H78    H     0.19240   0.92020   0.86590   0.01267  Uiso   1.00
H79    H     0.47520   0.96240   0.16650   0.01267  Uiso   1.00
H80    H     0.28330   0.62930   0.52910   0.01267  Uiso   1.00
H81    H     0.06790   0.38760   0.47520   0.01267  Uiso   1.00
H82    H     0.78840   0.59790   0.07710   0.01267  Uiso   1.00
H83    H     0.56780   0.32800   0.42320   0.01267  Uiso   1.00
H84    H     0.16640   0.58490   0.87020   0.01267  Uiso   1.00
H85    H     0.43290   0.28410   0.92230   0.01267  Uiso   1.00
H86    H     0.65300   0.29260   0.16890   0.01267  Uiso   1.00
H87    H     0.64620   0.68890   0.94330   0.01267  Uiso   1.00
H88    H     0.93050   0.90010   0.95340   0.01267  Uiso   1.00
H89    H     0.86380   0.32070   0.17760   0.01267  Uiso   1.00
H90    H     0.70900   0.47520   0.89800   0.01267  Uiso   1.00
H91    H     0.64190   0.50910   0.30090   0.01267  Uiso   1.00
H92    H     0.37690   0.22390   0.99730   0.01267  Uiso   1.00
H93    H     0.77500   0.51220   0.62920   0.01267  Uiso   1.00
H94    H     0.00220   0.94590   0.21170   0.01267  Uiso   1.00
H95    H     0.52480   0.03760   0.83350   0.01267  Uiso   1.00
H96    H     0.64330   0.14500   0.36220   0.01267  Uiso   1.00
H97    H     0.93690   0.31770   0.81490   0.01267  Uiso   1.00
H98    H     0.23780   0.58170   0.38800   0.01267  Uiso   1.00
H99    H     0.04280   0.28760   0.04680   0.01267  Uiso   1.00
H100   H     0.46410   0.65990   0.82050   0.01267  Uiso   1.00
H101   H     0.91370   0.74640   0.37040   0.01267  Uiso   1.00
H102   H     0.15060   0.40430   0.08070   0.01267  Uiso   1.00
H103   H     0.06010   0.76570   0.55010   0.01267  Uiso   1.00
H104   H     0.57730   0.36180   0.86060   0.01267  Uiso   1.00
H105   H     0.53590   0.34010   0.17950   0.01267  Uiso   1.00
H106   H     0.26110   0.65690   0.94790   0.01267  Uiso   1.00
H107   H     0.33610   0.83040   0.25370   0.01267  Uiso   1.00
H108   H     0.32970   0.58800   0.66580   0.01267  Uiso   1.00
H109   H     0.97310   0.27560   0.50600   0.01267  Uiso   1.00
H110   H     0.46700   0.93160   0.75080   0.01267  Uiso   1.00
H111   H     0.53300   0.06840   0.24920   0.01267  Uiso   1.00
H112   H     0.39750   0.78850   0.74320   0.01267  Uiso   1.00
H113   H     0.97610   0.66970   0.16910   0.01267  Uiso   1.00
H114   H     0.04300   0.33510   0.55950   0.01267  Uiso   1.00
H115   H     0.18070   0.35340   0.85650   0.01267  Uiso   1.00
H116   H     0.44150   0.61210   0.65530   0.01267  Uiso   1.00
H117   H     0.88100   0.15470   0.97730   0.01267  Uiso   1.00
H118   H     0.97240   0.09390   0.13220   0.01267  Uiso   1.00
H119   H     0.07620   0.75530   0.76210   0.01267  Uiso   1.00
H120   H     0.73890   0.34310   0.05210   0.01267  Uiso   1.00
H121   H     0.03700   0.19360   0.58700   0.01267  Uiso   1.00
H122   H     0.62650   0.94370   0.94940   0.01267  Uiso   1.00
H123   H     0.86470   0.16060   0.35860   0.01267  Uiso   1.00
H124   H     0.57340   0.66760   0.20300   0.01267  Uiso   1.00
H125   H     0.77480   0.28600   0.65790   0.01267  Uiso   1.00
H126   H     0.42660   0.33240   0.79700   0.01267  Uiso   1.00
H127   H     0.22510   0.66760   0.87330   0.01267  Uiso   1.00
H128   H     0.59620   0.70050   0.28170   0.01267  Uiso   1.00
H129   H     0.92540   0.09170   0.73150   0.01267  Uiso   1.00
H130   H     0.60250   0.21150   0.25680   0.01267  Uiso   1.00
H131   H     0.67030   0.41200   0.33420   0.01267  Uiso   1.00
H132   H     0.82140   0.50960   0.12060   0.01267  Uiso   1.00
H133   H     0.86990   0.70140   0.04210   0.01267  Uiso   1.00
H134   H     0.31450   0.67300   0.58100   0.01267  Uiso   1.00
H135   H     0.48880   0.01620   0.73720   0.01267  Uiso   1.00
H136   H     0.13620   0.67930   0.82240   0.01267  Uiso   1.00
H137   H     0.23420   0.89730   0.63130   0.01267  Uiso   1.00
H138   H     0.66920   0.51510   0.81750   0.01267  Uiso   1.00
H139   H     0.26070   0.22520   0.66940   0.01267  Uiso   1.00
H140   H     0.99780   0.05410   0.78830   0.01267  Uiso   1.00
H141   H     0.08870   0.36020   0.82910   0.01267  Uiso   1.00
H142   H     0.21160   0.40210   0.92290   0.01267  Uiso   1.00
H143   H     0.29000   0.77140   0.30750   0.01267  Uiso   1.00
H144   H     0.70960   0.35400   0.88500   0.01267  Uiso   1.00
H145   H     0.66390   0.16960   0.74630   0.01267  Uiso   1.00
H146   H     0.91230   0.55790   0.59540   0.01267  Uiso   1.00
H147   H     0.90760   0.45220   0.77000   0.01267  Uiso   1.00
H148   H     0.53470   0.31090   0.52230   0.01267  Uiso   1.00
H149   H     0.56120   0.69490   0.39030   0.01267  Uiso   1.00
H150   H     0.60540   0.12750   0.46590   0.01267  Uiso   1.00
H151   H     0.13530   0.83940   0.64140   0.01267  Uiso   1.00
H152   H     0.41970   0.99940   0.09820   0.01267  Uiso   1.00
H153   H     0.81930   0.64660   0.14350   0.01267  Uiso   1.00
H154   H     0.26720   0.61840   0.45340   0.01267  Uiso   1.00
H155   H     0.90970   0.21060   0.78610   0.01267  Uiso   1.00
H156   H     0.71670   0.37070   0.47090   0.01267  Uiso   1.00
H157   H     0.65820   0.77840   0.30530   0.01267  Uiso   1.00
H158   H     0.85410   0.18920   0.71670   0.01267  Uiso   1.00
H159   H     0.72230   0.85090   0.21640   0.01267  Uiso   1.00
H160   H     0.51120   0.98380   0.26280   0.01267  Uiso   1.00
H161   H     0.07460   0.90830   0.26850   0.01267  Uiso   1.00
H162   H     0.66890   0.90420   0.02250   0.01267  Uiso   1.00
H163   H     0.62310   0.77610   0.00270   0.01267  Uiso   1.00
H164   H     0.23320   0.99410   0.85080   0.01267  Uiso   1.00
H165   H     0.76220   0.41830   0.61200   0.01267  Uiso   1.00
H166   H     0.74090   0.93890   0.21620   0.01267  Uiso   1.00
H167   H     0.15570   0.99170   0.60840   0.01267  Uiso   1.00
H168   H     0.35670   0.85500   0.63780   0.01267  Uiso   1.00
H169   H     0.46530   0.68910   0.47770   0.01267  Uiso   1.00
H170   H     0.40550   0.88270   0.43230   0.01267  Uiso   1.00
H171   H     0.80760   0.07980   0.13410   0.01267  Uiso   1.00
H172   H     0.08770   0.44210   0.40460   0.01267  Uiso   1.00
H173   H     0.43880   0.30510   0.60970   0.01267  Uiso   1.00
H174   H     0.56710   0.71590   0.07770   0.01267  Uiso   1.00
H175   H     0.39460   0.87250   0.53410   0.01267  Uiso   1.00
H176   H     0.10010   0.80380   0.58320   0.01267  Uiso   1.00
H177   H     0.73930   0.77480   0.33060   0.01267  Uiso   1.00
H178   H     0.81560   0.67660   0.98650   0.01267  Uiso   1.00
H179   H     0.39860   0.41890   0.75600   0.01267  Uiso   1.00
H180   H     0.34180   0.22160   0.69470   0.01267  Uiso   1.00
H181   H     0.45270   0.88310   0.33260   0.01267  Uiso   1.00
H182   H     0.67520   0.57670   0.93850   0.01267  Uiso   1.00
H183   H     0.10700   0.09440   0.60740   0.01267  Uiso   1.00
H184   H     0.55720   0.56480   0.82110   0.01267  Uiso   1.00
H185   H     0.34700   0.70740   0.83110   0.01267  Uiso   1.00
H186   H     0.10960   0.49570   0.32050   0.01267  Uiso   1.00
H187   H     0.91830   0.03220   0.18440   0.01267  Uiso   1.00
H188   H     0.64740   0.41260   0.81250   0.01267  Uiso   1.00
H189   H     0.35810   0.49090   0.69910   0.01267  Uiso   1.00
H190   H     0.81530   0.91030   0.00650   0.01267  Uiso   1.00
H191   H     0.40380   0.29950   0.71830   0.01267  Uiso   1.00
H192   H     0.49940   0.67340   0.11630   0.01267  Uiso   1.00
C1     C     0.13990   0.33050   0.80260   0.01267  Uiso   1.00
C2     C     0.66320   0.55770   0.67060   0.01267  Uiso   1.00
C3     C     0.62360   0.63500   0.18620   0.01267  Uiso   1.00
C4     C     0.31550   0.10560   0.77510   0.01267  Uiso   1.00
C5     C     0.56790   0.17090   0.80290   0.01267  Uiso   1.00
C6     C     0.95080   0.81580   0.90900   0.01267  Uiso   1.00
C7     C     0.52130   0.73810   0.11620   0.01267  Uiso   1.00
C8     C     0.42480   0.71310   0.56750   0.01267  Uiso   1.00
C9     C     0.38950   0.67650   0.79420   0.01267  Uiso   1.00
C10    C     0.73290   0.04840   0.17440   0.01267  Uiso   1.00
C11    C     0.52090   0.60870   0.73400   0.01267  Uiso   1.00
C12    C     0.80480   0.67240   0.18050   0.01267  Uiso   1.00
C13    C     0.77090   0.54070   0.13640   0.01267  Uiso   1.00
C14    C     0.18810   0.93090   0.66360   0.01267  Uiso   1.00
C15    C     0.36260   0.83220   0.76500   0.01267  Uiso   1.00
C16    C     0.68450   0.89440   0.22490   0.01267  Uiso   1.00
C17    C     0.18100   0.71770   0.54870   0.01267  Uiso   1.00
C18    C     0.75010   0.31470   0.94180   0.01267  Uiso   1.00
C19    C     0.55890   0.97570   0.25070   0.01267  Uiso   1.00
C20    C     0.59180   0.25590   0.80490   0.01267  Uiso   1.00
C21    C     0.78100   0.68100   0.97510   0.01267  Uiso   1.00
C22    C     0.57050   0.02570   0.24380   0.01267  Uiso   1.00
C23    C     0.22910   0.45930   0.86360   0.01267  Uiso   1.00
C24    C     0.63740   0.16780   0.23500   0.01267  Uiso   1.00
C25    C     0.19820   0.58420   0.82770   0.01267  Uiso   1.00
C26    C     0.98550   0.82580   0.38130   0.01267  Uiso   1.00
C27    C     0.04660   0.02430   0.75610   0.01267  Uiso   1.00
C28    C     0.13180   0.81650   0.93890   0.01267  Uiso   1.00
C29    C     0.38700   0.87610   0.75610   0.01267  Uiso   1.00
C30    C     0.73000   0.29960   0.41860   0.01267  Uiso   1.00
C31    C     0.29020   0.24850   0.72220   0.01267  Uiso   1.00
C32    C     0.87030   0.23940   0.82540   0.01267  Uiso   1.00
C33    C     0.03790   0.31260   0.79000   0.01267  Uiso   1.00
C34    C     0.40660   0.05040   0.00690   0.01267  Uiso   1.00
C35    C     0.04920   0.18420   0.09100   0.01267  Uiso   1.00
C36    C     0.96870   0.58740   0.48320   0.01267  Uiso   1.00
C37    C     0.69540   0.94670   0.22220   0.01267  Uiso   1.00
C38    C     0.75710   0.74940   0.29200   0.01267  Uiso   1.00
C39    C     0.39930   0.44440   0.21760   0.01267  Uiso   1.00
C40    C     0.25690   0.50990   0.11910   0.01267  Uiso   1.00
C41    C     0.24790   0.37040   0.07540   0.01267  Uiso   1.00
C42    C     0.42950   0.97430   0.75620   0.01267  Uiso   1.00
C43    C     0.61940   0.17950   0.39630   0.01267  Uiso   1.00
C44    C     0.09630   0.72660   0.51930   0.01267  Uiso   1.00
C45    C     0.82080   0.25020   0.99650   0.01267  Uiso   1.00
C46    C     0.43210   0.82910   0.19710   0.01267  Uiso   1.00
C47    C     0.14110   0.80780   0.99260   0.01267  Uiso   1.00
C48    C     0.86010   0.66950   0.19740   0.01267  Uiso   1.00
C49    C     0.20060   0.61830   0.42160   0.01267  Uiso   1.00
C50    C     0.47070   0.98400   0.08120   0.01267  Uiso   1.00
C51    C     0.24990   0.68530   0.05820   0.01267  Uiso   1.00
C52    C     0.66720   0.52380   0.77990   0.01267  Uiso   1.00
C53    C     0.16540   0.69450   0.51090   0.01267  Uiso   1.00
C54    C     0.94520   0.88400   0.36770   0.01267  Uiso   1.00
C55    C     0.94130   0.51210   0.58630   0.01267  Uiso   1.00
C56    C     0.55430   0.38110   0.30950   0.01267  Uiso   1.00
C57    C     0.48120   0.71470   0.13830   0.01267  Uiso   1.00
C58    C     0.67000   0.73780   0.98630   0.01267  Uiso   1.00
C59    C     0.90610   0.17090   0.69580   0.01267  Uiso   1.00
C60    C     0.12970   0.76060   0.17460   0.01267  Uiso   1.00
C61    C     0.55530   0.73670   0.31490   0.01267  Uiso   1.00
C62    C     0.05870   0.48790   0.41370   0.01267  Uiso   1.00
C63    C     0.64190   0.01110   0.22780   0.01267  Uiso   1.00
C64    C     0.01450   0.17420   0.61870   0.01267  Uiso   1.00
C65    C     0.24670   0.67740   0.11540   0.01267  Uiso   1.00
C66    C     0.06940   0.03030   0.69510   0.01267  Uiso   1.00
C67    C     0.97750   0.91350   0.31830   0.01267  Uiso   1.00
C68    C     0.01770   0.87320   0.86360   0.01267  Uiso   1.00
C69    C     0.79100   0.29550   0.09920   0.01267  Uiso   1.00
C70    C     0.59560   0.57410   0.73150   0.01267  Uiso   1.00
C71    C     0.12770   0.77160   0.11500   0.01267  Uiso   1.00
C72    C     0.07430   0.26710   0.67110   0.01267  Uiso   1.00
C73    C     0.22220   0.14350   0.93960   0.01267  Uiso   1.00
C74    C     0.08940   0.25050   0.02040   0.01267  Uiso   1.00
C75    C     0.48910   0.01290   0.97820   0.01267  Uiso   1.00
C76    C     0.18290   0.64100   0.79990   0.01267  Uiso   1.00
C77    C     0.70980   0.75150   0.27780   0.01267  Uiso   1.00
C78    C     0.38060   0.82050   0.60370   0.01267  Uiso   1.00
C79    C     0.53000   0.15760   0.65550   0.01267  Uiso   1.00
C80    C     0.18570   0.73950   0.05710   0.01267  Uiso   1.00
C81    C     0.22620   0.43050   0.11260   0.01267  Uiso   1.00
C82    C     0.73330   0.30080   0.69940   0.01267  Uiso   1.00
C83    C     0.44390   0.84310   0.40280   0.01267  Uiso   1.00
C84    C     0.47910   0.39130   0.26600   0.01267  Uiso   1.00
C85    C     0.55610   0.15690   0.59720   0.01267  Uiso   1.00
C86    C     0.73030   0.52320   0.66750   0.01267  Uiso   1.00
C87    C     0.33440   0.93840   0.78290   0.01267  Uiso   1.00
C88    C     0.26710   0.95160   0.82560   0.01267  Uiso   1.00
C89    C     0.45980   0.64920   0.78670   0.01267  Uiso   1.00
C90    C     0.75330   0.32260   0.88460   0.01267  Uiso   1.00
C91    C     0.04660   0.78460   0.80160   0.01267  Uiso   1.00
C92    C     0.40440   0.42590   0.26850   0.01267  Uiso   1.00
C93    C     0.75100   0.59340   0.11250   0.01267  Uiso   1.00
C94    C     0.59340   0.94960   0.99310   0.01267  Uiso   1.00
C95    C     0.99140   0.77650   0.85130   0.01267  Uiso   1.00
C96    C     0.14540   0.77410   0.58140   0.01267  Uiso   1.00
C97    C     0.75210   0.62960   0.92460   0.01267  Uiso   1.00
C98    C     0.96210   0.68740   0.21000   0.01267  Uiso   1.00
C99    C     0.02250   0.08650   0.68170   0.01267  Uiso   1.00
C100   C     0.81710   0.35900   0.20010   0.01267  Uiso   1.00
C101   C     0.30460   0.05330   0.77780   0.01267  Uiso   1.00
C102   C     0.38330   0.65460   0.18200   0.01267  Uiso   1.00
C103   C     0.44470   0.26330   0.68510   0.01267  Uiso   1.00
C104   C     0.66560   0.06160   0.21710   0.01267  Uiso   1.00
C105   C     0.16140   0.46870   0.16570   0.01267  Uiso   1.00
C106   C     0.59390   0.17000   0.45870   0.01267  Uiso   1.00
C107   C     0.86820   0.18350   0.06110   0.01267  Uiso   1.00
C108   C     0.19960   0.36860   0.06220   0.01267  Uiso   1.00
C109   C     0.17920   0.74980   0.00350   0.01267  Uiso   1.00
C110   C     0.61050   0.32350   0.20580   0.01267  Uiso   1.00
C111   C     0.24210   0.90810   0.83640   0.01267  Uiso   1.00
C112   C     0.13990   0.52350   0.19370   0.01267  Uiso   1.00
C113   C     0.44110   0.02430   0.74930   0.01267  Uiso   1.00
C114   C     0.78200   0.35900   0.53860   0.01267  Uiso   1.00
C115   C     0.26670   0.69920   0.30060   0.01267  Uiso   1.00
C116   C     0.63440   0.28890   0.77960   0.01267  Uiso   1.00
C117   C     0.85890   0.19220   0.00740   0.01267  Uiso   1.00
C118   C     0.74310   0.49010   0.88090   0.01267  Uiso   1.00
C119   C     0.83460   0.30550   0.48910   0.01267  Uiso   1.00
C120   C     0.71140   0.53120   0.18890   0.01267  Uiso   1.00
C121   C     0.37640   0.36500   0.81380   0.01267  Uiso   1.00
C122   C     0.85890   0.74320   0.03280   0.01267  Uiso   1.00
C123   C     0.33990   0.62570   0.21050   0.01267  Uiso   1.00
C124   C     0.61470   0.19550   0.78000   0.01267  Uiso   1.00
C125   C     0.44960   0.77720   0.48750   0.01267  Uiso   1.00
C126   C     0.01510   0.69360   0.21870   0.01267  Uiso   1.00
C127   C     0.80180   0.41580   0.17230   0.01267  Uiso   1.00
C128   C     0.57520   0.28690   0.43250   0.01267  Uiso   1.00
C129   C     0.96150   0.86890   0.91500   0.01267  Uiso   1.00
C130   C     0.24290   0.25060   0.70800   0.01267  Uiso   1.00
C131   C     0.87230   0.22840   0.88500   0.01267  Uiso   1.00
C132   C     0.49520   0.04340   0.87790   0.01267  Uiso   1.00
C133   C     0.83710   0.70850   0.24930   0.01267  Uiso   1.00
C134   C     0.27000   0.70040   0.58140   0.01267  Uiso   1.00
C135   C     0.81190   0.06910   0.33640   0.01267  Uiso   1.00
C136   C     0.77730   0.30300   0.05070   0.01267  Uiso   1.00
C137   C     0.47120   0.78530   0.42500   0.01267  Uiso   1.00
C138   C     0.86010   0.47650   0.80630   0.01267  Uiso   1.00
C139   C     0.51090   0.98710   0.02180   0.01267  Uiso   1.00
C140   C     0.44770   0.72350   0.50900   0.01267  Uiso   1.00
C141   C     0.75790   0.09190   0.16360   0.01267  Uiso   1.00
C142   C     0.29610   0.58660   0.70650   0.01267  Uiso   1.00
C143   C     0.07400   0.51880   0.36290   0.01267  Uiso   1.00
C144   C     0.61300   0.12390   0.24390   0.01267  Uiso   1.00
C145   C     0.26130   0.53010   0.78820   0.01267  Uiso   1.00
C146   C     0.07700   0.70330   0.48340   0.01267  Uiso   1.00
C147   C     0.10370   0.19160   0.03620   0.01267  Uiso   1.00
C148   C     0.38530   0.80450   0.22000   0.01267  Uiso   1.00
C149   C     0.66010   0.37430   0.78950   0.01267  Uiso   1.00
C150   C     0.35900   0.41650   0.79070   0.01267  Uiso   1.00
C151   C     0.25260   0.67350   0.54980   0.01267  Uiso   1.00
C152   C     0.48460   0.41040   0.31390   0.01267  Uiso   1.00
C153   C     0.73870   0.46990   0.21180   0.01267  Uiso   1.00
C154   C     0.33680   0.44230   0.32940   0.01267  Uiso   1.00
C155   C     0.79940   0.38170   0.57840   0.01267  Uiso   1.00
C156   C     0.47870   0.26190   0.88380   0.01267  Uiso   1.00
C157   C     0.61780   0.92380   0.03680   0.01267  Uiso   1.00
C158   C     0.81900   0.28230   0.45130   0.01267  Uiso   1.00
C159   C     0.21900   0.31900   0.02490   0.01267  Uiso   1.00
C160   C     0.92600   0.48120   0.63710   0.01267  Uiso   1.00
C161   C     0.24900   0.40660   0.88750   0.01267  Uiso   1.00
C162   C     0.33000   0.26220   0.01370   0.01267  Uiso   1.00
C163   C     0.03130   0.41260   0.51680   0.01267  Uiso   1.00
C164   C     0.89630   0.80840   0.96380   0.01267  Uiso   1.00
C165   C     0.30520   0.73430   0.28070   0.01267  Uiso   1.00
C166   C     0.19520   0.32760   0.81950   0.01267  Uiso   1.00
C167   C     0.53340   0.73280   0.37920   0.01267  Uiso   1.00
C168   C     0.01690   0.38090   0.56570   0.01267  Uiso   1.00
C169   C     0.85460   0.22590   0.41860   0.01267  Uiso   1.00
C170   C     0.44570   0.61890   0.69050   0.01267  Uiso   1.00
C171   C     0.33280   0.47620   0.22010   0.01267  Uiso   1.00
C172   C     0.72460   0.54880   0.90620   0.01267  Uiso   1.00
C173   C     0.22270   0.69700   0.94930   0.01267  Uiso   1.00
C174   C     0.89290   0.70630   0.25900   0.01267  Uiso   1.00
C175   C     0.68650   0.47040   0.27440   0.01267  Uiso   1.00
C176   C     0.50480   0.95660   0.12210   0.01267  Uiso   1.00
C177   C     0.31670   0.31410   0.04980   0.01267  Uiso   1.00
C178   C     0.51540   0.58960   0.68610   0.01267  Uiso   1.00
C179   C     0.16710   0.79710   0.61580   0.01267  Uiso   1.00
C180   C     0.00650   0.51720   0.47470   0.01267  Uiso   1.00
C181   C     0.82510   0.86760   0.01160   0.01267  Uiso   1.00
C182   C     0.52930   0.01600   0.91880   0.01267  Uiso   1.00
C183   C     0.40820   0.74410   0.19510   0.01267  Uiso   1.00
C184   C     0.91060   0.74950   0.97960   0.01267  Uiso   1.00
C185   C     0.31350   0.52960   0.72560   0.01267  Uiso   1.00
C186   C     0.40610   0.83000   0.54130   0.01267  Uiso   1.00
C187   C     0.74740   0.32650   0.45020   0.01267  Uiso   1.00
C188   C     0.60070   0.55560   0.78240   0.01267  Uiso   1.00
C189   C     0.95340   0.97570   0.24390   0.01267  Uiso   1.00
C190   C     0.14110   0.25680   0.96720   0.01267  Uiso   1.00
C191   C     0.54020   0.35080   0.21330   0.01267  Uiso   1.00
C192   C     0.64100   0.58350   0.20930   0.01267  Uiso   1.00
C193   C     0.46660   0.26720   0.62080   0.01267  Uiso   1.00
C194   C     0.61670   0.34540   0.81800   0.01267  Uiso   1.00
C195   C     0.05480   0.11600   0.63230   0.01267  Uiso   1.00
C196   C     0.77380   0.56950   0.88740   0.01267  Uiso   1.00
C197   C     0.52880   0.21470   0.57500   0.01267  Uiso   1.00
C198   C     0.95340   0.21540   0.19840   0.01267  Uiso   1.00
C199   C     0.86140   0.01400   0.34920   0.01267  Uiso   1.00
C200   C     0.93060   0.96970   0.30490   0.01267  Uiso   1.00
C201   C     0.55230   0.27650   0.49100   0.01267  Uiso   1.00
C202   C     0.98490   0.30640   0.78130   0.01267  Uiso   1.00
C203   C     0.77780   0.85650   0.06040   0.01267  Uiso   1.00
C204   C     0.26970   0.47680   0.33250   0.01267  Uiso   1.00
C205   C     0.03850   0.13110   0.08500   0.01267  Uiso   1.00
C206   C     0.09660   0.97190   0.77280   0.01267  Uiso   1.00
C207   C     0.47000   0.84240   0.34450   0.01267  Uiso   1.00
C208   C     0.00860   0.22350   0.14870   0.01267  Uiso   1.00
C209   C     0.38220   0.07620   0.96320   0.01267  Uiso   1.00
C210   C     0.51880   0.28530   0.86170   0.01267  Uiso   1.00
C211   C     0.92300   0.29670   0.51660   0.01267  Uiso   1.00
C212   C     0.17490   0.13240   0.98840   0.01267  Uiso   1.00
C213   C     0.20900   0.70450   0.90080   0.01267  Uiso   1.00
C214   C     0.28860   0.46880   0.81110   0.01267  Uiso   1.00
C215   C     0.83290   0.20290   0.38420   0.01267  Uiso   1.00
C216   C     0.13860   0.98600   0.65080   0.01267  Uiso   1.00
C217   C     0.16290   0.29150   0.75070   0.01267  Uiso   1.00
C218   C     0.87430   0.72940   0.31910   0.01267  Uiso   1.00
C219   C     0.83860   0.53130   0.83430   0.01267  Uiso   1.00
C220   C     0.12570   0.27060   0.68090   0.01267  Uiso   1.00
C221   C     0.70390   0.41340   0.29350   0.01267  Uiso   1.00
C222   C     0.09390   0.82910   0.30420   0.01267  Uiso   1.00
C223   C     0.99350   0.48280   0.52530   0.01267  Uiso   1.00
C224   C     0.92570   0.73290   0.32890   0.01267  Uiso   1.00
C225   C     0.94880   0.11410   0.70570   0.01267  Uiso   1.00
C226   C     0.21800   0.64100   0.46140   0.01267  Uiso   1.00
C227   C     0.98310   0.61910   0.43430   0.01267  Uiso   1.00
C228   C     0.05120   0.88590   0.29430   0.01267  Uiso   1.00
C229   C     0.90370   0.27340   0.48070   0.01267  Uiso   1.00
C230   C     0.98230   0.12680   0.13640   0.01267  Uiso   1.00
C231   C     0.27540   0.45120   0.09380   0.01267  Uiso   1.00
C232   C     0.10710   0.29370   0.74100   0.01267  Uiso   1.00
C233   C     0.90340   0.02810   0.22720   0.01267  Uiso   1.00
C234   C     0.80040   0.63140   0.93780   0.01267  Uiso   1.00
C235   C     0.81430   0.26050   0.94290   0.01267  Uiso   1.00
C236   C     0.68330   0.68590   0.95020   0.01267  Uiso   1.00
C237   C     0.36560   0.71110   0.22040   0.01267  Uiso   1.00
C238   C     0.35810   0.98890   0.77220   0.01267  Uiso   1.00
C239   C     0.55040   0.22280   0.51250   0.01267  Uiso   1.00
C240   C     0.69480   0.26570   0.71930   0.01267  Uiso   1.00
N1     N     0.96390   0.41850   0.62230   0.01267  Uiso   1.00
N2     N     0.61610   0.34230   0.25250   0.01267  Uiso   1.00
N3     N     0.71710   0.73790   0.99940   0.01267  Uiso   1.00
N4     N     0.81320   0.28940   0.82910   0.01267  Uiso   1.00
N5     N     0.42560   0.07440   0.90540   0.01267  Uiso   1.00
N6     N     0.94010   0.16960   0.19370   0.01267  Uiso   1.00
N7     N     0.67850   0.64220   0.13690   0.01267  Uiso   1.00
N8     N     0.70800   0.15080   0.19690   0.01267  Uiso   1.00
N9     N     0.93890   0.20090   0.65550   0.01267  Uiso   1.00
N10    N     0.29200   0.84920   0.80310   0.01267  Uiso   1.00
N11    N     0.05990   0.83040   0.80630   0.01267  Uiso   1.00
N12    N     0.38520   0.08880   0.75910   0.01267  Uiso   1.00
N13    N     0.28410   0.64940   0.26650   0.01267  Uiso   1.00
N14    N     0.12890   0.65070   0.43350   0.01267  Uiso   1.00
N15    N     0.76760   0.24130   0.38820   0.01267  Uiso   1.00
N16    N     0.38390   0.65770   0.74750   0.01267  Uiso   1.00
N17    N     0.79240   0.79510   0.07240   0.01267  Uiso   1.00
N18    N     0.51530   0.79490   0.30180   0.01267  Uiso   1.00
N19    N     0.98840   0.71800   0.28200   0.01267  Uiso   1.00
N20    N     0.76630   0.35940   0.25720   0.01267  Uiso   1.00
N21    N     0.87110   0.34930   0.56650   0.01267  Uiso   1.00
N22    N     0.28290   0.26210   0.00060   0.01267  Uiso   1.00
N23    N     0.48470   0.20510   0.69820   0.01267  Uiso   1.00
N24    N     0.82910   0.23320   0.10890   0.01267  Uiso   1.00
N25    N     0.18890   0.54640   0.16880   0.01267  Uiso   1.00
N26    N     0.32150   0.35780   0.86310   0.01267  Uiso   1.00
N27    N     0.23370   0.64060   0.74280   0.01267  Uiso   1.00
N28    N     0.03610   0.58150   0.37770   0.01267  Uiso   1.00
N29    N     0.61480   0.91120   0.24090   0.01267  Uiso   1.00
N30    N     0.26210   0.28750   0.77970   0.01267  Uiso   1.00
N31    N     0.16230   0.93120   0.72710   0.01267  Uiso   1.00
N32    N     0.23240   0.75870   0.61180   0.01267  Uiso   1.00
N33    N     0.01160   0.28200   0.71800   0.01267  Uiso   1.00
N34    N     0.18680   0.71060   0.17090   0.01267  Uiso   1.00
N35    N     0.81110   0.45360   0.83120   0.01267  Uiso   1.00
N36    N     0.20760   0.20490   0.92760   0.01267  Uiso   1.00
N37    N     0.73790   0.71250   0.22030   0.01267  Uiso   1.00
N38    N     0.61040   0.23370   0.38620   0.01267  Uiso   1.00
N39    N     0.26960   0.49530   0.27640   0.01267  Uiso   1.00
N40    N     0.83770   0.06880   0.27290   0.01267  Uiso   1.00
N41    N     0.71590   0.35060   0.73350   0.01267  Uiso   1.00
N42    N     0.57440   0.92560   0.09460   0.01267  Uiso   1.00
N43    N     0.50020   0.20250   0.85240   0.01267  Uiso   1.00
N44    N     0.49980   0.79750   0.14760   0.01267  Uiso   1.00
N45    N     0.38960   0.76630   0.61380   0.01267  Uiso   1.00
N46    N     0.73040   0.50470   0.72360   0.01267  Uiso   1.00
N47    N     0.06110   0.79910   0.34450   0.01267  Uiso   1.00
N48    N     0.17090   0.76680   0.89110   0.01267  Uiso   1.00
O1     O     0.80870   0.30230   0.78040   0.01267  Uiso   1.00
O2     O     0.16860   0.60320   0.19590   0.01267  Uiso   1.00
O3     O     0.89950   0.25800   0.64300   0.01267  Uiso   1.00
O4     O     0.10050   0.74200   0.35700   0.01267  Uiso   1.00
O5     O     0.94950   0.38680   0.66900   0.01267  Uiso   1.00
O6     O     0.11680   0.83310   0.75830   0.01267  Uiso   1.00
O7     O     0.60210   0.89930   0.13240   0.01267  Uiso   1.00
O8     O     0.78220   0.30560   0.28060   0.01267  Uiso   1.00
O9     O     0.46370   0.20780   0.75980   0.01267  Uiso   1.00
O10    O     0.69670   0.78330   0.04170   0.01267  Uiso   1.00
O11    O     0.68040   0.32430   0.24570   0.01267  Uiso   1.00
O12    O     0.88320   0.16690   0.24170   0.01267  Uiso   1.00
O13    O     0.74370   0.22130   0.35810   0.01267  Uiso   1.00
O14    O     0.95990   0.27560   0.71160   0.01267  Uiso   1.00
O15    O     0.64290   0.24080   0.32400   0.01267  Uiso   1.00
O16    O     0.16200   0.77070   0.84380   0.01267  Uiso   1.00
O17    O     0.83800   0.22930   0.15620   0.01267  Uiso   1.00
O18    O     0.54360   0.82040   0.12650   0.01267  Uiso   1.00
O19    O     0.35710   0.75920   0.67600   0.01267  Uiso   1.00
O20    O     0.88450   0.36870   0.60150   0.01267  Uiso   1.00
O21    O     0.31960   0.67570   0.75430   0.01267  Uiso   1.00
O22    O     0.79750   0.47000   0.71870   0.01267  Uiso   1.00
O23    O     0.60240   0.86050   0.24220   0.01267  Uiso   1.00
O24    O     0.75210   0.38190   0.70890   0.01267  Uiso   1.00
O25    O     0.66110   0.69590   0.11290   0.01267  Uiso   1.00
O26    O     0.05050   0.61320   0.33100   0.01267  Uiso   1.00
O27    O     0.20250   0.53000   0.28130   0.01267  Uiso   1.00
O28    O     0.39790   0.10070   0.86760   0.01267  Uiso   1.00
O29    O     0.45640   0.17960   0.87350   0.01267  Uiso   1.00
O30    O     0.20930   0.88250   0.74250   0.01267  Uiso   1.00
O31    O     0.39760   0.13950   0.75780   0.01267  Uiso   1.00
O32    O     0.30330   0.21670   0.95830   0.01267  Uiso   1.00
O33    O     0.11550   0.63130   0.39850   0.01267  Uiso   1.00
O34    O     0.53630   0.79220   0.24020   0.01267  Uiso   1.00
O35    O     0.79070   0.11750   0.25750   0.01267  Uiso   1.00
O36    O     0.74560   0.78930   0.12560   0.01267  Uiso   1.00
O37    O     0.25630   0.77870   0.64190   0.01267  Uiso   1.00
O38    O     0.25440   0.21070   0.87440   0.01267  Uiso   1.00
O39    O     0.33890   0.30410   0.88710   0.01267  Uiso   1.00
O40    O     0.68600   0.71870   0.20420   0.01267  Uiso   1.00
O41    O     0.83140   0.39680   0.80410   0.01267  Uiso   1.00
O42    O     0.24790   0.61810   0.29110   0.01267  Uiso   1.00
O43    O     0.21780   0.69440   0.71940   0.01267  Uiso   1.00
O44    O     0.31400   0.28130   0.79580   0.01267  Uiso   1.00
O45    O     0.73030   0.19480   0.19000   0.01267  Uiso   1.00
O46    O     0.26970   0.80520   0.81000   0.01267  Uiso   1.00
O47    O     0.04010   0.72440   0.28840   0.01267  Uiso   1.00
O48    O     0.19130   0.69770   0.21960   0.01267  Uiso   1.00
Mo1    Mo    0.73613   0.15612   0.87422   0.01267  Uiso   1.00
Mo2    Mo    0.67296   0.18865   0.02672   0.01267  Uiso   1.00
Mo3    Mo    0.74230   0.01720   0.88860   0.01267  Uiso   1.00
Mo4    Mo    0.82745   0.05493   0.93739   0.01267  Uiso   1.00
Mo5    Mo    0.58794   0.15157   0.97597   0.01267  Uiso   1.00
Mo6    Mo    0.67866   0.05034   0.03978   0.01267  Uiso   1.00
O49    O     0.75420   0.08010   0.83770   0.01267  Uiso   1.00
O50    O     0.69710   0.21850   0.95030   0.01267  Uiso   1.00
O51    O     0.91730   0.02200   0.92130   0.01267  Uiso   1.00
O52    O     0.58850   0.09660   0.04050   0.01267  Uiso   1.00
O53    O     0.77220   0.95210   0.83490   0.01267  Uiso   1.00
O54    O     0.77730   0.13600   0.99430   0.01267  Uiso   1.00
O55    O     0.83300   0.99770   0.88360   0.01267  Uiso   1.00
O56    O     0.49850   0.18650   0.99400   0.01267  Uiso   1.00
O57    O     0.66190   0.00780   0.09750   0.01267  Uiso   1.00
O58    O     0.65050   0.25020   0.07510   0.01267  Uiso   1.00
O59    O     0.82730   0.10800   0.87290   0.01267  Uiso   1.00
O60    O     0.63230   0.18420   0.90730   0.01267  Uiso   1.00
O61    O     0.78620   0.01690   0.00630   0.01267  Uiso   1.00
O62    O     0.71030   0.10240   0.95410   0.01267  Uiso   1.00
O63    O     0.66300   0.12460   0.07890   0.01267  Uiso   1.00
O64    O     0.63860   0.07110   0.91740   0.01267  Uiso   1.00
O65    O     0.58160   0.21040   0.03040   0.01267  Uiso   1.00
O66    O     0.71610   0.99030   0.96610   0.01267  Uiso   1.00
O67    O     0.75180   0.19450   0.81630   0.01267  Uiso   1.00
Mo7    Mo    0.32134   0.94966   0.96022   0.01267  Uiso   1.00
Mo8    Mo    0.17255   0.94507   0.06261   0.01267  Uiso   1.00
Mo9    Mo    0.32704   0.81135   0.97328   0.01267  Uiso   1.00
Mo10   Mo    0.41206   0.84843   0.02403   0.01267  Uiso   1.00
Mo11   Mo    0.26387   0.84388   0.12578   0.01267  Uiso   1.00
Mo12   Mo    0.25770   0.98280   0.11140   0.01267  Uiso   1.00
O68    O     0.36770   0.81580   0.09270   0.01267  Uiso   1.00
O69    O     0.33700   0.87540   0.92110   0.01267  Uiso   1.00
O70    O     0.17270   0.89200   0.12710   0.01267  Uiso   1.00
O71    O     0.24580   0.91990   0.16230   0.01267  Uiso   1.00
O72    O     0.33810   0.99220   0.90250   0.01267  Uiso   1.00
O73    O     0.21380   0.98310   0.99370   0.01267  Uiso   1.00
O74    O     0.30290   0.78150   0.04970   0.01267  Uiso   1.00
O75    O     0.50150   0.81350   0.00600   0.01267  Uiso   1.00
O76    O     0.28970   0.89760   0.04590   0.01267  Uiso   1.00
O77    O     0.41840   0.78960   0.96960   0.01267  Uiso   1.00
O78    O     0.16700   0.00230   0.11640   0.01267  Uiso   1.00
O79    O     0.34950   0.74980   0.92490   0.01267  Uiso   1.00
O80    O     0.41150   0.90340   0.95950   0.01267  Uiso   1.00
O81    O     0.22780   0.04790   0.16510   0.01267  Uiso   1.00
O82    O     0.22270   0.86400   0.00570   0.01267  Uiso   1.00
O83    O     0.28390   0.00970   0.03390   0.01267  Uiso   1.00
O84    O     0.36140   0.92890   0.08260   0.01267  Uiso   1.00
O85    O     0.24820   0.80550   0.18370   0.01267  Uiso   1.00
O86    O     0.08270   0.97800   0.07870   0.01267  Uiso   1.00
Mo13   Mo    0.05740   0.95760   0.55640   0.01267  Uiso   1.00
Mo14   Mo    0.03130   0.08060   0.48670   0.01267  Uiso   1.00
Mo15   Mo    0.96870   0.91940   0.51330   0.01267  Uiso   1.00
Mo16   Mo    0.89290   0.06340   0.59420   0.01267  Uiso   1.00
Mo17   Mo    0.94260   0.04240   0.44360   0.01267  Uiso   1.00
Mo18   Mo    0.10710   0.93660   0.40580   0.01267  Uiso   1.00
O87    O     0.13460   0.91190   0.46970   0.01267  Uiso   1.00
O88    O     0.92370   0.97190   0.46630   0.01267  Uiso   1.00
O89    O     0.02310   0.89890   0.55590   0.01267  Uiso   1.00
O90    O     0.10270   0.92360   0.59690   0.01267  Uiso   1.00
O91    O     0.11220   0.01350   0.41520   0.01267  Uiso   1.00
O92    O     0.97690   0.10110   0.44410   0.01267  Uiso   1.00
O93    O     0.05500   0.13760   0.47750   0.01267  Uiso   1.00
O94    O     0.93980   0.11540   0.56540   0.01267  Uiso   1.00
O95    O     0.81720   0.10840   0.66230   0.01267  Uiso   1.00
O96    O     0.03200   0.99000   0.38530   0.01267  Uiso   1.00
O97    O     0.86540   0.08810   0.53030   0.01267  Uiso   1.00
O98    O     0.88780   0.98650   0.58480   0.01267  Uiso   1.00
O99    O     0.94500   0.86240   0.52250   0.01267  Uiso   1.00
O100   O     0.06020   0.88460   0.43460   0.01267  Uiso   1.00
O101   O     0.00000   0.00000   0.50000   0.01267  Uiso   1.00
O102   O     0.07630   0.02810   0.53370   0.01267  Uiso   1.00
O103   O     0.89730   0.07640   0.40310   0.01267  Uiso   1.00
O104   O     0.18280   0.89160   0.33770   0.01267  Uiso   1.00
O105   O     0.96800   0.01000   0.61470   0.01267  Uiso   1.00
Mo19   Mo    0.41930   0.10850   0.53560   0.01267  Uiso   1.00
Mo20   Mo    0.45260   0.99570   0.43760   0.01267  Uiso   1.00
Mo21   Mo    0.41567   0.97992   0.58335   0.01267  Uiso   1.00
Mo22   Mo    0.58070   0.89150   0.46440   0.01267  Uiso   1.00
Mo23   Mo    0.58433   0.02008   0.41665   0.01267  Uiso   1.00
Mo24   Mo    0.54740   0.00430   0.56240   0.01267  Uiso   1.00
O106   O     0.63800   0.81140   0.43400   0.01267  Uiso   1.00
O107   O     0.63120   0.93310   0.40080   0.01267  Uiso   1.00
O108   O     0.58190   0.00690   0.60490   0.01267  Uiso   1.00
O109   O     0.46230   0.09160   0.58130   0.01267  Uiso   1.00
O110   O     0.52790   0.01980   0.38700   0.01267  Uiso   1.00
O111   O     0.47210   0.98020   0.61300   0.01267  Uiso   1.00
O112   O     0.60280   0.92020   0.51600   0.01267  Uiso   1.00
O113   O     0.64740   0.03740   0.35820   0.01267  Uiso   1.00
O114   O     0.36200   0.18860   0.56600   0.01267  Uiso   1.00
O115   O     0.35260   0.96260   0.64180   0.01267  Uiso   1.00
O116   O     0.39780   0.97740   0.51400   0.01267  Uiso   1.00
O117   O     0.50180   0.10440   0.46230   0.01267  Uiso   1.00
O118   O     0.41810   0.99310   0.39510   0.01267  Uiso   1.00
O119   O     0.39720   0.07980   0.48400   0.01267  Uiso   1.00
O120   O     0.49820   0.89560   0.53770   0.01267  Uiso   1.00
O121   O     0.36880   0.06690   0.59920   0.01267  Uiso   1.00
O122   O     0.53770   0.90840   0.41870   0.01267  Uiso   1.00
O123   O     0.60220   0.02260   0.48600   0.01267  Uiso   1.00
O124   O     0.50000   0.00000   0.50000   0.01267  Uiso   1.00
Mo25   Mo    0.75160   0.57900   0.34340   0.01267  Uiso   1.00
Mo26   Mo    0.92720   0.51600   0.29350   0.01267  Uiso   1.00
Mo27   Mo    0.73310   0.51680   0.47190   0.01267  Uiso   1.00
Mo28   Mo    0.90790   0.45600   0.42040   0.01267  Uiso   1.00
Mo29   Mo    0.80290   0.61140   0.43350   0.01267  Uiso   1.00
Mo30   Mo    0.85650   0.42230   0.33150   0.01267  Uiso   1.00
O125   O     0.88680   0.59310   0.35180   0.01267  Uiso   1.00
O126   O     0.82900   0.51750   0.38250   0.01267  Uiso   1.00
O127   O     0.87150   0.54450   0.45410   0.01267  Uiso   1.00
O128   O     0.78320   0.68040   0.47050   0.01267  Uiso   1.00
O129   O     0.69520   0.62090   0.31540   0.01267  Uiso   1.00
O130   O     0.87580   0.35350   0.29480   0.01267  Uiso   1.00
O131   O     0.78840   0.48940   0.31050   0.01267  Uiso   1.00
O132   O     0.84570   0.56560   0.27930   0.01267  Uiso   1.00
O133   O     0.81420   0.46820   0.48600   0.01267  Uiso   1.00
O134   O     0.77250   0.44040   0.41380   0.01267  Uiso   1.00
O135   O     0.74420   0.64320   0.39280   0.01267  Uiso   1.00
O136   O     0.66140   0.51720   0.53660   0.01267  Uiso   1.00
O137   O     0.91480   0.39120   0.37230   0.01267  Uiso   1.00
O138   O     0.68830   0.56570   0.42330   0.01267  Uiso   1.00
O139   O     0.72890   0.59380   0.49600   0.01267  Uiso   1.00
O140   O     0.99820   0.51670   0.22890   0.01267  Uiso   1.00
O141   O     0.96480   0.41290   0.44870   0.01267  Uiso   1.00
O142   O     0.97230   0.46770   0.34120   0.01267  Uiso   1.00
O143   O     0.93080   0.43980   0.26900   0.01267  Uiso   1.00
Mo31   Mo    0.26690   0.48320   0.52810   0.01267  Uiso   1.00
Mo32   Mo    0.19710   0.38860   0.56650   0.01267  Uiso   1.00
Mo33   Mo    0.09210   0.54400   0.57960   0.01267  Uiso   1.00
Mo34   Mo    0.07280   0.48400   0.70650   0.01267  Uiso   1.00
Mo35   Mo    0.14350   0.57770   0.66850   0.01267  Uiso   1.00
Mo36   Mo    0.24840   0.42100   0.65660   0.01267  Uiso   1.00
O144   O     0.25580   0.35680   0.60720   0.01267  Uiso   1.00
O145   O     0.31170   0.43430   0.57670   0.01267  Uiso   1.00
O146   O     0.12420   0.64650   0.70520   0.01267  Uiso   1.00
O147   O     0.03520   0.58710   0.55130   0.01267  Uiso   1.00
O148   O     0.30480   0.37910   0.68460   0.01267  Uiso   1.00
O149   O     0.27110   0.40620   0.50400   0.01267  Uiso   1.00
O150   O     0.00180   0.48330   0.77110   0.01267  Uiso   1.00
O151   O     0.21160   0.51060   0.68950   0.01267  Uiso   1.00
O152   O     0.18580   0.53180   0.51400   0.01267  Uiso   1.00
O153   O     0.06920   0.56020   0.73100   0.01267  Uiso   1.00
O154   O     0.12850   0.45550   0.54590   0.01267  Uiso   1.00
O155   O     0.11320   0.40690   0.64820   0.01267  Uiso   1.00
O156   O     0.15430   0.43440   0.72070   0.01267  Uiso   1.00
O157   O     0.22750   0.55960   0.58620   0.01267  Uiso   1.00
O158   O     0.17100   0.48250   0.61750   0.01267  Uiso   1.00
O159   O     0.08520   0.60880   0.62770   0.01267  Uiso   1.00
O160   O     0.21680   0.31960   0.52950   0.01267  Uiso   1.00
O161   O     0.02770   0.53230   0.65880   0.01267  Uiso   1.00
O162   O     0.33860   0.48280   0.46340   0.01267  Uiso   1.00
C241   C     0.87220   0.41380   0.97070   0.01267  Uiso   1.00
S1     S     0.94480   0.37250   0.99070   0.01267  Uiso   1.00
O163   O     0.93750   0.42140   0.02880   0.01267  Uiso   1.00
O164   O     0.93100   0.32440   0.02520   0.01267  Uiso   1.00
O165   O     0.01370   0.34310   0.93020   0.01267  Uiso   1.00
F1     F     0.80670   0.44410   0.02250   0.01267  Uiso   1.00
F2     F     0.88240   0.45640   0.93600   0.01267  Uiso   1.00
F3     F     0.87340   0.37150   0.93770   0.01267  Uiso   1.00
C242   C     0.12780   0.58620   0.02930   0.01267  Uiso   1.00
S2     S     0.05520   0.62750   0.00930   0.01267  Uiso   1.00
O166   O     0.98630   0.65690   0.06980   0.01267  Uiso   1.00
O167   O     0.06250   0.57860   0.97120   0.01267  Uiso   1.00
O168   O     0.06900   0.67560   0.97480   0.01267  Uiso   1.00
F4     F     0.19330   0.55590   0.97750   0.01267  Uiso   1.00
F5     F     0.12660   0.62850   0.06230   0.01267  Uiso   1.00
F6     F     0.11760   0.54360   0.06400   0.01267  Uiso   1.00
