data_image0
_cell_length_a       52.5078
_cell_length_b       52.5078
_cell_length_c       52.5078
_cell_angle_alpha    90
_cell_angle_beta     90
_cell_angle_gamma    90

_symmetry_space_group_name_H-M    "P 1"
_symmetry_int_tables_number       1

loop_
  _symmetry_equiv_pos_as_xyz
  'x, y, z'

loop_
  _atom_site_label
  _atom_site_occupancy
  _atom_site_fract_x
  _atom_site_fract_y
  _atom_site_fract_z
  _atom_site_thermal_displace_type
  _atom_site_B_iso_or_equiv
  _atom_site_type_symbol
  Cu1      1.0000 0.24970  0.14280  0.10759  Biso   1.000  Cu
  O1       1.0000 0.37024  0.02630  0.08885  Biso   1.000  O
  O2       1.0000 0.33998  0.02655  0.11847  Biso   1.000  O
  O3       1.0000 0.27755  0.09383  0.12112  Biso   1.000  O
  O4       1.0000 0.27450  0.12206  0.08950  Biso   1.000  O
  O5       1.0000 0.34302  0.12499  0.02603  Biso   1.000  O
  O6       1.0000 0.37274  0.09464  0.02602  Biso   1.000  O
  O7       1.0000 0.27773  0.15841  0.12709  Biso   1.000  O
  O8       1.0000 0.27469  0.13051  0.15889  Biso   1.000  O
  C1       1.0000 0.35042  0.03507  0.09900  Biso   1.000  C
  C2       1.0000 0.33837  0.05790  0.08689  Biso   1.000  C
  C3       1.0000 0.31702  0.06855  0.09778  Biso   1.000  C
  H1       1.0000 0.30950  0.06100  0.11240  Biso   1.000  H
  C4       1.0000 0.30652  0.09057  0.08720  Biso   1.000  C
  C5       1.0000 0.31791  0.10219  0.06637  Biso   1.000  C
  H2       1.0000 0.31090  0.11740  0.05960  Biso   1.000  H
  C6       1.0000 0.33934  0.09170  0.05543  Biso   1.000  C
  C7       1.0000 0.34972  0.06919  0.06555  Biso   1.000  C
  H3       1.0000 0.36430  0.06170  0.05800  Biso   1.000  H
  C8       1.0000 0.28445  0.10312  0.10023  Biso   1.000  C
  C9       1.0000 0.35269  0.10500  0.03408  Biso   1.000  C
  C10      1.0000 0.28384  0.14933  0.14812  Biso   1.000  C
  C11      1.0000 0.30554  0.16217  0.16114  Biso   1.000  C
  C12      1.0000 0.31613  0.15094  0.18314  Biso   1.000  C
  H4       1.0000 0.30840  0.13630  0.19030  Biso   1.000  H
  Cu2      1.0000 0.24970  0.64280  0.60759  Biso   1.000  Cu
  O9       1.0000 0.37024  0.52630  0.58885  Biso   1.000  O
  O10      1.0000 0.33998  0.52655  0.61847  Biso   1.000  O
  O11      1.0000 0.27755  0.59383  0.62112  Biso   1.000  O
  O12      1.0000 0.27450  0.62206  0.58950  Biso   1.000  O
  O13      1.0000 0.34302  0.62499  0.52603  Biso   1.000  O
  O14      1.0000 0.37274  0.59464  0.52602  Biso   1.000  O
  O15      1.0000 0.27773  0.65841  0.62709  Biso   1.000  O
  O16      1.0000 0.27469  0.63051  0.65889  Biso   1.000  O
  C13      1.0000 0.35042  0.53507  0.59900  Biso   1.000  C
  C14      1.0000 0.33837  0.55790  0.58689  Biso   1.000  C
  C15      1.0000 0.31702  0.56855  0.59778  Biso   1.000  C
  H5       1.0000 0.30950  0.56100  0.61240  Biso   1.000  H
  C16      1.0000 0.30652  0.59057  0.58720  Biso   1.000  C
  C17      1.0000 0.31791  0.60219  0.56637  Biso   1.000  C
  H6       1.0000 0.31090  0.61740  0.55960  Biso   1.000  H
  C18      1.0000 0.33934  0.59170  0.55543  Biso   1.000  C
  C19      1.0000 0.34972  0.56919  0.56555  Biso   1.000  C
  H7       1.0000 0.36430  0.56170  0.55800  Biso   1.000  H
  C20      1.0000 0.28445  0.60312  0.60023  Biso   1.000  C
  C21      1.0000 0.35269  0.60500  0.53408  Biso   1.000  C
  C22      1.0000 0.28384  0.64933  0.64812  Biso   1.000  C
  C23      1.0000 0.30554  0.66217  0.66114  Biso   1.000  C
  C24      1.0000 0.31613  0.65094  0.68314  Biso   1.000  C
  H8       1.0000 0.30840  0.63630  0.69030  Biso   1.000  H
  Cu3      1.0000 0.74970  0.14280  0.60759  Biso   1.000  Cu
  O17      1.0000 0.87024  0.02630  0.58885  Biso   1.000  O
  O18      1.0000 0.83998  0.02655  0.61847  Biso   1.000  O
  O19      1.0000 0.77755  0.09383  0.62112  Biso   1.000  O
  O20      1.0000 0.77450  0.12206  0.58950  Biso   1.000  O
  O21      1.0000 0.84302  0.12499  0.52603  Biso   1.000  O
  O22      1.0000 0.87274  0.09464  0.52602  Biso   1.000  O
  O23      1.0000 0.77773  0.15841  0.62709  Biso   1.000  O
  O24      1.0000 0.77469  0.13051  0.65889  Biso   1.000  O
  C25      1.0000 0.85042  0.03507  0.59900  Biso   1.000  C
  C26      1.0000 0.83837  0.05790  0.58689  Biso   1.000  C
  C27      1.0000 0.81702  0.06855  0.59778  Biso   1.000  C
  H9       1.0000 0.80950  0.06100  0.61240  Biso   1.000  H
  C28      1.0000 0.80652  0.09057  0.58720  Biso   1.000  C
  C29      1.0000 0.81791  0.10219  0.56637  Biso   1.000  C
  H10      1.0000 0.81090  0.11740  0.55960  Biso   1.000  H
  C30      1.0000 0.83934  0.09170  0.55543  Biso   1.000  C
  C31      1.0000 0.84972  0.06919  0.56555  Biso   1.000  C
  H11      1.0000 0.86430  0.06170  0.55800  Biso   1.000  H
  C32      1.0000 0.78445  0.10312  0.60023  Biso   1.000  C
  C33      1.0000 0.85269  0.10500  0.53408  Biso   1.000  C
  C34      1.0000 0.78384  0.14933  0.64812  Biso   1.000  C
  C35      1.0000 0.80554  0.16217  0.66114  Biso   1.000  C
  C36      1.0000 0.81613  0.15094  0.68314  Biso   1.000  C
  H12      1.0000 0.80840  0.13630  0.69030  Biso   1.000  H
  Cu4      1.0000 0.74970  0.64280  0.10759  Biso   1.000  Cu
  O25      1.0000 0.87024  0.52630  0.08885  Biso   1.000  O
  O26      1.0000 0.83998  0.52655  0.11847  Biso   1.000  O
  O27      1.0000 0.77755  0.59383  0.12112  Biso   1.000  O
  O28      1.0000 0.77450  0.62206  0.08950  Biso   1.000  O
  O29      1.0000 0.84302  0.62499  0.02603  Biso   1.000  O
  O30      1.0000 0.87274  0.59464  0.02602  Biso   1.000  O
  O31      1.0000 0.77773  0.65841  0.12709  Biso   1.000  O
  O32      1.0000 0.77469  0.63051  0.15889  Biso   1.000  O
  C37      1.0000 0.85042  0.53507  0.09900  Biso   1.000  C
  C38      1.0000 0.83837  0.55790  0.08689  Biso   1.000  C
  C39      1.0000 0.81702  0.56855  0.09778  Biso   1.000  C
  H13      1.0000 0.80950  0.56100  0.11240  Biso   1.000  H
  C40      1.0000 0.80652  0.59057  0.08720  Biso   1.000  C
  C41      1.0000 0.81791  0.60219  0.06637  Biso   1.000  C
  H14      1.0000 0.81090  0.61740  0.05960  Biso   1.000  H
  C42      1.0000 0.83934  0.59170  0.05543  Biso   1.000  C
  C43      1.0000 0.84972  0.56919  0.06555  Biso   1.000  C
  H15      1.0000 0.86430  0.56170  0.05800  Biso   1.000  H
  C44      1.0000 0.78445  0.60312  0.10023  Biso   1.000  C
  C45      1.0000 0.85269  0.60500  0.03408  Biso   1.000  C
  C46      1.0000 0.78384  0.64933  0.14812  Biso   1.000  C
  C47      1.0000 0.80554  0.66217  0.16114  Biso   1.000  C
  C48      1.0000 0.81613  0.65094  0.18314  Biso   1.000  C
  H16      1.0000 0.80840  0.63630  0.19030  Biso   1.000  H
  Cu5      1.0000 0.75030  0.85720  0.10759  Biso   1.000  Cu
  O33      1.0000 0.62976  0.97370  0.08885  Biso   1.000  O
  O34      1.0000 0.66002  0.97345  0.11847  Biso   1.000  O
  O35      1.0000 0.72245  0.90617  0.12112  Biso   1.000  O
  O36      1.0000 0.72550  0.87794  0.08950  Biso   1.000  O
  O37      1.0000 0.65698  0.87501  0.02603  Biso   1.000  O
  O38      1.0000 0.62726  0.90536  0.02602  Biso   1.000  O
  O39      1.0000 0.72227  0.84159  0.12709  Biso   1.000  O
  O40      1.0000 0.72531  0.86949  0.15889  Biso   1.000  O
  C49      1.0000 0.64958  0.96493  0.09900  Biso   1.000  C
  C50      1.0000 0.66163  0.94210  0.08689  Biso   1.000  C
  C51      1.0000 0.68298  0.93145  0.09778  Biso   1.000  C
  H17      1.0000 0.69050  0.93900  0.11240  Biso   1.000  H
  C52      1.0000 0.69348  0.90943  0.08720  Biso   1.000  C
  C53      1.0000 0.68209  0.89781  0.06637  Biso   1.000  C
  H18      1.0000 0.68910  0.88260  0.05960  Biso   1.000  H
  C54      1.0000 0.66066  0.90830  0.05543  Biso   1.000  C
  C55      1.0000 0.65028  0.93081  0.06555  Biso   1.000  C
  H19      1.0000 0.63570  0.93830  0.05800  Biso   1.000  H
  C56      1.0000 0.71555  0.89688  0.10023  Biso   1.000  C
  C57      1.0000 0.64731  0.89500  0.03408  Biso   1.000  C
  C58      1.0000 0.71616  0.85067  0.14812  Biso   1.000  C
  C59      1.0000 0.69446  0.83783  0.16114  Biso   1.000  C
  C60      1.0000 0.68387  0.84906  0.18314  Biso   1.000  C
  H20      1.0000 0.69160  0.86370  0.19030  Biso   1.000  H
  Cu6      1.0000 0.75030  0.35720  0.60759  Biso   1.000  Cu
  O41      1.0000 0.62976  0.47370  0.58885  Biso   1.000  O
  O42      1.0000 0.66002  0.47345  0.61847  Biso   1.000  O
  O43      1.0000 0.72245  0.40617  0.62112  Biso   1.000  O
  O44      1.0000 0.72550  0.37794  0.58950  Biso   1.000  O
  O45      1.0000 0.65698  0.37501  0.52603  Biso   1.000  O
  O46      1.0000 0.62726  0.40536  0.52602  Biso   1.000  O
  O47      1.0000 0.72227  0.34159  0.62709  Biso   1.000  O
  O48      1.0000 0.72531  0.36949  0.65889  Biso   1.000  O
  C61      1.0000 0.64958  0.46493  0.59900  Biso   1.000  C
  C62      1.0000 0.66163  0.44210  0.58689  Biso   1.000  C
  C63      1.0000 0.68298  0.43145  0.59778  Biso   1.000  C
  H21      1.0000 0.69050  0.43900  0.61240  Biso   1.000  H
  C64      1.0000 0.69348  0.40943  0.58720  Biso   1.000  C
  C65      1.0000 0.68209  0.39781  0.56637  Biso   1.000  C
  H22      1.0000 0.68910  0.38260  0.55960  Biso   1.000  H
  C66      1.0000 0.66066  0.40830  0.55543  Biso   1.000  C
  C67      1.0000 0.65028  0.43081  0.56555  Biso   1.000  C
  H23      1.0000 0.63570  0.43830  0.55800  Biso   1.000  H
  C68      1.0000 0.71555  0.39688  0.60023  Biso   1.000  C
  C69      1.0000 0.64731  0.39500  0.53408  Biso   1.000  C
  C70      1.0000 0.71616  0.35067  0.64812  Biso   1.000  C
  C71      1.0000 0.69446  0.33783  0.66114  Biso   1.000  C
  C72      1.0000 0.68387  0.34906  0.68314  Biso   1.000  C
  H24      1.0000 0.69160  0.36370  0.69030  Biso   1.000  H
  Cu7      1.0000 0.25030  0.85720  0.60759  Biso   1.000  Cu
  O49      1.0000 0.12976  0.97370  0.58885  Biso   1.000  O
  O50      1.0000 0.16002  0.97345  0.61847  Biso   1.000  O
  O51      1.0000 0.22245  0.90617  0.62112  Biso   1.000  O
  O52      1.0000 0.22550  0.87794  0.58950  Biso   1.000  O
  O53      1.0000 0.15698  0.87501  0.52603  Biso   1.000  O
  O54      1.0000 0.12726  0.90536  0.52602  Biso   1.000  O
  O55      1.0000 0.22227  0.84159  0.62709  Biso   1.000  O
  O56      1.0000 0.22531  0.86949  0.65889  Biso   1.000  O
  C73      1.0000 0.14958  0.96493  0.59900  Biso   1.000  C
  C74      1.0000 0.16163  0.94210  0.58689  Biso   1.000  C
  C75      1.0000 0.18298  0.93145  0.59778  Biso   1.000  C
  H25      1.0000 0.19050  0.93900  0.61240  Biso   1.000  H
  C76      1.0000 0.19348  0.90943  0.58720  Biso   1.000  C
  C77      1.0000 0.18209  0.89781  0.56637  Biso   1.000  C
  H26      1.0000 0.18910  0.88260  0.55960  Biso   1.000  H
  C78      1.0000 0.16066  0.90830  0.55543  Biso   1.000  C
  C79      1.0000 0.15028  0.93081  0.56555  Biso   1.000  C
  H27      1.0000 0.13570  0.93830  0.55800  Biso   1.000  H
  C80      1.0000 0.21555  0.89688  0.60023  Biso   1.000  C
  C81      1.0000 0.14731  0.89500  0.53408  Biso   1.000  C
  C82      1.0000 0.21616  0.85067  0.64812  Biso   1.000  C
  C83      1.0000 0.19446  0.83783  0.66114  Biso   1.000  C
  C84      1.0000 0.18387  0.84906  0.68314  Biso   1.000  C
  H28      1.0000 0.19160  0.86370  0.69030  Biso   1.000  H
  Cu8      1.0000 0.25030  0.35720  0.10759  Biso   1.000  Cu
  O57      1.0000 0.12976  0.47370  0.08885  Biso   1.000  O
  O58      1.0000 0.16002  0.47345  0.11847  Biso   1.000  O
  O59      1.0000 0.22245  0.40617  0.12112  Biso   1.000  O
  O60      1.0000 0.22550  0.37794  0.08950  Biso   1.000  O
  O61      1.0000 0.15698  0.37501  0.02603  Biso   1.000  O
  O62      1.0000 0.12726  0.40536  0.02602  Biso   1.000  O
  O63      1.0000 0.22227  0.34159  0.12709  Biso   1.000  O
  O64      1.0000 0.22531  0.36949  0.15889  Biso   1.000  O
  C85      1.0000 0.14958  0.46493  0.09900  Biso   1.000  C
  C86      1.0000 0.16163  0.44210  0.08689  Biso   1.000  C
  C87      1.0000 0.18298  0.43145  0.09778  Biso   1.000  C
  H29      1.0000 0.19050  0.43900  0.11240  Biso   1.000  H
  C88      1.0000 0.19348  0.40943  0.08720  Biso   1.000  C
  C89      1.0000 0.18209  0.39781  0.06637  Biso   1.000  C
  H30      1.0000 0.18910  0.38260  0.05960  Biso   1.000  H
  C90      1.0000 0.16066  0.40830  0.05543  Biso   1.000  C
  C91      1.0000 0.15028  0.43081  0.06555  Biso   1.000  C
  H31      1.0000 0.13570  0.43830  0.05800  Biso   1.000  H
  C92      1.0000 0.21555  0.39688  0.10023  Biso   1.000  C
  C93      1.0000 0.14731  0.39500  0.03408  Biso   1.000  C
  C94      1.0000 0.21616  0.35067  0.14812  Biso   1.000  C
  C95      1.0000 0.19446  0.33783  0.16114  Biso   1.000  C
  C96      1.0000 0.18387  0.34906  0.18314  Biso   1.000  C
  H32      1.0000 0.19160  0.36370  0.19030  Biso   1.000  H
  Cu9      1.0000 0.75030  0.14280  0.89241  Biso   1.000  Cu
  O65      1.0000 0.62976  0.02630  0.91115  Biso   1.000  O
  O66      1.0000 0.66002  0.02655  0.88153  Biso   1.000  O
  O67      1.0000 0.72245  0.09383  0.87888  Biso   1.000  O
  O68      1.0000 0.72550  0.12206  0.91050  Biso   1.000  O
  O69      1.0000 0.65698  0.12499  0.97397  Biso   1.000  O
  O70      1.0000 0.62726  0.09464  0.97398  Biso   1.000  O
  O71      1.0000 0.72227  0.15841  0.87291  Biso   1.000  O
  O72      1.0000 0.72531  0.13051  0.84111  Biso   1.000  O
  C97      1.0000 0.64958  0.03507  0.90100  Biso   1.000  C
  C98      1.0000 0.66163  0.05790  0.91311  Biso   1.000  C
  C99      1.0000 0.68298  0.06855  0.90222  Biso   1.000  C
  H33      1.0000 0.69050  0.06100  0.88760  Biso   1.000  H
  C100     1.0000 0.69348  0.09057  0.91280  Biso   1.000  C
  C101     1.0000 0.68209  0.10219  0.93363  Biso   1.000  C
  H34      1.0000 0.68910  0.11740  0.94040  Biso   1.000  H
  C102     1.0000 0.66066  0.09170  0.94457  Biso   1.000  C
  C103     1.0000 0.65028  0.06919  0.93445  Biso   1.000  C
  H35      1.0000 0.63570  0.06170  0.94200  Biso   1.000  H
  C104     1.0000 0.71555  0.10312  0.89977  Biso   1.000  C
  C105     1.0000 0.64731  0.10500  0.96592  Biso   1.000  C
  C106     1.0000 0.71616  0.14933  0.85188  Biso   1.000  C
  C107     1.0000 0.69446  0.16217  0.83886  Biso   1.000  C
  C108     1.0000 0.68387  0.15094  0.81686  Biso   1.000  C
  H36      1.0000 0.69160  0.13630  0.80970  Biso   1.000  H
  Cu10     1.0000 0.75030  0.64280  0.39241  Biso   1.000  Cu
  O73      1.0000 0.62976  0.52630  0.41115  Biso   1.000  O
  O74      1.0000 0.66002  0.52655  0.38153  Biso   1.000  O
  O75      1.0000 0.72245  0.59383  0.37888  Biso   1.000  O
  O76      1.0000 0.72550  0.62206  0.41050  Biso   1.000  O
  O77      1.0000 0.65698  0.62499  0.47397  Biso   1.000  O
  O78      1.0000 0.62726  0.59464  0.47398  Biso   1.000  O
  O79      1.0000 0.72227  0.65841  0.37291  Biso   1.000  O
  O80      1.0000 0.72531  0.63051  0.34111  Biso   1.000  O
  C109     1.0000 0.64958  0.53507  0.40100  Biso   1.000  C
  C110     1.0000 0.66163  0.55790  0.41311  Biso   1.000  C
  C111     1.0000 0.68298  0.56855  0.40222  Biso   1.000  C
  H37      1.0000 0.69050  0.56100  0.38760  Biso   1.000  H
  C112     1.0000 0.69348  0.59057  0.41280  Biso   1.000  C
  C113     1.0000 0.68209  0.60219  0.43363  Biso   1.000  C
  H38      1.0000 0.68910  0.61740  0.44040  Biso   1.000  H
  C114     1.0000 0.66066  0.59170  0.44457  Biso   1.000  C
  C115     1.0000 0.65028  0.56919  0.43445  Biso   1.000  C
  H39      1.0000 0.63570  0.56170  0.44200  Biso   1.000  H
  C116     1.0000 0.71555  0.60312  0.39977  Biso   1.000  C
  C117     1.0000 0.64731  0.60500  0.46592  Biso   1.000  C
  C118     1.0000 0.71616  0.64933  0.35188  Biso   1.000  C
  C119     1.0000 0.69446  0.66217  0.33886  Biso   1.000  C
  C120     1.0000 0.68387  0.65094  0.31686  Biso   1.000  C
  H40      1.0000 0.69160  0.63630  0.30970  Biso   1.000  H
  Cu11     1.0000 0.25030  0.14280  0.39241  Biso   1.000  Cu
  O81      1.0000 0.12976  0.02630  0.41115  Biso   1.000  O
  O82      1.0000 0.16002  0.02655  0.38153  Biso   1.000  O
  O83      1.0000 0.22245  0.09383  0.37888  Biso   1.000  O
  O84      1.0000 0.22550  0.12206  0.41050  Biso   1.000  O
  O85      1.0000 0.15698  0.12499  0.47397  Biso   1.000  O
  O86      1.0000 0.12726  0.09464  0.47398  Biso   1.000  O
  O87      1.0000 0.22227  0.15841  0.37291  Biso   1.000  O
  O88      1.0000 0.22531  0.13051  0.34111  Biso   1.000  O
  C121     1.0000 0.14958  0.03507  0.40100  Biso   1.000  C
  C122     1.0000 0.16163  0.05790  0.41311  Biso   1.000  C
  C123     1.0000 0.18298  0.06855  0.40222  Biso   1.000  C
  H41      1.0000 0.19050  0.06100  0.38760  Biso   1.000  H
  C124     1.0000 0.19348  0.09057  0.41280  Biso   1.000  C
  C125     1.0000 0.18209  0.10219  0.43363  Biso   1.000  C
  H42      1.0000 0.18910  0.11740  0.44040  Biso   1.000  H
  C126     1.0000 0.16066  0.09170  0.44457  Biso   1.000  C
  C127     1.0000 0.15028  0.06919  0.43445  Biso   1.000  C
  H43      1.0000 0.13570  0.06170  0.44200  Biso   1.000  H
  C128     1.0000 0.21555  0.10312  0.39977  Biso   1.000  C
  C129     1.0000 0.14731  0.10500  0.46592  Biso   1.000  C
  C130     1.0000 0.21616  0.14933  0.35188  Biso   1.000  C
  C131     1.0000 0.19446  0.16217  0.33886  Biso   1.000  C
  C132     1.0000 0.18387  0.15094  0.31686  Biso   1.000  C
  H44      1.0000 0.19160  0.13630  0.30970  Biso   1.000  H
  Cu12     1.0000 0.25030  0.64280  0.89241  Biso   1.000  Cu
  O89      1.0000 0.12976  0.52630  0.91115  Biso   1.000  O
  O90      1.0000 0.16002  0.52655  0.88153  Biso   1.000  O
  O91      1.0000 0.22245  0.59383  0.87888  Biso   1.000  O
  O92      1.0000 0.22550  0.62206  0.91050  Biso   1.000  O
  O93      1.0000 0.15698  0.62499  0.97397  Biso   1.000  O
  O94      1.0000 0.12726  0.59464  0.97398  Biso   1.000  O
  O95      1.0000 0.22227  0.65841  0.87291  Biso   1.000  O
  O96      1.0000 0.22531  0.63051  0.84111  Biso   1.000  O
  C133     1.0000 0.14958  0.53507  0.90100  Biso   1.000  C
  C134     1.0000 0.16163  0.55790  0.91311  Biso   1.000  C
  C135     1.0000 0.18298  0.56855  0.90222  Biso   1.000  C
  H45      1.0000 0.19050  0.56100  0.88760  Biso   1.000  H
  C136     1.0000 0.19348  0.59057  0.91280  Biso   1.000  C
  C137     1.0000 0.18209  0.60219  0.93363  Biso   1.000  C
  H46      1.0000 0.18910  0.61740  0.94040  Biso   1.000  H
  C138     1.0000 0.16066  0.59170  0.94457  Biso   1.000  C
  C139     1.0000 0.15028  0.56919  0.93445  Biso   1.000  C
  H47      1.0000 0.13570  0.56170  0.94200  Biso   1.000  H
  C140     1.0000 0.21555  0.60312  0.89977  Biso   1.000  C
  C141     1.0000 0.14731  0.60500  0.96592  Biso   1.000  C
  C142     1.0000 0.21616  0.64933  0.85188  Biso   1.000  C
  C143     1.0000 0.19446  0.66217  0.83886  Biso   1.000  C
  C144     1.0000 0.18387  0.65094  0.81686  Biso   1.000  C
  H48      1.0000 0.19160  0.63630  0.80970  Biso   1.000  H
  Cu13     1.0000 0.24970  0.85720  0.89241  Biso   1.000  Cu
  O97      1.0000 0.37024  0.97370  0.91115  Biso   1.000  O
  O98      1.0000 0.33998  0.97345  0.88153  Biso   1.000  O
  O99      1.0000 0.27755  0.90617  0.87888  Biso   1.000  O
  O100     1.0000 0.27450  0.87794  0.91050  Biso   1.000  O
  O101     1.0000 0.34302  0.87501  0.97397  Biso   1.000  O
  O102     1.0000 0.37274  0.90536  0.97398  Biso   1.000  O
  O103     1.0000 0.27773  0.84159  0.87291  Biso   1.000  O
  O104     1.0000 0.27469  0.86949  0.84111  Biso   1.000  O
  C145     1.0000 0.35042  0.96493  0.90100  Biso   1.000  C
  C146     1.0000 0.33837  0.94210  0.91311  Biso   1.000  C
  C147     1.0000 0.31702  0.93145  0.90222  Biso   1.000  C
  H49      1.0000 0.30950  0.93900  0.88760  Biso   1.000  H
  C148     1.0000 0.30652  0.90943  0.91280  Biso   1.000  C
  C149     1.0000 0.31791  0.89781  0.93363  Biso   1.000  C
  H50      1.0000 0.31090  0.88260  0.94040  Biso   1.000  H
  C150     1.0000 0.33934  0.90830  0.94457  Biso   1.000  C
  C151     1.0000 0.34972  0.93081  0.93445  Biso   1.000  C
  H51      1.0000 0.36430  0.93830  0.94200  Biso   1.000  H
  C152     1.0000 0.28445  0.89688  0.89977  Biso   1.000  C
  C153     1.0000 0.35269  0.89500  0.96592  Biso   1.000  C
  C154     1.0000 0.28384  0.85067  0.85188  Biso   1.000  C
  C155     1.0000 0.30554  0.83783  0.83886  Biso   1.000  C
  C156     1.0000 0.31613  0.84906  0.81686  Biso   1.000  C
  H52      1.0000 0.30840  0.86370  0.80970  Biso   1.000  H
  Cu14     1.0000 0.24970  0.35720  0.39241  Biso   1.000  Cu
  O105     1.0000 0.37024  0.47370  0.41115  Biso   1.000  O
  O106     1.0000 0.33998  0.47345  0.38153  Biso   1.000  O
  O107     1.0000 0.27755  0.40617  0.37888  Biso   1.000  O
  O108     1.0000 0.27450  0.37794  0.41050  Biso   1.000  O
  O109     1.0000 0.34302  0.37501  0.47397  Biso   1.000  O
  O110     1.0000 0.37274  0.40536  0.47398  Biso   1.000  O
  O111     1.0000 0.27773  0.34159  0.37291  Biso   1.000  O
  O112     1.0000 0.27469  0.36949  0.34111  Biso   1.000  O
  C157     1.0000 0.35042  0.46493  0.40100  Biso   1.000  C
  C158     1.0000 0.33837  0.44210  0.41311  Biso   1.000  C
  C159     1.0000 0.31702  0.43145  0.40222  Biso   1.000  C
  H53      1.0000 0.30950  0.43900  0.38760  Biso   1.000  H
  C160     1.0000 0.30652  0.40943  0.41280  Biso   1.000  C
  C161     1.0000 0.31791  0.39781  0.43363  Biso   1.000  C
  H54      1.0000 0.31090  0.38260  0.44040  Biso   1.000  H
  C162     1.0000 0.33934  0.40830  0.44457  Biso   1.000  C
  C163     1.0000 0.34972  0.43081  0.43445  Biso   1.000  C
  H55      1.0000 0.36430  0.43830  0.44200  Biso   1.000  H
  C164     1.0000 0.28445  0.39688  0.39977  Biso   1.000  C
  C165     1.0000 0.35269  0.39500  0.46592  Biso   1.000  C
  C166     1.0000 0.28384  0.35067  0.35188  Biso   1.000  C
  C167     1.0000 0.30554  0.33783  0.33886  Biso   1.000  C
  C168     1.0000 0.31613  0.34906  0.31686  Biso   1.000  C
  H56      1.0000 0.30840  0.36370  0.30970  Biso   1.000  H
  Cu15     1.0000 0.74970  0.85720  0.39241  Biso   1.000  Cu
  O113     1.0000 0.87024  0.97370  0.41115  Biso   1.000  O
  O114     1.0000 0.83998  0.97345  0.38153  Biso   1.000  O
  O115     1.0000 0.77755  0.90617  0.37888  Biso   1.000  O
  O116     1.0000 0.77450  0.87794  0.41050  Biso   1.000  O
  O117     1.0000 0.84302  0.87501  0.47397  Biso   1.000  O
  O118     1.0000 0.87274  0.90536  0.47398  Biso   1.000  O
  O119     1.0000 0.77773  0.84159  0.37291  Biso   1.000  O
  O120     1.0000 0.77469  0.86949  0.34111  Biso   1.000  O
  C169     1.0000 0.85042  0.96493  0.40100  Biso   1.000  C
  C170     1.0000 0.83837  0.94210  0.41311  Biso   1.000  C
  C171     1.0000 0.81702  0.93145  0.40222  Biso   1.000  C
  H57      1.0000 0.80950  0.93900  0.38760  Biso   1.000  H
  C172     1.0000 0.80652  0.90943  0.41280  Biso   1.000  C
  C173     1.0000 0.81791  0.89781  0.43363  Biso   1.000  C
  H58      1.0000 0.81090  0.88260  0.44040  Biso   1.000  H
  C174     1.0000 0.83934  0.90830  0.44457  Biso   1.000  C
  C175     1.0000 0.84972  0.93081  0.43445  Biso   1.000  C
  H59      1.0000 0.86430  0.93830  0.44200  Biso   1.000  H
  C176     1.0000 0.78445  0.89688  0.39977  Biso   1.000  C
  C177     1.0000 0.85269  0.89500  0.46592  Biso   1.000  C
  C178     1.0000 0.78384  0.85067  0.35188  Biso   1.000  C
  C179     1.0000 0.80554  0.83783  0.33886  Biso   1.000  C
  C180     1.0000 0.81613  0.84906  0.31686  Biso   1.000  C
  H60      1.0000 0.80840  0.86370  0.30970  Biso   1.000  H
  Cu16     1.0000 0.74970  0.35720  0.89241  Biso   1.000  Cu
  O121     1.0000 0.87024  0.47370  0.91115  Biso   1.000  O
  O122     1.0000 0.83998  0.47345  0.88153  Biso   1.000  O
  O123     1.0000 0.77755  0.40617  0.87888  Biso   1.000  O
  O124     1.0000 0.77450  0.37794  0.91050  Biso   1.000  O
  O125     1.0000 0.84302  0.37501  0.97397  Biso   1.000  O
  O126     1.0000 0.87274  0.40536  0.97398  Biso   1.000  O
  O127     1.0000 0.77773  0.34159  0.87291  Biso   1.000  O
  O128     1.0000 0.77469  0.36949  0.84111  Biso   1.000  O
  C181     1.0000 0.85042  0.46493  0.90100  Biso   1.000  C
  C182     1.0000 0.83837  0.44210  0.91311  Biso   1.000  C
  C183     1.0000 0.81702  0.43145  0.90222  Biso   1.000  C
  H61      1.0000 0.80950  0.43900  0.88760  Biso   1.000  H
  C184     1.0000 0.80652  0.40943  0.91280  Biso   1.000  C
  C185     1.0000 0.81791  0.39781  0.93363  Biso   1.000  C
  H62      1.0000 0.81090  0.38260  0.94040  Biso   1.000  H
  C186     1.0000 0.83934  0.40830  0.94457  Biso   1.000  C
  C187     1.0000 0.84972  0.43081  0.93445  Biso   1.000  C
  H63      1.0000 0.86430  0.43830  0.94200  Biso   1.000  H
  C188     1.0000 0.78445  0.39688  0.89977  Biso   1.000  C
  C189     1.0000 0.85269  0.39500  0.96592  Biso   1.000  C
  C190     1.0000 0.78384  0.35067  0.85188  Biso   1.000  C
  C191     1.0000 0.80554  0.33783  0.83886  Biso   1.000  C
  C192     1.0000 0.81613  0.34906  0.81686  Biso   1.000  C
  H64      1.0000 0.80840  0.36370  0.80970  Biso   1.000  H
  Cu17     1.0000 0.10759  0.24970  0.14280  Biso   1.000  Cu
  O129     1.0000 0.08885  0.37024  0.02630  Biso   1.000  O
  O130     1.0000 0.11847  0.33998  0.02655  Biso   1.000  O
  O131     1.0000 0.12112  0.27755  0.09383  Biso   1.000  O
  O132     1.0000 0.08950  0.27450  0.12206  Biso   1.000  O
  O133     1.0000 0.02603  0.34302  0.12499  Biso   1.000  O
  O134     1.0000 0.02602  0.37274  0.09464  Biso   1.000  O
  O135     1.0000 0.12709  0.27773  0.15841  Biso   1.000  O
  O136     1.0000 0.15889  0.27469  0.13051  Biso   1.000  O
  C193     1.0000 0.09900  0.35042  0.03507  Biso   1.000  C
  C194     1.0000 0.08689  0.33837  0.05790  Biso   1.000  C
  C195     1.0000 0.09778  0.31702  0.06855  Biso   1.000  C
  H65      1.0000 0.11240  0.30950  0.06100  Biso   1.000  H
  C196     1.0000 0.08720  0.30652  0.09057  Biso   1.000  C
  C197     1.0000 0.06637  0.31791  0.10219  Biso   1.000  C
  H66      1.0000 0.05960  0.31090  0.11740  Biso   1.000  H
  C198     1.0000 0.05543  0.33934  0.09170  Biso   1.000  C
  C199     1.0000 0.06555  0.34972  0.06919  Biso   1.000  C
  H67      1.0000 0.05800  0.36430  0.06170  Biso   1.000  H
  C200     1.0000 0.10023  0.28445  0.10312  Biso   1.000  C
  C201     1.0000 0.03408  0.35269  0.10500  Biso   1.000  C
  C202     1.0000 0.14812  0.28384  0.14933  Biso   1.000  C
  C203     1.0000 0.16114  0.30554  0.16217  Biso   1.000  C
  C204     1.0000 0.18314  0.31613  0.15094  Biso   1.000  C
  H68      1.0000 0.19030  0.30840  0.13630  Biso   1.000  H
  Cu18     1.0000 0.10759  0.74970  0.64280  Biso   1.000  Cu
  O137     1.0000 0.08885  0.87024  0.52630  Biso   1.000  O
  O138     1.0000 0.11847  0.83998  0.52655  Biso   1.000  O
  O139     1.0000 0.12112  0.77755  0.59383  Biso   1.000  O
  O140     1.0000 0.08950  0.77450  0.62206  Biso   1.000  O
  O141     1.0000 0.02603  0.84302  0.62499  Biso   1.000  O
  O142     1.0000 0.02602  0.87274  0.59464  Biso   1.000  O
  O143     1.0000 0.12709  0.77773  0.65841  Biso   1.000  O
  O144     1.0000 0.15889  0.77469  0.63051  Biso   1.000  O
  C205     1.0000 0.09900  0.85042  0.53507  Biso   1.000  C
  C206     1.0000 0.08689  0.83837  0.55790  Biso   1.000  C
  C207     1.0000 0.09778  0.81702  0.56855  Biso   1.000  C
  H69      1.0000 0.11240  0.80950  0.56100  Biso   1.000  H
  C208     1.0000 0.08720  0.80652  0.59057  Biso   1.000  C
  C209     1.0000 0.06637  0.81791  0.60219  Biso   1.000  C
  H70      1.0000 0.05960  0.81090  0.61740  Biso   1.000  H
  C210     1.0000 0.05543  0.83934  0.59170  Biso   1.000  C
  C211     1.0000 0.06555  0.84972  0.56919  Biso   1.000  C
  H71      1.0000 0.05800  0.86430  0.56170  Biso   1.000  H
  C212     1.0000 0.10023  0.78445  0.60312  Biso   1.000  C
  C213     1.0000 0.03408  0.85269  0.60500  Biso   1.000  C
  C214     1.0000 0.14812  0.78384  0.64933  Biso   1.000  C
  C215     1.0000 0.16114  0.80554  0.66217  Biso   1.000  C
  C216     1.0000 0.18314  0.81613  0.65094  Biso   1.000  C
  H72      1.0000 0.19030  0.80840  0.63630  Biso   1.000  H
  Cu19     1.0000 0.60759  0.24970  0.64280  Biso   1.000  Cu
  O145     1.0000 0.58885  0.37024  0.52630  Biso   1.000  O
  O146     1.0000 0.61847  0.33998  0.52655  Biso   1.000  O
  O147     1.0000 0.62112  0.27755  0.59383  Biso   1.000  O
  O148     1.0000 0.58950  0.27450  0.62206  Biso   1.000  O
  O149     1.0000 0.52603  0.34302  0.62499  Biso   1.000  O
  O150     1.0000 0.52602  0.37274  0.59464  Biso   1.000  O
  O151     1.0000 0.62709  0.27773  0.65841  Biso   1.000  O
  O152     1.0000 0.65889  0.27469  0.63051  Biso   1.000  O
  C217     1.0000 0.59900  0.35042  0.53507  Biso   1.000  C
  C218     1.0000 0.58689  0.33837  0.55790  Biso   1.000  C
  C219     1.0000 0.59778  0.31702  0.56855  Biso   1.000  C
  H73      1.0000 0.61240  0.30950  0.56100  Biso   1.000  H
  C220     1.0000 0.58720  0.30652  0.59057  Biso   1.000  C
  C221     1.0000 0.56637  0.31791  0.60219  Biso   1.000  C
  H74      1.0000 0.55960  0.31090  0.61740  Biso   1.000  H
  C222     1.0000 0.55543  0.33934  0.59170  Biso   1.000  C
  C223     1.0000 0.56555  0.34972  0.56919  Biso   1.000  C
  H75      1.0000 0.55800  0.36430  0.56170  Biso   1.000  H
  C224     1.0000 0.60023  0.28445  0.60312  Biso   1.000  C
  C225     1.0000 0.53408  0.35269  0.60500  Biso   1.000  C
  C226     1.0000 0.64812  0.28384  0.64933  Biso   1.000  C
  C227     1.0000 0.66114  0.30554  0.66217  Biso   1.000  C
  C228     1.0000 0.68314  0.31613  0.65094  Biso   1.000  C
  H76      1.0000 0.69030  0.30840  0.63630  Biso   1.000  H
  Cu20     1.0000 0.60759  0.74970  0.14280  Biso   1.000  Cu
  O153     1.0000 0.58885  0.87024  0.02630  Biso   1.000  O
  O154     1.0000 0.61847  0.83998  0.02655  Biso   1.000  O
  O155     1.0000 0.62112  0.77755  0.09383  Biso   1.000  O
  O156     1.0000 0.58950  0.77450  0.12206  Biso   1.000  O
  O157     1.0000 0.52603  0.84302  0.12499  Biso   1.000  O
  O158     1.0000 0.52602  0.87274  0.09464  Biso   1.000  O
  O159     1.0000 0.62709  0.77773  0.15841  Biso   1.000  O
  O160     1.0000 0.65889  0.77469  0.13051  Biso   1.000  O
  C229     1.0000 0.59900  0.85042  0.03507  Biso   1.000  C
  C230     1.0000 0.58689  0.83837  0.05790  Biso   1.000  C
  C231     1.0000 0.59778  0.81702  0.06855  Biso   1.000  C
  H77      1.0000 0.61240  0.80950  0.06100  Biso   1.000  H
  C232     1.0000 0.58720  0.80652  0.09057  Biso   1.000  C
  C233     1.0000 0.56637  0.81791  0.10219  Biso   1.000  C
  H78      1.0000 0.55960  0.81090  0.11740  Biso   1.000  H
  C234     1.0000 0.55543  0.83934  0.09170  Biso   1.000  C
  C235     1.0000 0.56555  0.84972  0.06919  Biso   1.000  C
  H79      1.0000 0.55800  0.86430  0.06170  Biso   1.000  H
  C236     1.0000 0.60023  0.78445  0.10312  Biso   1.000  C
  C237     1.0000 0.53408  0.85269  0.10500  Biso   1.000  C
  C238     1.0000 0.64812  0.78384  0.14933  Biso   1.000  C
  C239     1.0000 0.66114  0.80554  0.16217  Biso   1.000  C
  C240     1.0000 0.68314  0.81613  0.15094  Biso   1.000  C
  H80      1.0000 0.69030  0.80840  0.13630  Biso   1.000  H
  Cu21     1.0000 0.10759  0.75030  0.85720  Biso   1.000  Cu
  O161     1.0000 0.08885  0.62976  0.97370  Biso   1.000  O
  O162     1.0000 0.11847  0.66002  0.97345  Biso   1.000  O
  O163     1.0000 0.12112  0.72245  0.90617  Biso   1.000  O
  O164     1.0000 0.08950  0.72550  0.87794  Biso   1.000  O
  O165     1.0000 0.02603  0.65698  0.87501  Biso   1.000  O
  O166     1.0000 0.02602  0.62726  0.90536  Biso   1.000  O
  O167     1.0000 0.12709  0.72227  0.84159  Biso   1.000  O
  O168     1.0000 0.15889  0.72531  0.86949  Biso   1.000  O
  C241     1.0000 0.09900  0.64958  0.96493  Biso   1.000  C
  C242     1.0000 0.08689  0.66163  0.94210  Biso   1.000  C
  C243     1.0000 0.09778  0.68298  0.93145  Biso   1.000  C
  H81      1.0000 0.11240  0.69050  0.93900  Biso   1.000  H
  C244     1.0000 0.08720  0.69348  0.90943  Biso   1.000  C
  C245     1.0000 0.06637  0.68209  0.89781  Biso   1.000  C
  H82      1.0000 0.05960  0.68910  0.88260  Biso   1.000  H
  C246     1.0000 0.05543  0.66066  0.90830  Biso   1.000  C
  C247     1.0000 0.06555  0.65028  0.93081  Biso   1.000  C
  H83      1.0000 0.05800  0.63570  0.93830  Biso   1.000  H
  C248     1.0000 0.10023  0.71555  0.89688  Biso   1.000  C
  C249     1.0000 0.03408  0.64731  0.89500  Biso   1.000  C
  C250     1.0000 0.14812  0.71616  0.85067  Biso   1.000  C
  C251     1.0000 0.16114  0.69446  0.83783  Biso   1.000  C
  C252     1.0000 0.18314  0.68387  0.84906  Biso   1.000  C
  H84      1.0000 0.19030  0.69160  0.86370  Biso   1.000  H
  Cu22     1.0000 0.10759  0.25030  0.35720  Biso   1.000  Cu
  O169     1.0000 0.08885  0.12976  0.47370  Biso   1.000  O
  O170     1.0000 0.11847  0.16002  0.47345  Biso   1.000  O
  O171     1.0000 0.12112  0.22245  0.40617  Biso   1.000  O
  O172     1.0000 0.08950  0.22550  0.37794  Biso   1.000  O
  O173     1.0000 0.02603  0.15698  0.37501  Biso   1.000  O
  O174     1.0000 0.02602  0.12726  0.40536  Biso   1.000  O
  O175     1.0000 0.12709  0.22227  0.34159  Biso   1.000  O
  O176     1.0000 0.15889  0.22531  0.36949  Biso   1.000  O
  C253     1.0000 0.09900  0.14958  0.46493  Biso   1.000  C
  C254     1.0000 0.08689  0.16163  0.44210  Biso   1.000  C
  C255     1.0000 0.09778  0.18298  0.43145  Biso   1.000  C
  H85      1.0000 0.11240  0.19050  0.43900  Biso   1.000  H
  C256     1.0000 0.08720  0.19348  0.40943  Biso   1.000  C
  C257     1.0000 0.06637  0.18209  0.39781  Biso   1.000  C
  H86      1.0000 0.05960  0.18910  0.38260  Biso   1.000  H
  C258     1.0000 0.05543  0.16066  0.40830  Biso   1.000  C
  C259     1.0000 0.06555  0.15028  0.43081  Biso   1.000  C
  H87      1.0000 0.05800  0.13570  0.43830  Biso   1.000  H
  C260     1.0000 0.10023  0.21555  0.39688  Biso   1.000  C
  C261     1.0000 0.03408  0.14731  0.39500  Biso   1.000  C
  C262     1.0000 0.14812  0.21616  0.35067  Biso   1.000  C
  C263     1.0000 0.16114  0.19446  0.33783  Biso   1.000  C
  C264     1.0000 0.18314  0.18387  0.34906  Biso   1.000  C
  H88      1.0000 0.19030  0.19160  0.36370  Biso   1.000  H
  Cu23     1.0000 0.60759  0.75030  0.35720  Biso   1.000  Cu
  O177     1.0000 0.58885  0.62976  0.47370  Biso   1.000  O
  O178     1.0000 0.61847  0.66002  0.47345  Biso   1.000  O
  O179     1.0000 0.62112  0.72245  0.40617  Biso   1.000  O
  O180     1.0000 0.58950  0.72550  0.37794  Biso   1.000  O
  O181     1.0000 0.52603  0.65698  0.37501  Biso   1.000  O
  O182     1.0000 0.52602  0.62726  0.40536  Biso   1.000  O
  O183     1.0000 0.62709  0.72227  0.34159  Biso   1.000  O
  O184     1.0000 0.65889  0.72531  0.36949  Biso   1.000  O
  C265     1.0000 0.59900  0.64958  0.46493  Biso   1.000  C
  C266     1.0000 0.58689  0.66163  0.44210  Biso   1.000  C
  C267     1.0000 0.59778  0.68298  0.43145  Biso   1.000  C
  H89      1.0000 0.61240  0.69050  0.43900  Biso   1.000  H
  C268     1.0000 0.58720  0.69348  0.40943  Biso   1.000  C
  C269     1.0000 0.56637  0.68209  0.39781  Biso   1.000  C
  H90      1.0000 0.55960  0.68910  0.38260  Biso   1.000  H
  C270     1.0000 0.55543  0.66066  0.40830  Biso   1.000  C
  C271     1.0000 0.56555  0.65028  0.43081  Biso   1.000  C
  H91      1.0000 0.55800  0.63570  0.43830  Biso   1.000  H
  C272     1.0000 0.60023  0.71555  0.39688  Biso   1.000  C
  C273     1.0000 0.53408  0.64731  0.39500  Biso   1.000  C
  C274     1.0000 0.64812  0.71616  0.35067  Biso   1.000  C
  C275     1.0000 0.66114  0.69446  0.33783  Biso   1.000  C
  C276     1.0000 0.68314  0.68387  0.34906  Biso   1.000  C
  H92      1.0000 0.69030  0.69160  0.36370  Biso   1.000  H
  Cu24     1.0000 0.60759  0.25030  0.85720  Biso   1.000  Cu
  O185     1.0000 0.58885  0.12976  0.97370  Biso   1.000  O
  O186     1.0000 0.61847  0.16002  0.97345  Biso   1.000  O
  O187     1.0000 0.62112  0.22245  0.90617  Biso   1.000  O
  O188     1.0000 0.58950  0.22550  0.87794  Biso   1.000  O
  O189     1.0000 0.52603  0.15698  0.87501  Biso   1.000  O
  O190     1.0000 0.52602  0.12726  0.90536  Biso   1.000  O
  O191     1.0000 0.62709  0.22227  0.84159  Biso   1.000  O
  O192     1.0000 0.65889  0.22531  0.86949  Biso   1.000  O
  C277     1.0000 0.59900  0.14958  0.96493  Biso   1.000  C
  C278     1.0000 0.58689  0.16163  0.94210  Biso   1.000  C
  C279     1.0000 0.59778  0.18298  0.93145  Biso   1.000  C
  H93      1.0000 0.61240  0.19050  0.93900  Biso   1.000  H
  C280     1.0000 0.58720  0.19348  0.90943  Biso   1.000  C
  C281     1.0000 0.56637  0.18209  0.89781  Biso   1.000  C
  H94      1.0000 0.55960  0.18910  0.88260  Biso   1.000  H
  C282     1.0000 0.55543  0.16066  0.90830  Biso   1.000  C
  C283     1.0000 0.56555  0.15028  0.93081  Biso   1.000  C
  H95      1.0000 0.55800  0.13570  0.93830  Biso   1.000  H
  C284     1.0000 0.60023  0.21555  0.89688  Biso   1.000  C
  C285     1.0000 0.53408  0.14731  0.89500  Biso   1.000  C
  C286     1.0000 0.64812  0.21616  0.85067  Biso   1.000  C
  C287     1.0000 0.66114  0.19446  0.83783  Biso   1.000  C
  C288     1.0000 0.68314  0.18387  0.84906  Biso   1.000  C
  H96      1.0000 0.69030  0.19160  0.86370  Biso   1.000  H
  Cu25     1.0000 0.89241  0.75030  0.14280  Biso   1.000  Cu
  O193     1.0000 0.91115  0.62976  0.02630  Biso   1.000  O
  O194     1.0000 0.88153  0.66002  0.02655  Biso   1.000  O
  O195     1.0000 0.87888  0.72245  0.09383  Biso   1.000  O
  O196     1.0000 0.91050  0.72550  0.12206  Biso   1.000  O
  O197     1.0000 0.97397  0.65698  0.12499  Biso   1.000  O
  O198     1.0000 0.97398  0.62726  0.09464  Biso   1.000  O
  O199     1.0000 0.87291  0.72227  0.15841  Biso   1.000  O
  O200     1.0000 0.84111  0.72531  0.13051  Biso   1.000  O
  C289     1.0000 0.90100  0.64958  0.03507  Biso   1.000  C
  C290     1.0000 0.91311  0.66163  0.05790  Biso   1.000  C
  C291     1.0000 0.90222  0.68298  0.06855  Biso   1.000  C
  H97      1.0000 0.88760  0.69050  0.06100  Biso   1.000  H
  C292     1.0000 0.91280  0.69348  0.09057  Biso   1.000  C
  C293     1.0000 0.93363  0.68209  0.10219  Biso   1.000  C
  H98      1.0000 0.94040  0.68910  0.11740  Biso   1.000  H
  C294     1.0000 0.94457  0.66066  0.09170  Biso   1.000  C
  C295     1.0000 0.93445  0.65028  0.06919  Biso   1.000  C
  H99      1.0000 0.94200  0.63570  0.06170  Biso   1.000  H
  C296     1.0000 0.89977  0.71555  0.10312  Biso   1.000  C
  C297     1.0000 0.96592  0.64731  0.10500  Biso   1.000  C
  C298     1.0000 0.85188  0.71616  0.14933  Biso   1.000  C
  C299     1.0000 0.83886  0.69446  0.16217  Biso   1.000  C
  C300     1.0000 0.81686  0.68387  0.15094  Biso   1.000  C
  H100     1.0000 0.80970  0.69160  0.13630  Biso   1.000  H
  Cu26     1.0000 0.89241  0.25030  0.64280  Biso   1.000  Cu
  O201     1.0000 0.91115  0.12976  0.52630  Biso   1.000  O
  O202     1.0000 0.88153  0.16002  0.52655  Biso   1.000  O
  O203     1.0000 0.87888  0.22245  0.59383  Biso   1.000  O
  O204     1.0000 0.91050  0.22550  0.62206  Biso   1.000  O
  O205     1.0000 0.97397  0.15698  0.62499  Biso   1.000  O
  O206     1.0000 0.97398  0.12726  0.59464  Biso   1.000  O
  O207     1.0000 0.87291  0.22227  0.65841  Biso   1.000  O
  O208     1.0000 0.84111  0.22531  0.63051  Biso   1.000  O
  C301     1.0000 0.90100  0.14958  0.53507  Biso   1.000  C
  C302     1.0000 0.91311  0.16163  0.55790  Biso   1.000  C
  C303     1.0000 0.90222  0.18298  0.56855  Biso   1.000  C
  H101     1.0000 0.88760  0.19050  0.56100  Biso   1.000  H
  C304     1.0000 0.91280  0.19348  0.59057  Biso   1.000  C
  C305     1.0000 0.93363  0.18209  0.60219  Biso   1.000  C
  H102     1.0000 0.94040  0.18910  0.61740  Biso   1.000  H
  C306     1.0000 0.94457  0.16066  0.59170  Biso   1.000  C
  C307     1.0000 0.93445  0.15028  0.56919  Biso   1.000  C
  H103     1.0000 0.94200  0.13570  0.56170  Biso   1.000  H
  C308     1.0000 0.89977  0.21555  0.60312  Biso   1.000  C
  C309     1.0000 0.96592  0.14731  0.60500  Biso   1.000  C
  C310     1.0000 0.85188  0.21616  0.64933  Biso   1.000  C
  C311     1.0000 0.83886  0.19446  0.66217  Biso   1.000  C
  C312     1.0000 0.81686  0.18387  0.65094  Biso   1.000  C
  H104     1.0000 0.80970  0.19160  0.63630  Biso   1.000  H
  Cu27     1.0000 0.39241  0.75030  0.64280  Biso   1.000  Cu
  O209     1.0000 0.41115  0.62976  0.52630  Biso   1.000  O
  O210     1.0000 0.38153  0.66002  0.52655  Biso   1.000  O
  O211     1.0000 0.37888  0.72245  0.59383  Biso   1.000  O
  O212     1.0000 0.41050  0.72550  0.62206  Biso   1.000  O
  O213     1.0000 0.47397  0.65698  0.62499  Biso   1.000  O
  O214     1.0000 0.47398  0.62726  0.59464  Biso   1.000  O
  O215     1.0000 0.37291  0.72227  0.65841  Biso   1.000  O
  O216     1.0000 0.34111  0.72531  0.63051  Biso   1.000  O
  C313     1.0000 0.40100  0.64958  0.53507  Biso   1.000  C
  C314     1.0000 0.41311  0.66163  0.55790  Biso   1.000  C
  C315     1.0000 0.40222  0.68298  0.56855  Biso   1.000  C
  H105     1.0000 0.38760  0.69050  0.56100  Biso   1.000  H
  C316     1.0000 0.41280  0.69348  0.59057  Biso   1.000  C
  C317     1.0000 0.43363  0.68209  0.60219  Biso   1.000  C
  H106     1.0000 0.44040  0.68910  0.61740  Biso   1.000  H
  C318     1.0000 0.44457  0.66066  0.59170  Biso   1.000  C
  C319     1.0000 0.43445  0.65028  0.56919  Biso   1.000  C
  H107     1.0000 0.44200  0.63570  0.56170  Biso   1.000  H
  C320     1.0000 0.39977  0.71555  0.60312  Biso   1.000  C
  C321     1.0000 0.46592  0.64731  0.60500  Biso   1.000  C
  C322     1.0000 0.35188  0.71616  0.64933  Biso   1.000  C
  C323     1.0000 0.33886  0.69446  0.66217  Biso   1.000  C
  C324     1.0000 0.31686  0.68387  0.65094  Biso   1.000  C
  H108     1.0000 0.30970  0.69160  0.63630  Biso   1.000  H
  Cu28     1.0000 0.39241  0.25030  0.14280  Biso   1.000  Cu
  O217     1.0000 0.41115  0.12976  0.02630  Biso   1.000  O
  O218     1.0000 0.38153  0.16002  0.02655  Biso   1.000  O
  O219     1.0000 0.37888  0.22245  0.09383  Biso   1.000  O
  O220     1.0000 0.41050  0.22550  0.12206  Biso   1.000  O
  O221     1.0000 0.47397  0.15698  0.12499  Biso   1.000  O
  O222     1.0000 0.47398  0.12726  0.09464  Biso   1.000  O
  O223     1.0000 0.37291  0.22227  0.15841  Biso   1.000  O
  O224     1.0000 0.34111  0.22531  0.13051  Biso   1.000  O
  C325     1.0000 0.40100  0.14958  0.03507  Biso   1.000  C
  C326     1.0000 0.41311  0.16163  0.05790  Biso   1.000  C
  C327     1.0000 0.40222  0.18298  0.06855  Biso   1.000  C
  H109     1.0000 0.38760  0.19050  0.06100  Biso   1.000  H
  C328     1.0000 0.41280  0.19348  0.09057  Biso   1.000  C
  C329     1.0000 0.43363  0.18209  0.10219  Biso   1.000  C
  H110     1.0000 0.44040  0.18910  0.11740  Biso   1.000  H
  C330     1.0000 0.44457  0.16066  0.09170  Biso   1.000  C
  C331     1.0000 0.43445  0.15028  0.06919  Biso   1.000  C
  H111     1.0000 0.44200  0.13570  0.06170  Biso   1.000  H
  C332     1.0000 0.39977  0.21555  0.10312  Biso   1.000  C
  C333     1.0000 0.46592  0.14731  0.10500  Biso   1.000  C
  C334     1.0000 0.35188  0.21616  0.14933  Biso   1.000  C
  C335     1.0000 0.33886  0.19446  0.16217  Biso   1.000  C
  C336     1.0000 0.31686  0.18387  0.15094  Biso   1.000  C
  H112     1.0000 0.30970  0.19160  0.13630  Biso   1.000  H
  Cu29     1.0000 0.89241  0.24970  0.85720  Biso   1.000  Cu
  O225     1.0000 0.91115  0.37024  0.97370  Biso   1.000  O
  O226     1.0000 0.88153  0.33998  0.97345  Biso   1.000  O
  O227     1.0000 0.87888  0.27755  0.90617  Biso   1.000  O
  O228     1.0000 0.91050  0.27450  0.87794  Biso   1.000  O
  O229     1.0000 0.97397  0.34302  0.87501  Biso   1.000  O
  O230     1.0000 0.97398  0.37274  0.90536  Biso   1.000  O
  O231     1.0000 0.87291  0.27773  0.84159  Biso   1.000  O
  O232     1.0000 0.84111  0.27469  0.86949  Biso   1.000  O
  C337     1.0000 0.90100  0.35042  0.96493  Biso   1.000  C
  C338     1.0000 0.91311  0.33837  0.94210  Biso   1.000  C
  C339     1.0000 0.90222  0.31702  0.93145  Biso   1.000  C
  H113     1.0000 0.88760  0.30950  0.93900  Biso   1.000  H
  C340     1.0000 0.91280  0.30652  0.90943  Biso   1.000  C
  C341     1.0000 0.93363  0.31791  0.89781  Biso   1.000  C
  H114     1.0000 0.94040  0.31090  0.88260  Biso   1.000  H
  C342     1.0000 0.94457  0.33934  0.90830  Biso   1.000  C
  C343     1.0000 0.93445  0.34972  0.93081  Biso   1.000  C
  H115     1.0000 0.94200  0.36430  0.93830  Biso   1.000  H
  C344     1.0000 0.89977  0.28445  0.89688  Biso   1.000  C
  C345     1.0000 0.96592  0.35269  0.89500  Biso   1.000  C
  C346     1.0000 0.85188  0.28384  0.85067  Biso   1.000  C
  C347     1.0000 0.83886  0.30554  0.83783  Biso   1.000  C
  C348     1.0000 0.81686  0.31613  0.84906  Biso   1.000  C
  H116     1.0000 0.80970  0.30840  0.86370  Biso   1.000  H
  Cu30     1.0000 0.89241  0.74970  0.35720  Biso   1.000  Cu
  O233     1.0000 0.91115  0.87024  0.47370  Biso   1.000  O
  O234     1.0000 0.88153  0.83998  0.47345  Biso   1.000  O
  O235     1.0000 0.87888  0.77755  0.40617  Biso   1.000  O
  O236     1.0000 0.91050  0.77450  0.37794  Biso   1.000  O
  O237     1.0000 0.97397  0.84302  0.37501  Biso   1.000  O
  O238     1.0000 0.97398  0.87274  0.40536  Biso   1.000  O
  O239     1.0000 0.87291  0.77773  0.34159  Biso   1.000  O
  O240     1.0000 0.84111  0.77469  0.36949  Biso   1.000  O
  C349     1.0000 0.90100  0.85042  0.46493  Biso   1.000  C
  C350     1.0000 0.91311  0.83837  0.44210  Biso   1.000  C
  C351     1.0000 0.90222  0.81702  0.43145  Biso   1.000  C
  H117     1.0000 0.88760  0.80950  0.43900  Biso   1.000  H
  C352     1.0000 0.91280  0.80652  0.40943  Biso   1.000  C
  C353     1.0000 0.93363  0.81791  0.39781  Biso   1.000  C
  H118     1.0000 0.94040  0.81090  0.38260  Biso   1.000  H
  C354     1.0000 0.94457  0.83934  0.40830  Biso   1.000  C
  C355     1.0000 0.93445  0.84972  0.43081  Biso   1.000  C
  H119     1.0000 0.94200  0.86430  0.43830  Biso   1.000  H
  C356     1.0000 0.89977  0.78445  0.39688  Biso   1.000  C
  C357     1.0000 0.96592  0.85269  0.39500  Biso   1.000  C
  C358     1.0000 0.85188  0.78384  0.35067  Biso   1.000  C
  C359     1.0000 0.83886  0.80554  0.33783  Biso   1.000  C
  C360     1.0000 0.81686  0.81613  0.34906  Biso   1.000  C
  H120     1.0000 0.80970  0.80840  0.36370  Biso   1.000  H
  Cu31     1.0000 0.39241  0.24970  0.35720  Biso   1.000  Cu
  O241     1.0000 0.41115  0.37024  0.47370  Biso   1.000  O
  O242     1.0000 0.38153  0.33998  0.47345  Biso   1.000  O
  O243     1.0000 0.37888  0.27755  0.40617  Biso   1.000  O
  O244     1.0000 0.41050  0.27450  0.37794  Biso   1.000  O
  O245     1.0000 0.47397  0.34302  0.37501  Biso   1.000  O
  O246     1.0000 0.47398  0.37274  0.40536  Biso   1.000  O
  O247     1.0000 0.37291  0.27773  0.34159  Biso   1.000  O
  O248     1.0000 0.34111  0.27469  0.36949  Biso   1.000  O
  C361     1.0000 0.40100  0.35042  0.46493  Biso   1.000  C
  C362     1.0000 0.41311  0.33837  0.44210  Biso   1.000  C
  C363     1.0000 0.40222  0.31702  0.43145  Biso   1.000  C
  H121     1.0000 0.38760  0.30950  0.43900  Biso   1.000  H
  C364     1.0000 0.41280  0.30652  0.40943  Biso   1.000  C
  C365     1.0000 0.43363  0.31791  0.39781  Biso   1.000  C
  H122     1.0000 0.44040  0.31090  0.38260  Biso   1.000  H
  C366     1.0000 0.44457  0.33934  0.40830  Biso   1.000  C
  C367     1.0000 0.43445  0.34972  0.43081  Biso   1.000  C
  H123     1.0000 0.44200  0.36430  0.43830  Biso   1.000  H
  C368     1.0000 0.39977  0.28445  0.39688  Biso   1.000  C
  C369     1.0000 0.46592  0.35269  0.39500  Biso   1.000  C
  C370     1.0000 0.35188  0.28384  0.35067  Biso   1.000  C
  C371     1.0000 0.33886  0.30554  0.33783  Biso   1.000  C
  C372     1.0000 0.31686  0.31613  0.34906  Biso   1.000  C
  H124     1.0000 0.30970  0.30840  0.36370  Biso   1.000  H
  Cu32     1.0000 0.39241  0.74970  0.85720  Biso   1.000  Cu
  O249     1.0000 0.41115  0.87024  0.97370  Biso   1.000  O
  O250     1.0000 0.38153  0.83998  0.97345  Biso   1.000  O
  O251     1.0000 0.37888  0.77755  0.90617  Biso   1.000  O
  O252     1.0000 0.41050  0.77450  0.87794  Biso   1.000  O
  O253     1.0000 0.47397  0.84302  0.87501  Biso   1.000  O
  O254     1.0000 0.47398  0.87274  0.90536  Biso   1.000  O
  O255     1.0000 0.37291  0.77773  0.84159  Biso   1.000  O
  O256     1.0000 0.34111  0.77469  0.86949  Biso   1.000  O
  C373     1.0000 0.40100  0.85042  0.96493  Biso   1.000  C
  C374     1.0000 0.41311  0.83837  0.94210  Biso   1.000  C
  C375     1.0000 0.40222  0.81702  0.93145  Biso   1.000  C
  H125     1.0000 0.38760  0.80950  0.93900  Biso   1.000  H
  C376     1.0000 0.41280  0.80652  0.90943  Biso   1.000  C
  C377     1.0000 0.43363  0.81791  0.89781  Biso   1.000  C
  H126     1.0000 0.44040  0.81090  0.88260  Biso   1.000  H
  C378     1.0000 0.44457  0.83934  0.90830  Biso   1.000  C
  C379     1.0000 0.43445  0.84972  0.93081  Biso   1.000  C
  H127     1.0000 0.44200  0.86430  0.93830  Biso   1.000  H
  C380     1.0000 0.39977  0.78445  0.89688  Biso   1.000  C
  C381     1.0000 0.46592  0.85269  0.89500  Biso   1.000  C
  C382     1.0000 0.35188  0.78384  0.85067  Biso   1.000  C
  C383     1.0000 0.33886  0.80554  0.83783  Biso   1.000  C
  C384     1.0000 0.31686  0.81613  0.84906  Biso   1.000  C
  H128     1.0000 0.30970  0.80840  0.86370  Biso   1.000  H
  Cu33     1.0000 0.14280  0.10759  0.24970  Biso   1.000  Cu
  O257     1.0000 0.02630  0.08885  0.37024  Biso   1.000  O
  O258     1.0000 0.02655  0.11847  0.33998  Biso   1.000  O
  O259     1.0000 0.09383  0.12112  0.27755  Biso   1.000  O
  O260     1.0000 0.12206  0.08950  0.27450  Biso   1.000  O
  O261     1.0000 0.12499  0.02603  0.34302  Biso   1.000  O
  O262     1.0000 0.09464  0.02602  0.37274  Biso   1.000  O
  O263     1.0000 0.15841  0.12709  0.27773  Biso   1.000  O
  O264     1.0000 0.13051  0.15889  0.27469  Biso   1.000  O
  C385     1.0000 0.03507  0.09900  0.35042  Biso   1.000  C
  C386     1.0000 0.05790  0.08689  0.33837  Biso   1.000  C
  C387     1.0000 0.06855  0.09778  0.31702  Biso   1.000  C
  H129     1.0000 0.06100  0.11240  0.30950  Biso   1.000  H
  C388     1.0000 0.09057  0.08720  0.30652  Biso   1.000  C
  C389     1.0000 0.10219  0.06637  0.31791  Biso   1.000  C
  H130     1.0000 0.11740  0.05960  0.31090  Biso   1.000  H
  C390     1.0000 0.09170  0.05543  0.33934  Biso   1.000  C
  C391     1.0000 0.06919  0.06555  0.34972  Biso   1.000  C
  H131     1.0000 0.06170  0.05800  0.36430  Biso   1.000  H
  C392     1.0000 0.10312  0.10023  0.28445  Biso   1.000  C
  C393     1.0000 0.10500  0.03408  0.35269  Biso   1.000  C
  C394     1.0000 0.14933  0.14812  0.28384  Biso   1.000  C
  C395     1.0000 0.16217  0.16114  0.30554  Biso   1.000  C
  C396     1.0000 0.15094  0.18314  0.31613  Biso   1.000  C
  H132     1.0000 0.13630  0.19030  0.30840  Biso   1.000  H
  Cu34     1.0000 0.14280  0.60759  0.74970  Biso   1.000  Cu
  O265     1.0000 0.02630  0.58885  0.87024  Biso   1.000  O
  O266     1.0000 0.02655  0.61847  0.83998  Biso   1.000  O
  O267     1.0000 0.09383  0.62112  0.77755  Biso   1.000  O
  O268     1.0000 0.12206  0.58950  0.77450  Biso   1.000  O
  O269     1.0000 0.12499  0.52603  0.84302  Biso   1.000  O
  O270     1.0000 0.09464  0.52602  0.87274  Biso   1.000  O
  O271     1.0000 0.15841  0.62709  0.77773  Biso   1.000  O
  O272     1.0000 0.13051  0.65889  0.77469  Biso   1.000  O
  C397     1.0000 0.03507  0.59900  0.85042  Biso   1.000  C
  C398     1.0000 0.05790  0.58689  0.83837  Biso   1.000  C
  C399     1.0000 0.06855  0.59778  0.81702  Biso   1.000  C
  H133     1.0000 0.06100  0.61240  0.80950  Biso   1.000  H
  C400     1.0000 0.09057  0.58720  0.80652  Biso   1.000  C
  C401     1.0000 0.10219  0.56637  0.81791  Biso   1.000  C
  H134     1.0000 0.11740  0.55960  0.81090  Biso   1.000  H
  C402     1.0000 0.09170  0.55543  0.83934  Biso   1.000  C
  C403     1.0000 0.06919  0.56555  0.84972  Biso   1.000  C
  H135     1.0000 0.06170  0.55800  0.86430  Biso   1.000  H
  C404     1.0000 0.10312  0.60023  0.78445  Biso   1.000  C
  C405     1.0000 0.10500  0.53408  0.85269  Biso   1.000  C
  C406     1.0000 0.14933  0.64812  0.78384  Biso   1.000  C
  C407     1.0000 0.16217  0.66114  0.80554  Biso   1.000  C
  C408     1.0000 0.15094  0.68314  0.81613  Biso   1.000  C
  H136     1.0000 0.13630  0.69030  0.80840  Biso   1.000  H
  Cu35     1.0000 0.64280  0.10759  0.74970  Biso   1.000  Cu
  O273     1.0000 0.52630  0.08885  0.87024  Biso   1.000  O
  O274     1.0000 0.52655  0.11847  0.83998  Biso   1.000  O
  O275     1.0000 0.59383  0.12112  0.77755  Biso   1.000  O
  O276     1.0000 0.62206  0.08950  0.77450  Biso   1.000  O
  O277     1.0000 0.62499  0.02603  0.84302  Biso   1.000  O
  O278     1.0000 0.59464  0.02602  0.87274  Biso   1.000  O
  O279     1.0000 0.65841  0.12709  0.77773  Biso   1.000  O
  O280     1.0000 0.63051  0.15889  0.77469  Biso   1.000  O
  C409     1.0000 0.53507  0.09900  0.85042  Biso   1.000  C
  C410     1.0000 0.55790  0.08689  0.83837  Biso   1.000  C
  C411     1.0000 0.56855  0.09778  0.81702  Biso   1.000  C
  H137     1.0000 0.56100  0.11240  0.80950  Biso   1.000  H
  C412     1.0000 0.59057  0.08720  0.80652  Biso   1.000  C
  C413     1.0000 0.60219  0.06637  0.81791  Biso   1.000  C
  H138     1.0000 0.61740  0.05960  0.81090  Biso   1.000  H
  C414     1.0000 0.59170  0.05543  0.83934  Biso   1.000  C
  C415     1.0000 0.56919  0.06555  0.84972  Biso   1.000  C
  H139     1.0000 0.56170  0.05800  0.86430  Biso   1.000  H
  C416     1.0000 0.60312  0.10023  0.78445  Biso   1.000  C
  C417     1.0000 0.60500  0.03408  0.85269  Biso   1.000  C
  C418     1.0000 0.64933  0.14812  0.78384  Biso   1.000  C
  C419     1.0000 0.66217  0.16114  0.80554  Biso   1.000  C
  C420     1.0000 0.65094  0.18314  0.81613  Biso   1.000  C
  H140     1.0000 0.63630  0.19030  0.80840  Biso   1.000  H
  Cu36     1.0000 0.64280  0.60759  0.24970  Biso   1.000  Cu
  O281     1.0000 0.52630  0.58885  0.37024  Biso   1.000  O
  O282     1.0000 0.52655  0.61847  0.33998  Biso   1.000  O
  O283     1.0000 0.59383  0.62112  0.27755  Biso   1.000  O
  O284     1.0000 0.62206  0.58950  0.27450  Biso   1.000  O
  O285     1.0000 0.62499  0.52603  0.34302  Biso   1.000  O
  O286     1.0000 0.59464  0.52602  0.37274  Biso   1.000  O
  O287     1.0000 0.65841  0.62709  0.27773  Biso   1.000  O
  O288     1.0000 0.63051  0.65889  0.27469  Biso   1.000  O
  C421     1.0000 0.53507  0.59900  0.35042  Biso   1.000  C
  C422     1.0000 0.55790  0.58689  0.33837  Biso   1.000  C
  C423     1.0000 0.56855  0.59778  0.31702  Biso   1.000  C
  H141     1.0000 0.56100  0.61240  0.30950  Biso   1.000  H
  C424     1.0000 0.59057  0.58720  0.30652  Biso   1.000  C
  C425     1.0000 0.60219  0.56637  0.31791  Biso   1.000  C
  H142     1.0000 0.61740  0.55960  0.31090  Biso   1.000  H
  C426     1.0000 0.59170  0.55543  0.33934  Biso   1.000  C
  C427     1.0000 0.56919  0.56555  0.34972  Biso   1.000  C
  H143     1.0000 0.56170  0.55800  0.36430  Biso   1.000  H
  C428     1.0000 0.60312  0.60023  0.28445  Biso   1.000  C
  C429     1.0000 0.60500  0.53408  0.35269  Biso   1.000  C
  C430     1.0000 0.64933  0.64812  0.28384  Biso   1.000  C
  C431     1.0000 0.66217  0.66114  0.30554  Biso   1.000  C
  C432     1.0000 0.65094  0.68314  0.31613  Biso   1.000  C
  H144     1.0000 0.63630  0.69030  0.30840  Biso   1.000  H
  Cu37     1.0000 0.85720  0.10759  0.75030  Biso   1.000  Cu
  O289     1.0000 0.97370  0.08885  0.62976  Biso   1.000  O
  O290     1.0000 0.97345  0.11847  0.66002  Biso   1.000  O
  O291     1.0000 0.90617  0.12112  0.72245  Biso   1.000  O
  O292     1.0000 0.87794  0.08950  0.72550  Biso   1.000  O
  O293     1.0000 0.87501  0.02603  0.65698  Biso   1.000  O
  O294     1.0000 0.90536  0.02602  0.62726  Biso   1.000  O
  O295     1.0000 0.84159  0.12709  0.72227  Biso   1.000  O
  O296     1.0000 0.86949  0.15889  0.72531  Biso   1.000  O
  C433     1.0000 0.96493  0.09900  0.64958  Biso   1.000  C
  C434     1.0000 0.94210  0.08689  0.66163  Biso   1.000  C
  C435     1.0000 0.93145  0.09778  0.68298  Biso   1.000  C
  H145     1.0000 0.93900  0.11240  0.69050  Biso   1.000  H
  C436     1.0000 0.90943  0.08720  0.69348  Biso   1.000  C
  C437     1.0000 0.89781  0.06637  0.68209  Biso   1.000  C
  H146     1.0000 0.88260  0.05960  0.68910  Biso   1.000  H
  C438     1.0000 0.90830  0.05543  0.66066  Biso   1.000  C
  C439     1.0000 0.93081  0.06555  0.65028  Biso   1.000  C
  H147     1.0000 0.93830  0.05800  0.63570  Biso   1.000  H
  C440     1.0000 0.89688  0.10023  0.71555  Biso   1.000  C
  C441     1.0000 0.89500  0.03408  0.64731  Biso   1.000  C
  C442     1.0000 0.85067  0.14812  0.71616  Biso   1.000  C
  C443     1.0000 0.83783  0.16114  0.69446  Biso   1.000  C
  C444     1.0000 0.84906  0.18314  0.68387  Biso   1.000  C
  H148     1.0000 0.86370  0.19030  0.69160  Biso   1.000  H
  Cu38     1.0000 0.85720  0.60759  0.25030  Biso   1.000  Cu
  O297     1.0000 0.97370  0.58885  0.12976  Biso   1.000  O
  O298     1.0000 0.97345  0.61847  0.16002  Biso   1.000  O
  O299     1.0000 0.90617  0.62112  0.22245  Biso   1.000  O
  O300     1.0000 0.87794  0.58950  0.22550  Biso   1.000  O
  O301     1.0000 0.87501  0.52603  0.15698  Biso   1.000  O
  O302     1.0000 0.90536  0.52602  0.12726  Biso   1.000  O
  O303     1.0000 0.84159  0.62709  0.22227  Biso   1.000  O
  O304     1.0000 0.86949  0.65889  0.22531  Biso   1.000  O
  C445     1.0000 0.96493  0.59900  0.14958  Biso   1.000  C
  C446     1.0000 0.94210  0.58689  0.16163  Biso   1.000  C
  C447     1.0000 0.93145  0.59778  0.18298  Biso   1.000  C
  H149     1.0000 0.93900  0.61240  0.19050  Biso   1.000  H
  C448     1.0000 0.90943  0.58720  0.19348  Biso   1.000  C
  C449     1.0000 0.89781  0.56637  0.18209  Biso   1.000  C
  H150     1.0000 0.88260  0.55960  0.18910  Biso   1.000  H
  C450     1.0000 0.90830  0.55543  0.16066  Biso   1.000  C
  C451     1.0000 0.93081  0.56555  0.15028  Biso   1.000  C
  H151     1.0000 0.93830  0.55800  0.13570  Biso   1.000  H
  C452     1.0000 0.89688  0.60023  0.21555  Biso   1.000  C
  C453     1.0000 0.89500  0.53408  0.14731  Biso   1.000  C
  C454     1.0000 0.85067  0.64812  0.21616  Biso   1.000  C
  C455     1.0000 0.83783  0.66114  0.19446  Biso   1.000  C
  C456     1.0000 0.84906  0.68314  0.18387  Biso   1.000  C
  H152     1.0000 0.86370  0.69030  0.19160  Biso   1.000  H
  Cu39     1.0000 0.35720  0.10759  0.25030  Biso   1.000  Cu
  O305     1.0000 0.47370  0.08885  0.12976  Biso   1.000  O
  O306     1.0000 0.47345  0.11847  0.16002  Biso   1.000  O
  O307     1.0000 0.40617  0.12112  0.22245  Biso   1.000  O
  O308     1.0000 0.37794  0.08950  0.22550  Biso   1.000  O
  O309     1.0000 0.37501  0.02603  0.15698  Biso   1.000  O
  O310     1.0000 0.40536  0.02602  0.12726  Biso   1.000  O
  O311     1.0000 0.34159  0.12709  0.22227  Biso   1.000  O
  O312     1.0000 0.36949  0.15889  0.22531  Biso   1.000  O
  C457     1.0000 0.46493  0.09900  0.14958  Biso   1.000  C
  C458     1.0000 0.44210  0.08689  0.16163  Biso   1.000  C
  C459     1.0000 0.43145  0.09778  0.18298  Biso   1.000  C
  H153     1.0000 0.43900  0.11240  0.19050  Biso   1.000  H
  C460     1.0000 0.40943  0.08720  0.19348  Biso   1.000  C
  C461     1.0000 0.39781  0.06637  0.18209  Biso   1.000  C
  H154     1.0000 0.38260  0.05960  0.18910  Biso   1.000  H
  C462     1.0000 0.40830  0.05543  0.16066  Biso   1.000  C
  C463     1.0000 0.43081  0.06555  0.15028  Biso   1.000  C
  H155     1.0000 0.43830  0.05800  0.13570  Biso   1.000  H
  C464     1.0000 0.39688  0.10023  0.21555  Biso   1.000  C
  C465     1.0000 0.39500  0.03408  0.14731  Biso   1.000  C
  C466     1.0000 0.35067  0.14812  0.21616  Biso   1.000  C
  C467     1.0000 0.33783  0.16114  0.19446  Biso   1.000  C
  C468     1.0000 0.34906  0.18314  0.18387  Biso   1.000  C
  H156     1.0000 0.36370  0.19030  0.19160  Biso   1.000  H
  Cu40     1.0000 0.35720  0.60759  0.75030  Biso   1.000  Cu
  O313     1.0000 0.47370  0.58885  0.62976  Biso   1.000  O
  O314     1.0000 0.47345  0.61847  0.66002  Biso   1.000  O
  O315     1.0000 0.40617  0.62112  0.72245  Biso   1.000  O
  O316     1.0000 0.37794  0.58950  0.72550  Biso   1.000  O
  O317     1.0000 0.37501  0.52603  0.65698  Biso   1.000  O
  O318     1.0000 0.40536  0.52602  0.62726  Biso   1.000  O
  O319     1.0000 0.34159  0.62709  0.72227  Biso   1.000  O
  O320     1.0000 0.36949  0.65889  0.72531  Biso   1.000  O
  C469     1.0000 0.46493  0.59900  0.64958  Biso   1.000  C
  C470     1.0000 0.44210  0.58689  0.66163  Biso   1.000  C
  C471     1.0000 0.43145  0.59778  0.68298  Biso   1.000  C
  H157     1.0000 0.43900  0.61240  0.69050  Biso   1.000  H
  C472     1.0000 0.40943  0.58720  0.69348  Biso   1.000  C
  C473     1.0000 0.39781  0.56637  0.68209  Biso   1.000  C
  H158     1.0000 0.38260  0.55960  0.68910  Biso   1.000  H
  C474     1.0000 0.40830  0.55543  0.66066  Biso   1.000  C
  C475     1.0000 0.43081  0.56555  0.65028  Biso   1.000  C
  H159     1.0000 0.43830  0.55800  0.63570  Biso   1.000  H
  C476     1.0000 0.39688  0.60023  0.71555  Biso   1.000  C
  C477     1.0000 0.39500  0.53408  0.64731  Biso   1.000  C
  C478     1.0000 0.35067  0.64812  0.71616  Biso   1.000  C
  C479     1.0000 0.33783  0.66114  0.69446  Biso   1.000  C
  C480     1.0000 0.34906  0.68314  0.68387  Biso   1.000  C
  H160     1.0000 0.36370  0.69030  0.69160  Biso   1.000  H
  Cu41     1.0000 0.14280  0.89241  0.75030  Biso   1.000  Cu
  O321     1.0000 0.02630  0.91115  0.62976  Biso   1.000  O
  O322     1.0000 0.02655  0.88153  0.66002  Biso   1.000  O
  O323     1.0000 0.09383  0.87888  0.72245  Biso   1.000  O
  O324     1.0000 0.12206  0.91050  0.72550  Biso   1.000  O
  O325     1.0000 0.12499  0.97397  0.65698  Biso   1.000  O
  O326     1.0000 0.09464  0.97398  0.62726  Biso   1.000  O
  O327     1.0000 0.15841  0.87291  0.72227  Biso   1.000  O
  O328     1.0000 0.13051  0.84111  0.72531  Biso   1.000  O
  C481     1.0000 0.03507  0.90100  0.64958  Biso   1.000  C
  C482     1.0000 0.05790  0.91311  0.66163  Biso   1.000  C
  C483     1.0000 0.06855  0.90222  0.68298  Biso   1.000  C
  H161     1.0000 0.06100  0.88760  0.69050  Biso   1.000  H
  C484     1.0000 0.09057  0.91280  0.69348  Biso   1.000  C
  C485     1.0000 0.10219  0.93363  0.68209  Biso   1.000  C
  H162     1.0000 0.11740  0.94040  0.68910  Biso   1.000  H
  C486     1.0000 0.09170  0.94457  0.66066  Biso   1.000  C
  C487     1.0000 0.06919  0.93445  0.65028  Biso   1.000  C
  H163     1.0000 0.06170  0.94200  0.63570  Biso   1.000  H
  C488     1.0000 0.10312  0.89977  0.71555  Biso   1.000  C
  C489     1.0000 0.10500  0.96592  0.64731  Biso   1.000  C
  C490     1.0000 0.14933  0.85188  0.71616  Biso   1.000  C
  C491     1.0000 0.16217  0.83886  0.69446  Biso   1.000  C
  C492     1.0000 0.15094  0.81686  0.68387  Biso   1.000  C
  H164     1.0000 0.13630  0.80970  0.69160  Biso   1.000  H
  Cu42     1.0000 0.14280  0.39241  0.25030  Biso   1.000  Cu
  O329     1.0000 0.02630  0.41115  0.12976  Biso   1.000  O
  O330     1.0000 0.02655  0.38153  0.16002  Biso   1.000  O
  O331     1.0000 0.09383  0.37888  0.22245  Biso   1.000  O
  O332     1.0000 0.12206  0.41050  0.22550  Biso   1.000  O
  O333     1.0000 0.12499  0.47397  0.15698  Biso   1.000  O
  O334     1.0000 0.09464  0.47398  0.12726  Biso   1.000  O
  O335     1.0000 0.15841  0.37291  0.22227  Biso   1.000  O
  O336     1.0000 0.13051  0.34111  0.22531  Biso   1.000  O
  C493     1.0000 0.03507  0.40100  0.14958  Biso   1.000  C
  C494     1.0000 0.05790  0.41311  0.16163  Biso   1.000  C
  C495     1.0000 0.06855  0.40222  0.18298  Biso   1.000  C
  H165     1.0000 0.06100  0.38760  0.19050  Biso   1.000  H
  C496     1.0000 0.09057  0.41280  0.19348  Biso   1.000  C
  C497     1.0000 0.10219  0.43363  0.18209  Biso   1.000  C
  H166     1.0000 0.11740  0.44040  0.18910  Biso   1.000  H
  C498     1.0000 0.09170  0.44457  0.16066  Biso   1.000  C
  C499     1.0000 0.06919  0.43445  0.15028  Biso   1.000  C
  H167     1.0000 0.06170  0.44200  0.13570  Biso   1.000  H
  C500     1.0000 0.10312  0.39977  0.21555  Biso   1.000  C
  C501     1.0000 0.10500  0.46592  0.14731  Biso   1.000  C
  C502     1.0000 0.14933  0.35188  0.21616  Biso   1.000  C
  C503     1.0000 0.16217  0.33886  0.19446  Biso   1.000  C
  C504     1.0000 0.15094  0.31686  0.18387  Biso   1.000  C
  H168     1.0000 0.13630  0.30970  0.19160  Biso   1.000  H
  Cu43     1.0000 0.64280  0.89241  0.25030  Biso   1.000  Cu
  O337     1.0000 0.52630  0.91115  0.12976  Biso   1.000  O
  O338     1.0000 0.52655  0.88153  0.16002  Biso   1.000  O
  O339     1.0000 0.59383  0.87888  0.22245  Biso   1.000  O
  O340     1.0000 0.62206  0.91050  0.22550  Biso   1.000  O
  O341     1.0000 0.62499  0.97397  0.15698  Biso   1.000  O
  O342     1.0000 0.59464  0.97398  0.12726  Biso   1.000  O
  O343     1.0000 0.65841  0.87291  0.22227  Biso   1.000  O
  O344     1.0000 0.63051  0.84111  0.22531  Biso   1.000  O
  C505     1.0000 0.53507  0.90100  0.14958  Biso   1.000  C
  C506     1.0000 0.55790  0.91311  0.16163  Biso   1.000  C
  C507     1.0000 0.56855  0.90222  0.18298  Biso   1.000  C
  H169     1.0000 0.56100  0.88760  0.19050  Biso   1.000  H
  C508     1.0000 0.59057  0.91280  0.19348  Biso   1.000  C
  C509     1.0000 0.60219  0.93363  0.18209  Biso   1.000  C
  H170     1.0000 0.61740  0.94040  0.18910  Biso   1.000  H
  C510     1.0000 0.59170  0.94457  0.16066  Biso   1.000  C
  C511     1.0000 0.56919  0.93445  0.15028  Biso   1.000  C
  H171     1.0000 0.56170  0.94200  0.13570  Biso   1.000  H
  C512     1.0000 0.60312  0.89977  0.21555  Biso   1.000  C
  C513     1.0000 0.60500  0.96592  0.14731  Biso   1.000  C
  C514     1.0000 0.64933  0.85188  0.21616  Biso   1.000  C
  C515     1.0000 0.66217  0.83886  0.19446  Biso   1.000  C
  C516     1.0000 0.65094  0.81686  0.18387  Biso   1.000  C
  H172     1.0000 0.63630  0.80970  0.19160  Biso   1.000  H
  Cu44     1.0000 0.64280  0.39241  0.75030  Biso   1.000  Cu
  O345     1.0000 0.52630  0.41115  0.62976  Biso   1.000  O
  O346     1.0000 0.52655  0.38153  0.66002  Biso   1.000  O
  O347     1.0000 0.59383  0.37888  0.72245  Biso   1.000  O
  O348     1.0000 0.62206  0.41050  0.72550  Biso   1.000  O
  O349     1.0000 0.62499  0.47397  0.65698  Biso   1.000  O
  O350     1.0000 0.59464  0.47398  0.62726  Biso   1.000  O
  O351     1.0000 0.65841  0.37291  0.72227  Biso   1.000  O
  O352     1.0000 0.63051  0.34111  0.72531  Biso   1.000  O
  C517     1.0000 0.53507  0.40100  0.64958  Biso   1.000  C
  C518     1.0000 0.55790  0.41311  0.66163  Biso   1.000  C
  C519     1.0000 0.56855  0.40222  0.68298  Biso   1.000  C
  H173     1.0000 0.56100  0.38760  0.69050  Biso   1.000  H
  C520     1.0000 0.59057  0.41280  0.69348  Biso   1.000  C
  C521     1.0000 0.60219  0.43363  0.68209  Biso   1.000  C
  H174     1.0000 0.61740  0.44040  0.68910  Biso   1.000  H
  C522     1.0000 0.59170  0.44457  0.66066  Biso   1.000  C
  C523     1.0000 0.56919  0.43445  0.65028  Biso   1.000  C
  H175     1.0000 0.56170  0.44200  0.63570  Biso   1.000  H
  C524     1.0000 0.60312  0.39977  0.71555  Biso   1.000  C
  C525     1.0000 0.60500  0.46592  0.64731  Biso   1.000  C
  C526     1.0000 0.64933  0.35188  0.71616  Biso   1.000  C
  C527     1.0000 0.66217  0.33886  0.69446  Biso   1.000  C
  C528     1.0000 0.65094  0.31686  0.68387  Biso   1.000  C
  H176     1.0000 0.63630  0.30970  0.69160  Biso   1.000  H
  Cu45     1.0000 0.85720  0.89241  0.24970  Biso   1.000  Cu
  O353     1.0000 0.97370  0.91115  0.37024  Biso   1.000  O
  O354     1.0000 0.97345  0.88153  0.33998  Biso   1.000  O
  O355     1.0000 0.90617  0.87888  0.27755  Biso   1.000  O
  O356     1.0000 0.87794  0.91050  0.27450  Biso   1.000  O
  O357     1.0000 0.87501  0.97397  0.34302  Biso   1.000  O
  O358     1.0000 0.90536  0.97398  0.37274  Biso   1.000  O
  O359     1.0000 0.84159  0.87291  0.27773  Biso   1.000  O
  O360     1.0000 0.86949  0.84111  0.27469  Biso   1.000  O
  C529     1.0000 0.96493  0.90100  0.35042  Biso   1.000  C
  C530     1.0000 0.94210  0.91311  0.33837  Biso   1.000  C
  C531     1.0000 0.93145  0.90222  0.31702  Biso   1.000  C
  H177     1.0000 0.93900  0.88760  0.30950  Biso   1.000  H
  C532     1.0000 0.90943  0.91280  0.30652  Biso   1.000  C
  C533     1.0000 0.89781  0.93363  0.31791  Biso   1.000  C
  H178     1.0000 0.88260  0.94040  0.31090  Biso   1.000  H
  C534     1.0000 0.90830  0.94457  0.33934  Biso   1.000  C
  C535     1.0000 0.93081  0.93445  0.34972  Biso   1.000  C
  H179     1.0000 0.93830  0.94200  0.36430  Biso   1.000  H
  C536     1.0000 0.89688  0.89977  0.28445  Biso   1.000  C
  C537     1.0000 0.89500  0.96592  0.35269  Biso   1.000  C
  C538     1.0000 0.85067  0.85188  0.28384  Biso   1.000  C
  C539     1.0000 0.83783  0.83886  0.30554  Biso   1.000  C
  C540     1.0000 0.84906  0.81686  0.31613  Biso   1.000  C
  H180     1.0000 0.86370  0.80970  0.30840  Biso   1.000  H
  Cu46     1.0000 0.85720  0.39241  0.74970  Biso   1.000  Cu
  O361     1.0000 0.97370  0.41115  0.87024  Biso   1.000  O
  O362     1.0000 0.97345  0.38153  0.83998  Biso   1.000  O
  O363     1.0000 0.90617  0.37888  0.77755  Biso   1.000  O
  O364     1.0000 0.87794  0.41050  0.77450  Biso   1.000  O
  O365     1.0000 0.87501  0.47397  0.84302  Biso   1.000  O
  O366     1.0000 0.90536  0.47398  0.87274  Biso   1.000  O
  O367     1.0000 0.84159  0.37291  0.77773  Biso   1.000  O
  O368     1.0000 0.86949  0.34111  0.77469  Biso   1.000  O
  C541     1.0000 0.96493  0.40100  0.85042  Biso   1.000  C
  C542     1.0000 0.94210  0.41311  0.83837  Biso   1.000  C
  C543     1.0000 0.93145  0.40222  0.81702  Biso   1.000  C
  H181     1.0000 0.93900  0.38760  0.80950  Biso   1.000  H
  C544     1.0000 0.90943  0.41280  0.80652  Biso   1.000  C
  C545     1.0000 0.89781  0.43363  0.81791  Biso   1.000  C
  H182     1.0000 0.88260  0.44040  0.81090  Biso   1.000  H
  C546     1.0000 0.90830  0.44457  0.83934  Biso   1.000  C
  C547     1.0000 0.93081  0.43445  0.84972  Biso   1.000  C
  H183     1.0000 0.93830  0.44200  0.86430  Biso   1.000  H
  C548     1.0000 0.89688  0.39977  0.78445  Biso   1.000  C
  C549     1.0000 0.89500  0.46592  0.85269  Biso   1.000  C
  C550     1.0000 0.85067  0.35188  0.78384  Biso   1.000  C
  C551     1.0000 0.83783  0.33886  0.80554  Biso   1.000  C
  C552     1.0000 0.84906  0.31686  0.81613  Biso   1.000  C
  H184     1.0000 0.86370  0.30970  0.80840  Biso   1.000  H
  Cu47     1.0000 0.35720  0.89241  0.74970  Biso   1.000  Cu
  O369     1.0000 0.47370  0.91115  0.87024  Biso   1.000  O
  O370     1.0000 0.47345  0.88153  0.83998  Biso   1.000  O
  O371     1.0000 0.40617  0.87888  0.77755  Biso   1.000  O
  O372     1.0000 0.37794  0.91050  0.77450  Biso   1.000  O
  O373     1.0000 0.37501  0.97397  0.84302  Biso   1.000  O
  O374     1.0000 0.40536  0.97398  0.87274  Biso   1.000  O
  O375     1.0000 0.34159  0.87291  0.77773  Biso   1.000  O
  O376     1.0000 0.36949  0.84111  0.77469  Biso   1.000  O
  C553     1.0000 0.46493  0.90100  0.85042  Biso   1.000  C
  C554     1.0000 0.44210  0.91311  0.83837  Biso   1.000  C
  C555     1.0000 0.43145  0.90222  0.81702  Biso   1.000  C
  H185     1.0000 0.43900  0.88760  0.80950  Biso   1.000  H
  C556     1.0000 0.40943  0.91280  0.80652  Biso   1.000  C
  C557     1.0000 0.39781  0.93363  0.81791  Biso   1.000  C
  H186     1.0000 0.38260  0.94040  0.81090  Biso   1.000  H
  C558     1.0000 0.40830  0.94457  0.83934  Biso   1.000  C
  C559     1.0000 0.43081  0.93445  0.84972  Biso   1.000  C
  H187     1.0000 0.43830  0.94200  0.86430  Biso   1.000  H
  C560     1.0000 0.39688  0.89977  0.78445  Biso   1.000  C
  C561     1.0000 0.39500  0.96592  0.85269  Biso   1.000  C
  C562     1.0000 0.35067  0.85188  0.78384  Biso   1.000  C
  C563     1.0000 0.33783  0.83886  0.80554  Biso   1.000  C
  C564     1.0000 0.34906  0.81686  0.81613  Biso   1.000  C
  H188     1.0000 0.36370  0.80970  0.80840  Biso   1.000  H
  Cu48     1.0000 0.35720  0.39241  0.24970  Biso   1.000  Cu
  O377     1.0000 0.47370  0.41115  0.37024  Biso   1.000  O
  O378     1.0000 0.47345  0.38153  0.33998  Biso   1.000  O
  O379     1.0000 0.40617  0.37888  0.27755  Biso   1.000  O
  O380     1.0000 0.37794  0.41050  0.27450  Biso   1.000  O
  O381     1.0000 0.37501  0.47397  0.34302  Biso   1.000  O
  O382     1.0000 0.40536  0.47398  0.37274  Biso   1.000  O
  O383     1.0000 0.34159  0.37291  0.27773  Biso   1.000  O
  O384     1.0000 0.36949  0.34111  0.27469  Biso   1.000  O
  C565     1.0000 0.46493  0.40100  0.35042  Biso   1.000  C
  C566     1.0000 0.44210  0.41311  0.33837  Biso   1.000  C
  C567     1.0000 0.43145  0.40222  0.31702  Biso   1.000  C
  H189     1.0000 0.43900  0.38760  0.30950  Biso   1.000  H
  C568     1.0000 0.40943  0.41280  0.30652  Biso   1.000  C
  C569     1.0000 0.39781  0.43363  0.31791  Biso   1.000  C
  H190     1.0000 0.38260  0.44040  0.31090  Biso   1.000  H
  C570     1.0000 0.40830  0.44457  0.33934  Biso   1.000  C
  C571     1.0000 0.43081  0.43445  0.34972  Biso   1.000  C
  H191     1.0000 0.43830  0.44200  0.36430  Biso   1.000  H
  C572     1.0000 0.39688  0.39977  0.28445  Biso   1.000  C
  C573     1.0000 0.39500  0.46592  0.35269  Biso   1.000  C
  C574     1.0000 0.35067  0.35188  0.28384  Biso   1.000  C
  C575     1.0000 0.33783  0.33886  0.30554  Biso   1.000  C
  C576     1.0000 0.34906  0.31686  0.31613  Biso   1.000  C
  H192     1.0000 0.36370  0.30970  0.30840  Biso   1.000  H
  Cu49     1.0000 0.64280  0.74970  0.39241  Biso   1.000  Cu
  O385     1.0000 0.52630  0.87024  0.41115  Biso   1.000  O
  O386     1.0000 0.52655  0.83998  0.38153  Biso   1.000  O
  O387     1.0000 0.59383  0.77755  0.37888  Biso   1.000  O
  O388     1.0000 0.62206  0.77450  0.41050  Biso   1.000  O
  O389     1.0000 0.62499  0.84302  0.47397  Biso   1.000  O
  O390     1.0000 0.59464  0.87274  0.47398  Biso   1.000  O
  O391     1.0000 0.65841  0.77773  0.37291  Biso   1.000  O
  O392     1.0000 0.63051  0.77469  0.34111  Biso   1.000  O
  C577     1.0000 0.53507  0.85042  0.40100  Biso   1.000  C
  C578     1.0000 0.55790  0.83837  0.41311  Biso   1.000  C
  C579     1.0000 0.56855  0.81702  0.40222  Biso   1.000  C
  H193     1.0000 0.56100  0.80950  0.38760  Biso   1.000  H
  C580     1.0000 0.59057  0.80652  0.41280  Biso   1.000  C
  C581     1.0000 0.60219  0.81791  0.43363  Biso   1.000  C
  H194     1.0000 0.61740  0.81090  0.44040  Biso   1.000  H
  C582     1.0000 0.59170  0.83934  0.44457  Biso   1.000  C
  C583     1.0000 0.56919  0.84972  0.43445  Biso   1.000  C
  H195     1.0000 0.56170  0.86430  0.44200  Biso   1.000  H
  C584     1.0000 0.60312  0.78445  0.39977  Biso   1.000  C
  C585     1.0000 0.60500  0.85269  0.46592  Biso   1.000  C
  C586     1.0000 0.64933  0.78384  0.35188  Biso   1.000  C
  C587     1.0000 0.66217  0.80554  0.33886  Biso   1.000  C
  C588     1.0000 0.65094  0.81613  0.31686  Biso   1.000  C
  H196     1.0000 0.63630  0.80840  0.30970  Biso   1.000  H
  Cu50     1.0000 0.64280  0.24970  0.89241  Biso   1.000  Cu
  O393     1.0000 0.52630  0.37024  0.91115  Biso   1.000  O
  O394     1.0000 0.52655  0.33998  0.88153  Biso   1.000  O
  O395     1.0000 0.59383  0.27755  0.87888  Biso   1.000  O
  O396     1.0000 0.62206  0.27450  0.91050  Biso   1.000  O
  O397     1.0000 0.62499  0.34302  0.97397  Biso   1.000  O
  O398     1.0000 0.59464  0.37274  0.97398  Biso   1.000  O
  O399     1.0000 0.65841  0.27773  0.87291  Biso   1.000  O
  O400     1.0000 0.63051  0.27469  0.84111  Biso   1.000  O
  C589     1.0000 0.53507  0.35042  0.90100  Biso   1.000  C
  C590     1.0000 0.55790  0.33837  0.91311  Biso   1.000  C
  C591     1.0000 0.56855  0.31702  0.90222  Biso   1.000  C
  H197     1.0000 0.56100  0.30950  0.88760  Biso   1.000  H
  C592     1.0000 0.59057  0.30652  0.91280  Biso   1.000  C
  C593     1.0000 0.60219  0.31791  0.93363  Biso   1.000  C
  H198     1.0000 0.61740  0.31090  0.94040  Biso   1.000  H
  C594     1.0000 0.59170  0.33934  0.94457  Biso   1.000  C
  C595     1.0000 0.56919  0.34972  0.93445  Biso   1.000  C
  H199     1.0000 0.56170  0.36430  0.94200  Biso   1.000  H
  C596     1.0000 0.60312  0.28445  0.89977  Biso   1.000  C
  C597     1.0000 0.60500  0.35269  0.96592  Biso   1.000  C
  C598     1.0000 0.64933  0.28384  0.85188  Biso   1.000  C
  C599     1.0000 0.66217  0.30554  0.83886  Biso   1.000  C
  C600     1.0000 0.65094  0.31613  0.81686  Biso   1.000  C
  H200     1.0000 0.63630  0.30840  0.80970  Biso   1.000  H
  Cu51     1.0000 0.14280  0.74970  0.89241  Biso   1.000  Cu
  O401     1.0000 0.02630  0.87024  0.91115  Biso   1.000  O
  O402     1.0000 0.02655  0.83998  0.88153  Biso   1.000  O
  O403     1.0000 0.09383  0.77755  0.87888  Biso   1.000  O
  O404     1.0000 0.12206  0.77450  0.91050  Biso   1.000  O
  O405     1.0000 0.12499  0.84302  0.97397  Biso   1.000  O
  O406     1.0000 0.09464  0.87274  0.97398  Biso   1.000  O
  O407     1.0000 0.15841  0.77773  0.87291  Biso   1.000  O
  O408     1.0000 0.13051  0.77469  0.84111  Biso   1.000  O
  C601     1.0000 0.03507  0.85042  0.90100  Biso   1.000  C
  C602     1.0000 0.05790  0.83837  0.91311  Biso   1.000  C
  C603     1.0000 0.06855  0.81702  0.90222  Biso   1.000  C
  H201     1.0000 0.06100  0.80950  0.88760  Biso   1.000  H
  C604     1.0000 0.09057  0.80652  0.91280  Biso   1.000  C
  C605     1.0000 0.10219  0.81791  0.93363  Biso   1.000  C
  H202     1.0000 0.11740  0.81090  0.94040  Biso   1.000  H
  C606     1.0000 0.09170  0.83934  0.94457  Biso   1.000  C
  C607     1.0000 0.06919  0.84972  0.93445  Biso   1.000  C
  H203     1.0000 0.06170  0.86430  0.94200  Biso   1.000  H
  C608     1.0000 0.10312  0.78445  0.89977  Biso   1.000  C
  C609     1.0000 0.10500  0.85269  0.96592  Biso   1.000  C
  C610     1.0000 0.14933  0.78384  0.85188  Biso   1.000  C
  C611     1.0000 0.16217  0.80554  0.83886  Biso   1.000  C
  C612     1.0000 0.15094  0.81613  0.81686  Biso   1.000  C
  H204     1.0000 0.13630  0.80840  0.80970  Biso   1.000  H
  Cu52     1.0000 0.14280  0.24970  0.39241  Biso   1.000  Cu
  O409     1.0000 0.02630  0.37024  0.41115  Biso   1.000  O
  O410     1.0000 0.02655  0.33998  0.38153  Biso   1.000  O
  O411     1.0000 0.09383  0.27755  0.37888  Biso   1.000  O
  O412     1.0000 0.12206  0.27450  0.41050  Biso   1.000  O
  O413     1.0000 0.12499  0.34302  0.47397  Biso   1.000  O
  O414     1.0000 0.09464  0.37274  0.47398  Biso   1.000  O
  O415     1.0000 0.15841  0.27773  0.37291  Biso   1.000  O
  O416     1.0000 0.13051  0.27469  0.34111  Biso   1.000  O
  C613     1.0000 0.03507  0.35042  0.40100  Biso   1.000  C
  C614     1.0000 0.05790  0.33837  0.41311  Biso   1.000  C
  C615     1.0000 0.06855  0.31702  0.40222  Biso   1.000  C
  H205     1.0000 0.06100  0.30950  0.38760  Biso   1.000  H
  C616     1.0000 0.09057  0.30652  0.41280  Biso   1.000  C
  C617     1.0000 0.10219  0.31791  0.43363  Biso   1.000  C
  H206     1.0000 0.11740  0.31090  0.44040  Biso   1.000  H
  C618     1.0000 0.09170  0.33934  0.44457  Biso   1.000  C
  C619     1.0000 0.06919  0.34972  0.43445  Biso   1.000  C
  H207     1.0000 0.06170  0.36430  0.44200  Biso   1.000  H
  C620     1.0000 0.10312  0.28445  0.39977  Biso   1.000  C
  C621     1.0000 0.10500  0.35269  0.46592  Biso   1.000  C
  C622     1.0000 0.14933  0.28384  0.35188  Biso   1.000  C
  C623     1.0000 0.16217  0.30554  0.33886  Biso   1.000  C
  C624     1.0000 0.15094  0.31613  0.31686  Biso   1.000  C
  H208     1.0000 0.13630  0.30840  0.30970  Biso   1.000  H
  Cu53     1.0000 0.35720  0.25030  0.39241  Biso   1.000  Cu
  O417     1.0000 0.47370  0.12976  0.41115  Biso   1.000  O
  O418     1.0000 0.47345  0.16002  0.38153  Biso   1.000  O
  O419     1.0000 0.40617  0.22245  0.37888  Biso   1.000  O
  O420     1.0000 0.37794  0.22550  0.41050  Biso   1.000  O
  O421     1.0000 0.37501  0.15698  0.47397  Biso   1.000  O
  O422     1.0000 0.40536  0.12726  0.47398  Biso   1.000  O
  O423     1.0000 0.34159  0.22227  0.37291  Biso   1.000  O
  O424     1.0000 0.36949  0.22531  0.34111  Biso   1.000  O
  C625     1.0000 0.46493  0.14958  0.40100  Biso   1.000  C
  C626     1.0000 0.44210  0.16163  0.41311  Biso   1.000  C
  C627     1.0000 0.43145  0.18298  0.40222  Biso   1.000  C
  H209     1.0000 0.43900  0.19050  0.38760  Biso   1.000  H
  C628     1.0000 0.40943  0.19348  0.41280  Biso   1.000  C
  C629     1.0000 0.39781  0.18209  0.43363  Biso   1.000  C
  H210     1.0000 0.38260  0.18910  0.44040  Biso   1.000  H
  C630     1.0000 0.40830  0.16066  0.44457  Biso   1.000  C
  C631     1.0000 0.43081  0.15028  0.43445  Biso   1.000  C
  H211     1.0000 0.43830  0.13570  0.44200  Biso   1.000  H
  C632     1.0000 0.39688  0.21555  0.39977  Biso   1.000  C
  C633     1.0000 0.39500  0.14731  0.46592  Biso   1.000  C
  C634     1.0000 0.35067  0.21616  0.35188  Biso   1.000  C
  C635     1.0000 0.33783  0.19446  0.33886  Biso   1.000  C
  C636     1.0000 0.34906  0.18387  0.31686  Biso   1.000  C
  H212     1.0000 0.36370  0.19160  0.30970  Biso   1.000  H
  Cu54     1.0000 0.35720  0.75030  0.89241  Biso   1.000  Cu
  O425     1.0000 0.47370  0.62976  0.91115  Biso   1.000  O
  O426     1.0000 0.47345  0.66002  0.88153  Biso   1.000  O
  O427     1.0000 0.40617  0.72245  0.87888  Biso   1.000  O
  O428     1.0000 0.37794  0.72550  0.91050  Biso   1.000  O
  O429     1.0000 0.37501  0.65698  0.97397  Biso   1.000  O
  O430     1.0000 0.40536  0.62726  0.97398  Biso   1.000  O
  O431     1.0000 0.34159  0.72227  0.87291  Biso   1.000  O
  O432     1.0000 0.36949  0.72531  0.84111  Biso   1.000  O
  C637     1.0000 0.46493  0.64958  0.90100  Biso   1.000  C
  C638     1.0000 0.44210  0.66163  0.91311  Biso   1.000  C
  C639     1.0000 0.43145  0.68298  0.90222  Biso   1.000  C
  H213     1.0000 0.43900  0.69050  0.88760  Biso   1.000  H
  C640     1.0000 0.40943  0.69348  0.91280  Biso   1.000  C
  C641     1.0000 0.39781  0.68209  0.93363  Biso   1.000  C
  H214     1.0000 0.38260  0.68910  0.94040  Biso   1.000  H
  C642     1.0000 0.40830  0.66066  0.94457  Biso   1.000  C
  C643     1.0000 0.43081  0.65028  0.93445  Biso   1.000  C
  H215     1.0000 0.43830  0.63570  0.94200  Biso   1.000  H
  C644     1.0000 0.39688  0.71555  0.89977  Biso   1.000  C
  C645     1.0000 0.39500  0.64731  0.96592  Biso   1.000  C
  C646     1.0000 0.35067  0.71616  0.85188  Biso   1.000  C
  C647     1.0000 0.33783  0.69446  0.83886  Biso   1.000  C
  C648     1.0000 0.34906  0.68387  0.81686  Biso   1.000  C
  H216     1.0000 0.36370  0.69160  0.80970  Biso   1.000  H
  Cu55     1.0000 0.85720  0.25030  0.89241  Biso   1.000  Cu
  O433     1.0000 0.97370  0.12976  0.91115  Biso   1.000  O
  O434     1.0000 0.97345  0.16002  0.88153  Biso   1.000  O
  O435     1.0000 0.90617  0.22245  0.87888  Biso   1.000  O
  O436     1.0000 0.87794  0.22550  0.91050  Biso   1.000  O
  O437     1.0000 0.87501  0.15698  0.97397  Biso   1.000  O
  O438     1.0000 0.90536  0.12726  0.97398  Biso   1.000  O
  O439     1.0000 0.84159  0.22227  0.87291  Biso   1.000  O
  O440     1.0000 0.86949  0.22531  0.84111  Biso   1.000  O
  C649     1.0000 0.96493  0.14958  0.90100  Biso   1.000  C
  C650     1.0000 0.94210  0.16163  0.91311  Biso   1.000  C
  C651     1.0000 0.93145  0.18298  0.90222  Biso   1.000  C
  H217     1.0000 0.93900  0.19050  0.88760  Biso   1.000  H
  C652     1.0000 0.90943  0.19348  0.91280  Biso   1.000  C
  C653     1.0000 0.89781  0.18209  0.93363  Biso   1.000  C
  H218     1.0000 0.88260  0.18910  0.94040  Biso   1.000  H
  C654     1.0000 0.90830  0.16066  0.94457  Biso   1.000  C
  C655     1.0000 0.93081  0.15028  0.93445  Biso   1.000  C
  H219     1.0000 0.93830  0.13570  0.94200  Biso   1.000  H
  C656     1.0000 0.89688  0.21555  0.89977  Biso   1.000  C
  C657     1.0000 0.89500  0.14731  0.96592  Biso   1.000  C
  C658     1.0000 0.85067  0.21616  0.85188  Biso   1.000  C
  C659     1.0000 0.83783  0.19446  0.83886  Biso   1.000  C
  C660     1.0000 0.84906  0.18387  0.81686  Biso   1.000  C
  H220     1.0000 0.86370  0.19160  0.80970  Biso   1.000  H
  Cu56     1.0000 0.85720  0.75030  0.39241  Biso   1.000  Cu
  O441     1.0000 0.97370  0.62976  0.41115  Biso   1.000  O
  O442     1.0000 0.97345  0.66002  0.38153  Biso   1.000  O
  O443     1.0000 0.90617  0.72245  0.37888  Biso   1.000  O
  O444     1.0000 0.87794  0.72550  0.41050  Biso   1.000  O
  O445     1.0000 0.87501  0.65698  0.47397  Biso   1.000  O
  O446     1.0000 0.90536  0.62726  0.47398  Biso   1.000  O
  O447     1.0000 0.84159  0.72227  0.37291  Biso   1.000  O
  O448     1.0000 0.86949  0.72531  0.34111  Biso   1.000  O
  C661     1.0000 0.96493  0.64958  0.40100  Biso   1.000  C
  C662     1.0000 0.94210  0.66163  0.41311  Biso   1.000  C
  C663     1.0000 0.93145  0.68298  0.40222  Biso   1.000  C
  H221     1.0000 0.93900  0.69050  0.38760  Biso   1.000  H
  C664     1.0000 0.90943  0.69348  0.41280  Biso   1.000  C
  C665     1.0000 0.89781  0.68209  0.43363  Biso   1.000  C
  H222     1.0000 0.88260  0.68910  0.44040  Biso   1.000  H
  C666     1.0000 0.90830  0.66066  0.44457  Biso   1.000  C
  C667     1.0000 0.93081  0.65028  0.43445  Biso   1.000  C
  H223     1.0000 0.93830  0.63570  0.44200  Biso   1.000  H
  C668     1.0000 0.89688  0.71555  0.39977  Biso   1.000  C
  C669     1.0000 0.89500  0.64731  0.46592  Biso   1.000  C
  C670     1.0000 0.85067  0.71616  0.35188  Biso   1.000  C
  C671     1.0000 0.83783  0.69446  0.33886  Biso   1.000  C
  C672     1.0000 0.84906  0.68387  0.31686  Biso   1.000  C
  H224     1.0000 0.86370  0.69160  0.30970  Biso   1.000  H
  Cu57     1.0000 0.64280  0.25030  0.60759  Biso   1.000  Cu
  O449     1.0000 0.52630  0.12976  0.58885  Biso   1.000  O
  O450     1.0000 0.52655  0.16002  0.61847  Biso   1.000  O
  O451     1.0000 0.59383  0.22245  0.62112  Biso   1.000  O
  O452     1.0000 0.62206  0.22550  0.58950  Biso   1.000  O
  O453     1.0000 0.62499  0.15698  0.52603  Biso   1.000  O
  O454     1.0000 0.59464  0.12726  0.52602  Biso   1.000  O
  O455     1.0000 0.65841  0.22227  0.62709  Biso   1.000  O
  O456     1.0000 0.63051  0.22531  0.65889  Biso   1.000  O
  C673     1.0000 0.53507  0.14958  0.59900  Biso   1.000  C
  C674     1.0000 0.55790  0.16163  0.58689  Biso   1.000  C
  C675     1.0000 0.56855  0.18298  0.59778  Biso   1.000  C
  H225     1.0000 0.56100  0.19050  0.61240  Biso   1.000  H
  C676     1.0000 0.59057  0.19348  0.58720  Biso   1.000  C
  C677     1.0000 0.60219  0.18209  0.56637  Biso   1.000  C
  H226     1.0000 0.61740  0.18910  0.55960  Biso   1.000  H
  C678     1.0000 0.59170  0.16066  0.55543  Biso   1.000  C
  C679     1.0000 0.56919  0.15028  0.56555  Biso   1.000  C
  H227     1.0000 0.56170  0.13570  0.55800  Biso   1.000  H
  C680     1.0000 0.60312  0.21555  0.60023  Biso   1.000  C
  C681     1.0000 0.60500  0.14731  0.53408  Biso   1.000  C
  C682     1.0000 0.64933  0.21616  0.64812  Biso   1.000  C
  C683     1.0000 0.66217  0.19446  0.66114  Biso   1.000  C
  C684     1.0000 0.65094  0.18387  0.68314  Biso   1.000  C
  H228     1.0000 0.63630  0.19160  0.69030  Biso   1.000  H
  Cu58     1.0000 0.64280  0.75030  0.10759  Biso   1.000  Cu
  O457     1.0000 0.52630  0.62976  0.08885  Biso   1.000  O
  O458     1.0000 0.52655  0.66002  0.11847  Biso   1.000  O
  O459     1.0000 0.59383  0.72245  0.12112  Biso   1.000  O
  O460     1.0000 0.62206  0.72550  0.08950  Biso   1.000  O
  O461     1.0000 0.62499  0.65698  0.02603  Biso   1.000  O
  O462     1.0000 0.59464  0.62726  0.02602  Biso   1.000  O
  O463     1.0000 0.65841  0.72227  0.12709  Biso   1.000  O
  O464     1.0000 0.63051  0.72531  0.15889  Biso   1.000  O
  C685     1.0000 0.53507  0.64958  0.09900  Biso   1.000  C
  C686     1.0000 0.55790  0.66163  0.08689  Biso   1.000  C
  C687     1.0000 0.56855  0.68298  0.09778  Biso   1.000  C
  H229     1.0000 0.56100  0.69050  0.11240  Biso   1.000  H
  C688     1.0000 0.59057  0.69348  0.08720  Biso   1.000  C
  C689     1.0000 0.60219  0.68209  0.06637  Biso   1.000  C
  H230     1.0000 0.61740  0.68910  0.05960  Biso   1.000  H
  C690     1.0000 0.59170  0.66066  0.05543  Biso   1.000  C
  C691     1.0000 0.56919  0.65028  0.06555  Biso   1.000  C
  H231     1.0000 0.56170  0.63570  0.05800  Biso   1.000  H
  C692     1.0000 0.60312  0.71555  0.10023  Biso   1.000  C
  C693     1.0000 0.60500  0.64731  0.03408  Biso   1.000  C
  C694     1.0000 0.64933  0.71616  0.14812  Biso   1.000  C
  C695     1.0000 0.66217  0.69446  0.16114  Biso   1.000  C
  C696     1.0000 0.65094  0.68387  0.18314  Biso   1.000  C
  H232     1.0000 0.63630  0.69160  0.19030  Biso   1.000  H
  Cu59     1.0000 0.14280  0.25030  0.10759  Biso   1.000  Cu
  O465     1.0000 0.02630  0.12976  0.08885  Biso   1.000  O
  O466     1.0000 0.02655  0.16002  0.11847  Biso   1.000  O
  O467     1.0000 0.09383  0.22245  0.12112  Biso   1.000  O
  O468     1.0000 0.12206  0.22550  0.08950  Biso   1.000  O
  O469     1.0000 0.12499  0.15698  0.02603  Biso   1.000  O
  O470     1.0000 0.09464  0.12726  0.02602  Biso   1.000  O
  O471     1.0000 0.15841  0.22227  0.12709  Biso   1.000  O
  O472     1.0000 0.13051  0.22531  0.15889  Biso   1.000  O
  C697     1.0000 0.03507  0.14958  0.09900  Biso   1.000  C
  C698     1.0000 0.05790  0.16163  0.08689  Biso   1.000  C
  C699     1.0000 0.06855  0.18298  0.09778  Biso   1.000  C
  H233     1.0000 0.06100  0.19050  0.11240  Biso   1.000  H
  C700     1.0000 0.09057  0.19348  0.08720  Biso   1.000  C
  C701     1.0000 0.10219  0.18209  0.06637  Biso   1.000  C
  H234     1.0000 0.11740  0.18910  0.05960  Biso   1.000  H
  C702     1.0000 0.09170  0.16066  0.05543  Biso   1.000  C
  C703     1.0000 0.06919  0.15028  0.06555  Biso   1.000  C
  H235     1.0000 0.06170  0.13570  0.05800  Biso   1.000  H
  C704     1.0000 0.10312  0.21555  0.10023  Biso   1.000  C
  C705     1.0000 0.10500  0.14731  0.03408  Biso   1.000  C
  C706     1.0000 0.14933  0.21616  0.14812  Biso   1.000  C
  C707     1.0000 0.16217  0.19446  0.16114  Biso   1.000  C
  C708     1.0000 0.15094  0.18387  0.18314  Biso   1.000  C
  H236     1.0000 0.13630  0.19160  0.19030  Biso   1.000  H
  Cu60     1.0000 0.14280  0.75030  0.60759  Biso   1.000  Cu
  O473     1.0000 0.02630  0.62976  0.58885  Biso   1.000  O
  O474     1.0000 0.02655  0.66002  0.61847  Biso   1.000  O
  O475     1.0000 0.09383  0.72245  0.62112  Biso   1.000  O
  O476     1.0000 0.12206  0.72550  0.58950  Biso   1.000  O
  O477     1.0000 0.12499  0.65698  0.52603  Biso   1.000  O
  O478     1.0000 0.09464  0.62726  0.52602  Biso   1.000  O
  O479     1.0000 0.15841  0.72227  0.62709  Biso   1.000  O
  O480     1.0000 0.13051  0.72531  0.65889  Biso   1.000  O
  C709     1.0000 0.03507  0.64958  0.59900  Biso   1.000  C
  C710     1.0000 0.05790  0.66163  0.58689  Biso   1.000  C
  C711     1.0000 0.06855  0.68298  0.59778  Biso   1.000  C
  H237     1.0000 0.06100  0.69050  0.61240  Biso   1.000  H
  C712     1.0000 0.09057  0.69348  0.58720  Biso   1.000  C
  C713     1.0000 0.10219  0.68209  0.56637  Biso   1.000  C
  H238     1.0000 0.11740  0.68910  0.55960  Biso   1.000  H
  C714     1.0000 0.09170  0.66066  0.55543  Biso   1.000  C
  C715     1.0000 0.06919  0.65028  0.56555  Biso   1.000  C
  H239     1.0000 0.06170  0.63570  0.55800  Biso   1.000  H
  C716     1.0000 0.10312  0.71555  0.60023  Biso   1.000  C
  C717     1.0000 0.10500  0.64731  0.53408  Biso   1.000  C
  C718     1.0000 0.14933  0.71616  0.64812  Biso   1.000  C
  C719     1.0000 0.16217  0.69446  0.66114  Biso   1.000  C
  C720     1.0000 0.15094  0.68387  0.68314  Biso   1.000  C
  H240     1.0000 0.13630  0.69160  0.69030  Biso   1.000  H
  Cu61     1.0000 0.35720  0.74970  0.60759  Biso   1.000  Cu
  O481     1.0000 0.47370  0.87024  0.58885  Biso   1.000  O
  O482     1.0000 0.47345  0.83998  0.61847  Biso   1.000  O
  O483     1.0000 0.40617  0.77755  0.62112  Biso   1.000  O
  O484     1.0000 0.37794  0.77450  0.58950  Biso   1.000  O
  O485     1.0000 0.37501  0.84302  0.52603  Biso   1.000  O
  O486     1.0000 0.40536  0.87274  0.52602  Biso   1.000  O
  O487     1.0000 0.34159  0.77773  0.62709  Biso   1.000  O
  O488     1.0000 0.36949  0.77469  0.65889  Biso   1.000  O
  C721     1.0000 0.46493  0.85042  0.59900  Biso   1.000  C
  C722     1.0000 0.44210  0.83837  0.58689  Biso   1.000  C
  C723     1.0000 0.43145  0.81702  0.59778  Biso   1.000  C
  H241     1.0000 0.43900  0.80950  0.61240  Biso   1.000  H
  C724     1.0000 0.40943  0.80652  0.58720  Biso   1.000  C
  C725     1.0000 0.39781  0.81791  0.56637  Biso   1.000  C
  H242     1.0000 0.38260  0.81090  0.55960  Biso   1.000  H
  C726     1.0000 0.40830  0.83934  0.55543  Biso   1.000  C
  C727     1.0000 0.43081  0.84972  0.56555  Biso   1.000  C
  H243     1.0000 0.43830  0.86430  0.55800  Biso   1.000  H
  C728     1.0000 0.39688  0.78445  0.60023  Biso   1.000  C
  C729     1.0000 0.39500  0.85269  0.53408  Biso   1.000  C
  C730     1.0000 0.35067  0.78384  0.64812  Biso   1.000  C
  C731     1.0000 0.33783  0.80554  0.66114  Biso   1.000  C
  C732     1.0000 0.34906  0.81613  0.68314  Biso   1.000  C
  H244     1.0000 0.36370  0.80840  0.69030  Biso   1.000  H
  Cu62     1.0000 0.35720  0.24970  0.10759  Biso   1.000  Cu
  O489     1.0000 0.47370  0.37024  0.08885  Biso   1.000  O
  O490     1.0000 0.47345  0.33998  0.11847  Biso   1.000  O
  O491     1.0000 0.40617  0.27755  0.12112  Biso   1.000  O
  O492     1.0000 0.37794  0.27450  0.08950  Biso   1.000  O
  O493     1.0000 0.37501  0.34302  0.02603  Biso   1.000  O
  O494     1.0000 0.40536  0.37274  0.02602  Biso   1.000  O
  O495     1.0000 0.34159  0.27773  0.12709  Biso   1.000  O
  O496     1.0000 0.36949  0.27469  0.15889  Biso   1.000  O
  C733     1.0000 0.46493  0.35042  0.09900  Biso   1.000  C
  C734     1.0000 0.44210  0.33837  0.08689  Biso   1.000  C
  C735     1.0000 0.43145  0.31702  0.09778  Biso   1.000  C
  H245     1.0000 0.43900  0.30950  0.11240  Biso   1.000  H
  C736     1.0000 0.40943  0.30652  0.08720  Biso   1.000  C
  C737     1.0000 0.39781  0.31791  0.06637  Biso   1.000  C
  H246     1.0000 0.38260  0.31090  0.05960  Biso   1.000  H
  C738     1.0000 0.40830  0.33934  0.05543  Biso   1.000  C
  C739     1.0000 0.43081  0.34972  0.06555  Biso   1.000  C
  H247     1.0000 0.43830  0.36430  0.05800  Biso   1.000  H
  C740     1.0000 0.39688  0.28445  0.10023  Biso   1.000  C
  C741     1.0000 0.39500  0.35269  0.03408  Biso   1.000  C
  C742     1.0000 0.35067  0.28384  0.14812  Biso   1.000  C
  C743     1.0000 0.33783  0.30554  0.16114  Biso   1.000  C
  C744     1.0000 0.34906  0.31613  0.18314  Biso   1.000  C
  H248     1.0000 0.36370  0.30840  0.19030  Biso   1.000  H
  Cu63     1.0000 0.85720  0.74970  0.10759  Biso   1.000  Cu
  O497     1.0000 0.97370  0.87024  0.08885  Biso   1.000  O
  O498     1.0000 0.97345  0.83998  0.11847  Biso   1.000  O
  O499     1.0000 0.90617  0.77755  0.12112  Biso   1.000  O
  O500     1.0000 0.87794  0.77450  0.08950  Biso   1.000  O
  O501     1.0000 0.87501  0.84302  0.02603  Biso   1.000  O
  O502     1.0000 0.90536  0.87274  0.02602  Biso   1.000  O
  O503     1.0000 0.84159  0.77773  0.12709  Biso   1.000  O
  O504     1.0000 0.86949  0.77469  0.15889  Biso   1.000  O
  C745     1.0000 0.96493  0.85042  0.09900  Biso   1.000  C
  C746     1.0000 0.94210  0.83837  0.08689  Biso   1.000  C
  C747     1.0000 0.93145  0.81702  0.09778  Biso   1.000  C
  H249     1.0000 0.93900  0.80950  0.11240  Biso   1.000  H
  C748     1.0000 0.90943  0.80652  0.08720  Biso   1.000  C
  C749     1.0000 0.89781  0.81791  0.06637  Biso   1.000  C
  H250     1.0000 0.88260  0.81090  0.05960  Biso   1.000  H
  C750     1.0000 0.90830  0.83934  0.05543  Biso   1.000  C
  C751     1.0000 0.93081  0.84972  0.06555  Biso   1.000  C
  H251     1.0000 0.93830  0.86430  0.05800  Biso   1.000  H
  C752     1.0000 0.89688  0.78445  0.10023  Biso   1.000  C
  C753     1.0000 0.89500  0.85269  0.03408  Biso   1.000  C
  C754     1.0000 0.85067  0.78384  0.14812  Biso   1.000  C
  C755     1.0000 0.83783  0.80554  0.16114  Biso   1.000  C
  C756     1.0000 0.84906  0.81613  0.18314  Biso   1.000  C
  H252     1.0000 0.86370  0.80840  0.19030  Biso   1.000  H
  Cu64     1.0000 0.85720  0.24970  0.60759  Biso   1.000  Cu
  O505     1.0000 0.97370  0.37024  0.58885  Biso   1.000  O
  O506     1.0000 0.97345  0.33998  0.61847  Biso   1.000  O
  O507     1.0000 0.90617  0.27755  0.62112  Biso   1.000  O
  O508     1.0000 0.87794  0.27450  0.58950  Biso   1.000  O
  O509     1.0000 0.87501  0.34302  0.52603  Biso   1.000  O
  O510     1.0000 0.90536  0.37274  0.52602  Biso   1.000  O
  O511     1.0000 0.84159  0.27773  0.62709  Biso   1.000  O
  O512     1.0000 0.86949  0.27469  0.65889  Biso   1.000  O
  C757     1.0000 0.96493  0.35042  0.59900  Biso   1.000  C
  C758     1.0000 0.94210  0.33837  0.58689  Biso   1.000  C
  C759     1.0000 0.93145  0.31702  0.59778  Biso   1.000  C
  H253     1.0000 0.93900  0.30950  0.61240  Biso   1.000  H
  C760     1.0000 0.90943  0.30652  0.58720  Biso   1.000  C
  C761     1.0000 0.89781  0.31791  0.56637  Biso   1.000  C
  H254     1.0000 0.88260  0.31090  0.55960  Biso   1.000  H
  C762     1.0000 0.90830  0.33934  0.55543  Biso   1.000  C
  C763     1.0000 0.93081  0.34972  0.56555  Biso   1.000  C
  H255     1.0000 0.93830  0.36430  0.55800  Biso   1.000  H
  C764     1.0000 0.89688  0.28445  0.60023  Biso   1.000  C
  C765     1.0000 0.89500  0.35269  0.53408  Biso   1.000  C
  C766     1.0000 0.85067  0.28384  0.64812  Biso   1.000  C
  C767     1.0000 0.83783  0.30554  0.66114  Biso   1.000  C
  C768     1.0000 0.84906  0.31613  0.68314  Biso   1.000  C
  H256     1.0000 0.86370  0.30840  0.69030  Biso   1.000  H
  Cu65     1.0000 0.74970  0.60759  0.35720  Biso   1.000  Cu
  O513     1.0000 0.87024  0.58885  0.47370  Biso   1.000  O
  O514     1.0000 0.83998  0.61847  0.47345  Biso   1.000  O
  O515     1.0000 0.77755  0.62112  0.40617  Biso   1.000  O
  O516     1.0000 0.77450  0.58950  0.37794  Biso   1.000  O
  O517     1.0000 0.84302  0.52603  0.37501  Biso   1.000  O
  O518     1.0000 0.87274  0.52602  0.40536  Biso   1.000  O
  O519     1.0000 0.77773  0.62709  0.34159  Biso   1.000  O
  O520     1.0000 0.77469  0.65889  0.36949  Biso   1.000  O
  C769     1.0000 0.85042  0.59900  0.46493  Biso   1.000  C
  C770     1.0000 0.83837  0.58689  0.44210  Biso   1.000  C
  C771     1.0000 0.81702  0.59778  0.43145  Biso   1.000  C
  H257     1.0000 0.80950  0.61240  0.43900  Biso   1.000  H
  C772     1.0000 0.80652  0.58720  0.40943  Biso   1.000  C
  C773     1.0000 0.81791  0.56637  0.39781  Biso   1.000  C
  H258     1.0000 0.81090  0.55960  0.38260  Biso   1.000  H
  C774     1.0000 0.83934  0.55543  0.40830  Biso   1.000  C
  C775     1.0000 0.84972  0.56555  0.43081  Biso   1.000  C
  H259     1.0000 0.86430  0.55800  0.43830  Biso   1.000  H
  C776     1.0000 0.78445  0.60023  0.39688  Biso   1.000  C
  C777     1.0000 0.85269  0.53408  0.39500  Biso   1.000  C
  C778     1.0000 0.78384  0.64812  0.35067  Biso   1.000  C
  C779     1.0000 0.80554  0.66114  0.33783  Biso   1.000  C
  C780     1.0000 0.81613  0.68314  0.34906  Biso   1.000  C
  H260     1.0000 0.80840  0.69030  0.36370  Biso   1.000  H
  Cu66     1.0000 0.74970  0.10759  0.85720  Biso   1.000  Cu
  O521     1.0000 0.87024  0.08885  0.97370  Biso   1.000  O
  O522     1.0000 0.83998  0.11847  0.97345  Biso   1.000  O
  O523     1.0000 0.77755  0.12112  0.90617  Biso   1.000  O
  O524     1.0000 0.77450  0.08950  0.87794  Biso   1.000  O
  O525     1.0000 0.84302  0.02603  0.87501  Biso   1.000  O
  O526     1.0000 0.87274  0.02602  0.90536  Biso   1.000  O
  O527     1.0000 0.77773  0.12709  0.84159  Biso   1.000  O
  O528     1.0000 0.77469  0.15889  0.86949  Biso   1.000  O
  C781     1.0000 0.85042  0.09900  0.96493  Biso   1.000  C
  C782     1.0000 0.83837  0.08689  0.94210  Biso   1.000  C
  C783     1.0000 0.81702  0.09778  0.93145  Biso   1.000  C
  H261     1.0000 0.80950  0.11240  0.93900  Biso   1.000  H
  C784     1.0000 0.80652  0.08720  0.90943  Biso   1.000  C
  C785     1.0000 0.81791  0.06637  0.89781  Biso   1.000  C
  H262     1.0000 0.81090  0.05960  0.88260  Biso   1.000  H
  C786     1.0000 0.83934  0.05543  0.90830  Biso   1.000  C
  C787     1.0000 0.84972  0.06555  0.93081  Biso   1.000  C
  H263     1.0000 0.86430  0.05800  0.93830  Biso   1.000  H
  C788     1.0000 0.78445  0.10023  0.89688  Biso   1.000  C
  C789     1.0000 0.85269  0.03408  0.89500  Biso   1.000  C
  C790     1.0000 0.78384  0.14812  0.85067  Biso   1.000  C
  C791     1.0000 0.80554  0.16114  0.83783  Biso   1.000  C
  C792     1.0000 0.81613  0.18314  0.84906  Biso   1.000  C
  H264     1.0000 0.80840  0.19030  0.86370  Biso   1.000  H
  Cu67     1.0000 0.24970  0.60759  0.85720  Biso   1.000  Cu
  O529     1.0000 0.37024  0.58885  0.97370  Biso   1.000  O
  O530     1.0000 0.33998  0.61847  0.97345  Biso   1.000  O
  O531     1.0000 0.27755  0.62112  0.90617  Biso   1.000  O
  O532     1.0000 0.27450  0.58950  0.87794  Biso   1.000  O
  O533     1.0000 0.34302  0.52603  0.87501  Biso   1.000  O
  O534     1.0000 0.37274  0.52602  0.90536  Biso   1.000  O
  O535     1.0000 0.27773  0.62709  0.84159  Biso   1.000  O
  O536     1.0000 0.27469  0.65889  0.86949  Biso   1.000  O
  C793     1.0000 0.35042  0.59900  0.96493  Biso   1.000  C
  C794     1.0000 0.33837  0.58689  0.94210  Biso   1.000  C
  C795     1.0000 0.31702  0.59778  0.93145  Biso   1.000  C
  H265     1.0000 0.30950  0.61240  0.93900  Biso   1.000  H
  C796     1.0000 0.30652  0.58720  0.90943  Biso   1.000  C
  C797     1.0000 0.31791  0.56637  0.89781  Biso   1.000  C
  H266     1.0000 0.31090  0.55960  0.88260  Biso   1.000  H
  C798     1.0000 0.33934  0.55543  0.90830  Biso   1.000  C
  C799     1.0000 0.34972  0.56555  0.93081  Biso   1.000  C
  H267     1.0000 0.36430  0.55800  0.93830  Biso   1.000  H
  C800     1.0000 0.28445  0.60023  0.89688  Biso   1.000  C
  C801     1.0000 0.35269  0.53408  0.89500  Biso   1.000  C
  C802     1.0000 0.28384  0.64812  0.85067  Biso   1.000  C
  C803     1.0000 0.30554  0.66114  0.83783  Biso   1.000  C
  C804     1.0000 0.31613  0.68314  0.84906  Biso   1.000  C
  H268     1.0000 0.30840  0.69030  0.86370  Biso   1.000  H
  Cu68     1.0000 0.24970  0.10759  0.35720  Biso   1.000  Cu
  O537     1.0000 0.37024  0.08885  0.47370  Biso   1.000  O
  O538     1.0000 0.33998  0.11847  0.47345  Biso   1.000  O
  O539     1.0000 0.27755  0.12112  0.40617  Biso   1.000  O
  O540     1.0000 0.27450  0.08950  0.37794  Biso   1.000  O
  O541     1.0000 0.34302  0.02603  0.37501  Biso   1.000  O
  O542     1.0000 0.37274  0.02602  0.40536  Biso   1.000  O
  O543     1.0000 0.27773  0.12709  0.34159  Biso   1.000  O
  O544     1.0000 0.27469  0.15889  0.36949  Biso   1.000  O
  C805     1.0000 0.35042  0.09900  0.46493  Biso   1.000  C
  C806     1.0000 0.33837  0.08689  0.44210  Biso   1.000  C
  C807     1.0000 0.31702  0.09778  0.43145  Biso   1.000  C
  H269     1.0000 0.30950  0.11240  0.43900  Biso   1.000  H
  C808     1.0000 0.30652  0.08720  0.40943  Biso   1.000  C
  C809     1.0000 0.31791  0.06637  0.39781  Biso   1.000  C
  H270     1.0000 0.31090  0.05960  0.38260  Biso   1.000  H
  C810     1.0000 0.33934  0.05543  0.40830  Biso   1.000  C
  C811     1.0000 0.34972  0.06555  0.43081  Biso   1.000  C
  H271     1.0000 0.36430  0.05800  0.43830  Biso   1.000  H
  C812     1.0000 0.28445  0.10023  0.39688  Biso   1.000  C
  C813     1.0000 0.35269  0.03408  0.39500  Biso   1.000  C
  C814     1.0000 0.28384  0.14812  0.35067  Biso   1.000  C
  C815     1.0000 0.30554  0.16114  0.33783  Biso   1.000  C
  C816     1.0000 0.31613  0.18314  0.34906  Biso   1.000  C
  H272     1.0000 0.30840  0.19030  0.36370  Biso   1.000  H
  Cu69     1.0000 0.25030  0.60759  0.64280  Biso   1.000  Cu
  O545     1.0000 0.12976  0.58885  0.52630  Biso   1.000  O
  O546     1.0000 0.16002  0.61847  0.52655  Biso   1.000  O
  O547     1.0000 0.22245  0.62112  0.59383  Biso   1.000  O
  O548     1.0000 0.22550  0.58950  0.62206  Biso   1.000  O
  O549     1.0000 0.15698  0.52603  0.62499  Biso   1.000  O
  O550     1.0000 0.12726  0.52602  0.59464  Biso   1.000  O
  O551     1.0000 0.22227  0.62709  0.65841  Biso   1.000  O
  O552     1.0000 0.22531  0.65889  0.63051  Biso   1.000  O
  C817     1.0000 0.14958  0.59900  0.53507  Biso   1.000  C
  C818     1.0000 0.16163  0.58689  0.55790  Biso   1.000  C
  C819     1.0000 0.18298  0.59778  0.56855  Biso   1.000  C
  H273     1.0000 0.19050  0.61240  0.56100  Biso   1.000  H
  C820     1.0000 0.19348  0.58720  0.59057  Biso   1.000  C
  C821     1.0000 0.18209  0.56637  0.60219  Biso   1.000  C
  H274     1.0000 0.18910  0.55960  0.61740  Biso   1.000  H
  C822     1.0000 0.16066  0.55543  0.59170  Biso   1.000  C
  C823     1.0000 0.15028  0.56555  0.56919  Biso   1.000  C
  H275     1.0000 0.13570  0.55800  0.56170  Biso   1.000  H
  C824     1.0000 0.21555  0.60023  0.60312  Biso   1.000  C
  C825     1.0000 0.14731  0.53408  0.60500  Biso   1.000  C
  C826     1.0000 0.21616  0.64812  0.64933  Biso   1.000  C
  C827     1.0000 0.19446  0.66114  0.66217  Biso   1.000  C
  C828     1.0000 0.18387  0.68314  0.65094  Biso   1.000  C
  H276     1.0000 0.19160  0.69030  0.63630  Biso   1.000  H
  Cu70     1.0000 0.25030  0.10759  0.14280  Biso   1.000  Cu
  O553     1.0000 0.12976  0.08885  0.02630  Biso   1.000  O
  O554     1.0000 0.16002  0.11847  0.02655  Biso   1.000  O
  O555     1.0000 0.22245  0.12112  0.09383  Biso   1.000  O
  O556     1.0000 0.22550  0.08950  0.12206  Biso   1.000  O
  O557     1.0000 0.15698  0.02603  0.12499  Biso   1.000  O
  O558     1.0000 0.12726  0.02602  0.09464  Biso   1.000  O
  O559     1.0000 0.22227  0.12709  0.15841  Biso   1.000  O
  O560     1.0000 0.22531  0.15889  0.13051  Biso   1.000  O
  C829     1.0000 0.14958  0.09900  0.03507  Biso   1.000  C
  C830     1.0000 0.16163  0.08689  0.05790  Biso   1.000  C
  C831     1.0000 0.18298  0.09778  0.06855  Biso   1.000  C
  H277     1.0000 0.19050  0.11240  0.06100  Biso   1.000  H
  C832     1.0000 0.19348  0.08720  0.09057  Biso   1.000  C
  C833     1.0000 0.18209  0.06637  0.10219  Biso   1.000  C
  H278     1.0000 0.18910  0.05960  0.11740  Biso   1.000  H
  C834     1.0000 0.16066  0.05543  0.09170  Biso   1.000  C
  C835     1.0000 0.15028  0.06555  0.06919  Biso   1.000  C
  H279     1.0000 0.13570  0.05800  0.06170  Biso   1.000  H
  C836     1.0000 0.21555  0.10023  0.10312  Biso   1.000  C
  C837     1.0000 0.14731  0.03408  0.10500  Biso   1.000  C
  C838     1.0000 0.21616  0.14812  0.14933  Biso   1.000  C
  C839     1.0000 0.19446  0.16114  0.16217  Biso   1.000  C
  C840     1.0000 0.18387  0.18314  0.15094  Biso   1.000  C
  H280     1.0000 0.19160  0.19030  0.13630  Biso   1.000  H
  Cu71     1.0000 0.75030  0.60759  0.14280  Biso   1.000  Cu
  O561     1.0000 0.62976  0.58885  0.02630  Biso   1.000  O
  O562     1.0000 0.66002  0.61847  0.02655  Biso   1.000  O
  O563     1.0000 0.72245  0.62112  0.09383  Biso   1.000  O
  O564     1.0000 0.72550  0.58950  0.12206  Biso   1.000  O
  O565     1.0000 0.65698  0.52603  0.12499  Biso   1.000  O
  O566     1.0000 0.62726  0.52602  0.09464  Biso   1.000  O
  O567     1.0000 0.72227  0.62709  0.15841  Biso   1.000  O
  O568     1.0000 0.72531  0.65889  0.13051  Biso   1.000  O
  C841     1.0000 0.64958  0.59900  0.03507  Biso   1.000  C
  C842     1.0000 0.66163  0.58689  0.05790  Biso   1.000  C
  C843     1.0000 0.68298  0.59778  0.06855  Biso   1.000  C
  H281     1.0000 0.69050  0.61240  0.06100  Biso   1.000  H
  C844     1.0000 0.69348  0.58720  0.09057  Biso   1.000  C
  C845     1.0000 0.68209  0.56637  0.10219  Biso   1.000  C
  H282     1.0000 0.68910  0.55960  0.11740  Biso   1.000  H
  C846     1.0000 0.66066  0.55543  0.09170  Biso   1.000  C
  C847     1.0000 0.65028  0.56555  0.06919  Biso   1.000  C
  H283     1.0000 0.63570  0.55800  0.06170  Biso   1.000  H
  C848     1.0000 0.71555  0.60023  0.10312  Biso   1.000  C
  C849     1.0000 0.64731  0.53408  0.10500  Biso   1.000  C
  C850     1.0000 0.71616  0.64812  0.14933  Biso   1.000  C
  C851     1.0000 0.69446  0.66114  0.16217  Biso   1.000  C
  C852     1.0000 0.68387  0.68314  0.15094  Biso   1.000  C
  H284     1.0000 0.69160  0.69030  0.13630  Biso   1.000  H
  Cu72     1.0000 0.75030  0.10759  0.64280  Biso   1.000  Cu
  O569     1.0000 0.62976  0.08885  0.52630  Biso   1.000  O
  O570     1.0000 0.66002  0.11847  0.52655  Biso   1.000  O
  O571     1.0000 0.72245  0.12112  0.59383  Biso   1.000  O
  O572     1.0000 0.72550  0.08950  0.62206  Biso   1.000  O
  O573     1.0000 0.65698  0.02603  0.62499  Biso   1.000  O
  O574     1.0000 0.62726  0.02602  0.59464  Biso   1.000  O
  O575     1.0000 0.72227  0.12709  0.65841  Biso   1.000  O
  O576     1.0000 0.72531  0.15889  0.63051  Biso   1.000  O
  C853     1.0000 0.64958  0.09900  0.53507  Biso   1.000  C
  C854     1.0000 0.66163  0.08689  0.55790  Biso   1.000  C
  C855     1.0000 0.68298  0.09778  0.56855  Biso   1.000  C
  H285     1.0000 0.69050  0.11240  0.56100  Biso   1.000  H
  C856     1.0000 0.69348  0.08720  0.59057  Biso   1.000  C
  C857     1.0000 0.68209  0.06637  0.60219  Biso   1.000  C
  H286     1.0000 0.68910  0.05960  0.61740  Biso   1.000  H
  C858     1.0000 0.66066  0.05543  0.59170  Biso   1.000  C
  C859     1.0000 0.65028  0.06555  0.56919  Biso   1.000  C
  H287     1.0000 0.63570  0.05800  0.56170  Biso   1.000  H
  C860     1.0000 0.71555  0.10023  0.60312  Biso   1.000  C
  C861     1.0000 0.64731  0.03408  0.60500  Biso   1.000  C
  C862     1.0000 0.71616  0.14812  0.64933  Biso   1.000  C
  C863     1.0000 0.69446  0.16114  0.66217  Biso   1.000  C
  C864     1.0000 0.68387  0.18314  0.65094  Biso   1.000  C
  H288     1.0000 0.69160  0.19030  0.63630  Biso   1.000  H
  Cu73     1.0000 0.25030  0.39241  0.35720  Biso   1.000  Cu
  O577     1.0000 0.12976  0.41115  0.47370  Biso   1.000  O
  O578     1.0000 0.16002  0.38153  0.47345  Biso   1.000  O
  O579     1.0000 0.22245  0.37888  0.40617  Biso   1.000  O
  O580     1.0000 0.22550  0.41050  0.37794  Biso   1.000  O
  O581     1.0000 0.15698  0.47397  0.37501  Biso   1.000  O
  O582     1.0000 0.12726  0.47398  0.40536  Biso   1.000  O
  O583     1.0000 0.22227  0.37291  0.34159  Biso   1.000  O
  O584     1.0000 0.22531  0.34111  0.36949  Biso   1.000  O
  C865     1.0000 0.14958  0.40100  0.46493  Biso   1.000  C
  C866     1.0000 0.16163  0.41311  0.44210  Biso   1.000  C
  C867     1.0000 0.18298  0.40222  0.43145  Biso   1.000  C
  H289     1.0000 0.19050  0.38760  0.43900  Biso   1.000  H
  C868     1.0000 0.19348  0.41280  0.40943  Biso   1.000  C
  C869     1.0000 0.18209  0.43363  0.39781  Biso   1.000  C
  H290     1.0000 0.18910  0.44040  0.38260  Biso   1.000  H
  C870     1.0000 0.16066  0.44457  0.40830  Biso   1.000  C
  C871     1.0000 0.15028  0.43445  0.43081  Biso   1.000  C
  H291     1.0000 0.13570  0.44200  0.43830  Biso   1.000  H
  C872     1.0000 0.21555  0.39977  0.39688  Biso   1.000  C
  C873     1.0000 0.14731  0.46592  0.39500  Biso   1.000  C
  C874     1.0000 0.21616  0.35188  0.35067  Biso   1.000  C
  C875     1.0000 0.19446  0.33886  0.33783  Biso   1.000  C
  C876     1.0000 0.18387  0.31686  0.34906  Biso   1.000  C
  H292     1.0000 0.19160  0.30970  0.36370  Biso   1.000  H
  Cu74     1.0000 0.25030  0.89241  0.85720  Biso   1.000  Cu
  O585     1.0000 0.12976  0.91115  0.97370  Biso   1.000  O
  O586     1.0000 0.16002  0.88153  0.97345  Biso   1.000  O
  O587     1.0000 0.22245  0.87888  0.90617  Biso   1.000  O
  O588     1.0000 0.22550  0.91050  0.87794  Biso   1.000  O
  O589     1.0000 0.15698  0.97397  0.87501  Biso   1.000  O
  O590     1.0000 0.12726  0.97398  0.90536  Biso   1.000  O
  O591     1.0000 0.22227  0.87291  0.84159  Biso   1.000  O
  O592     1.0000 0.22531  0.84111  0.86949  Biso   1.000  O
  C877     1.0000 0.14958  0.90100  0.96493  Biso   1.000  C
  C878     1.0000 0.16163  0.91311  0.94210  Biso   1.000  C
  C879     1.0000 0.18298  0.90222  0.93145  Biso   1.000  C
  H293     1.0000 0.19050  0.88760  0.93900  Biso   1.000  H
  C880     1.0000 0.19348  0.91280  0.90943  Biso   1.000  C
  C881     1.0000 0.18209  0.93363  0.89781  Biso   1.000  C
  H294     1.0000 0.18910  0.94040  0.88260  Biso   1.000  H
  C882     1.0000 0.16066  0.94457  0.90830  Biso   1.000  C
  C883     1.0000 0.15028  0.93445  0.93081  Biso   1.000  C
  H295     1.0000 0.13570  0.94200  0.93830  Biso   1.000  H
  C884     1.0000 0.21555  0.89977  0.89688  Biso   1.000  C
  C885     1.0000 0.14731  0.96592  0.89500  Biso   1.000  C
  C886     1.0000 0.21616  0.85188  0.85067  Biso   1.000  C
  C887     1.0000 0.19446  0.83886  0.83783  Biso   1.000  C
  C888     1.0000 0.18387  0.81686  0.84906  Biso   1.000  C
  H296     1.0000 0.19160  0.80970  0.86370  Biso   1.000  H
  Cu75     1.0000 0.75030  0.39241  0.85720  Biso   1.000  Cu
  O593     1.0000 0.62976  0.41115  0.97370  Biso   1.000  O
  O594     1.0000 0.66002  0.38153  0.97345  Biso   1.000  O
  O595     1.0000 0.72245  0.37888  0.90617  Biso   1.000  O
  O596     1.0000 0.72550  0.41050  0.87794  Biso   1.000  O
  O597     1.0000 0.65698  0.47397  0.87501  Biso   1.000  O
  O598     1.0000 0.62726  0.47398  0.90536  Biso   1.000  O
  O599     1.0000 0.72227  0.37291  0.84159  Biso   1.000  O
  O600     1.0000 0.72531  0.34111  0.86949  Biso   1.000  O
  C889     1.0000 0.64958  0.40100  0.96493  Biso   1.000  C
  C890     1.0000 0.66163  0.41311  0.94210  Biso   1.000  C
  C891     1.0000 0.68298  0.40222  0.93145  Biso   1.000  C
  H297     1.0000 0.69050  0.38760  0.93900  Biso   1.000  H
  C892     1.0000 0.69348  0.41280  0.90943  Biso   1.000  C
  C893     1.0000 0.68209  0.43363  0.89781  Biso   1.000  C
  H298     1.0000 0.68910  0.44040  0.88260  Biso   1.000  H
  C894     1.0000 0.66066  0.44457  0.90830  Biso   1.000  C
  C895     1.0000 0.65028  0.43445  0.93081  Biso   1.000  C
  H299     1.0000 0.63570  0.44200  0.93830  Biso   1.000  H
  C896     1.0000 0.71555  0.39977  0.89688  Biso   1.000  C
  C897     1.0000 0.64731  0.46592  0.89500  Biso   1.000  C
  C898     1.0000 0.71616  0.35188  0.85067  Biso   1.000  C
  C899     1.0000 0.69446  0.33886  0.83783  Biso   1.000  C
  C900     1.0000 0.68387  0.31686  0.84906  Biso   1.000  C
  H300     1.0000 0.69160  0.30970  0.86370  Biso   1.000  H
  Cu76     1.0000 0.75030  0.89241  0.35720  Biso   1.000  Cu
  O601     1.0000 0.62976  0.91115  0.47370  Biso   1.000  O
  O602     1.0000 0.66002  0.88153  0.47345  Biso   1.000  O
  O603     1.0000 0.72245  0.87888  0.40617  Biso   1.000  O
  O604     1.0000 0.72550  0.91050  0.37794  Biso   1.000  O
  O605     1.0000 0.65698  0.97397  0.37501  Biso   1.000  O
  O606     1.0000 0.62726  0.97398  0.40536  Biso   1.000  O
  O607     1.0000 0.72227  0.87291  0.34159  Biso   1.000  O
  O608     1.0000 0.72531  0.84111  0.36949  Biso   1.000  O
  C901     1.0000 0.64958  0.90100  0.46493  Biso   1.000  C
  C902     1.0000 0.66163  0.91311  0.44210  Biso   1.000  C
  C903     1.0000 0.68298  0.90222  0.43145  Biso   1.000  C
  H301     1.0000 0.69050  0.88760  0.43900  Biso   1.000  H
  C904     1.0000 0.69348  0.91280  0.40943  Biso   1.000  C
  C905     1.0000 0.68209  0.93363  0.39781  Biso   1.000  C
  H302     1.0000 0.68910  0.94040  0.38260  Biso   1.000  H
  C906     1.0000 0.66066  0.94457  0.40830  Biso   1.000  C
  C907     1.0000 0.65028  0.93445  0.43081  Biso   1.000  C
  H303     1.0000 0.63570  0.94200  0.43830  Biso   1.000  H
  C908     1.0000 0.71555  0.89977  0.39688  Biso   1.000  C
  C909     1.0000 0.64731  0.96592  0.39500  Biso   1.000  C
  C910     1.0000 0.71616  0.85188  0.35067  Biso   1.000  C
  C911     1.0000 0.69446  0.83886  0.33783  Biso   1.000  C
  C912     1.0000 0.68387  0.81686  0.34906  Biso   1.000  C
  H304     1.0000 0.69160  0.80970  0.36370  Biso   1.000  H
  Cu77     1.0000 0.74970  0.39241  0.64280  Biso   1.000  Cu
  O609     1.0000 0.87024  0.41115  0.52630  Biso   1.000  O
  O610     1.0000 0.83998  0.38153  0.52655  Biso   1.000  O
  O611     1.0000 0.77755  0.37888  0.59383  Biso   1.000  O
  O612     1.0000 0.77450  0.41050  0.62206  Biso   1.000  O
  O613     1.0000 0.84302  0.47397  0.62499  Biso   1.000  O
  O614     1.0000 0.87274  0.47398  0.59464  Biso   1.000  O
  O615     1.0000 0.77773  0.37291  0.65841  Biso   1.000  O
  O616     1.0000 0.77469  0.34111  0.63051  Biso   1.000  O
  C913     1.0000 0.85042  0.40100  0.53507  Biso   1.000  C
  C914     1.0000 0.83837  0.41311  0.55790  Biso   1.000  C
  C915     1.0000 0.81702  0.40222  0.56855  Biso   1.000  C
  H305     1.0000 0.80950  0.38760  0.56100  Biso   1.000  H
  C916     1.0000 0.80652  0.41280  0.59057  Biso   1.000  C
  C917     1.0000 0.81791  0.43363  0.60219  Biso   1.000  C
  H306     1.0000 0.81090  0.44040  0.61740  Biso   1.000  H
  C918     1.0000 0.83934  0.44457  0.59170  Biso   1.000  C
  C919     1.0000 0.84972  0.43445  0.56919  Biso   1.000  C
  H307     1.0000 0.86430  0.44200  0.56170  Biso   1.000  H
  C920     1.0000 0.78445  0.39977  0.60312  Biso   1.000  C
  C921     1.0000 0.85269  0.46592  0.60500  Biso   1.000  C
  C922     1.0000 0.78384  0.35188  0.64933  Biso   1.000  C
  C923     1.0000 0.80554  0.33886  0.66217  Biso   1.000  C
  C924     1.0000 0.81613  0.31686  0.65094  Biso   1.000  C
  H308     1.0000 0.80840  0.30970  0.63630  Biso   1.000  H
  Cu78     1.0000 0.74970  0.89241  0.14280  Biso   1.000  Cu
  O617     1.0000 0.87024  0.91115  0.02630  Biso   1.000  O
  O618     1.0000 0.83998  0.88153  0.02655  Biso   1.000  O
  O619     1.0000 0.77755  0.87888  0.09383  Biso   1.000  O
  O620     1.0000 0.77450  0.91050  0.12206  Biso   1.000  O
  O621     1.0000 0.84302  0.97397  0.12499  Biso   1.000  O
  O622     1.0000 0.87274  0.97398  0.09464  Biso   1.000  O
  O623     1.0000 0.77773  0.87291  0.15841  Biso   1.000  O
  O624     1.0000 0.77469  0.84111  0.13051  Biso   1.000  O
  C925     1.0000 0.85042  0.90100  0.03507  Biso   1.000  C
  C926     1.0000 0.83837  0.91311  0.05790  Biso   1.000  C
  C927     1.0000 0.81702  0.90222  0.06855  Biso   1.000  C
  H309     1.0000 0.80950  0.88760  0.06100  Biso   1.000  H
  C928     1.0000 0.80652  0.91280  0.09057  Biso   1.000  C
  C929     1.0000 0.81791  0.93363  0.10219  Biso   1.000  C
  H310     1.0000 0.81090  0.94040  0.11740  Biso   1.000  H
  C930     1.0000 0.83934  0.94457  0.09170  Biso   1.000  C
  C931     1.0000 0.84972  0.93445  0.06919  Biso   1.000  C
  H311     1.0000 0.86430  0.94200  0.06170  Biso   1.000  H
  C932     1.0000 0.78445  0.89977  0.10312  Biso   1.000  C
  C933     1.0000 0.85269  0.96592  0.10500  Biso   1.000  C
  C934     1.0000 0.78384  0.85188  0.14933  Biso   1.000  C
  C935     1.0000 0.80554  0.83886  0.16217  Biso   1.000  C
  C936     1.0000 0.81613  0.81686  0.15094  Biso   1.000  C
  H312     1.0000 0.80840  0.80970  0.13630  Biso   1.000  H
  Cu79     1.0000 0.24970  0.39241  0.14280  Biso   1.000  Cu
  O625     1.0000 0.37024  0.41115  0.02630  Biso   1.000  O
  O626     1.0000 0.33998  0.38153  0.02655  Biso   1.000  O
  O627     1.0000 0.27755  0.37888  0.09383  Biso   1.000  O
  O628     1.0000 0.27450  0.41050  0.12206  Biso   1.000  O
  O629     1.0000 0.34302  0.47397  0.12499  Biso   1.000  O
  O630     1.0000 0.37274  0.47398  0.09464  Biso   1.000  O
  O631     1.0000 0.27773  0.37291  0.15841  Biso   1.000  O
  O632     1.0000 0.27469  0.34111  0.13051  Biso   1.000  O
  C937     1.0000 0.35042  0.40100  0.03507  Biso   1.000  C
  C938     1.0000 0.33837  0.41311  0.05790  Biso   1.000  C
  C939     1.0000 0.31702  0.40222  0.06855  Biso   1.000  C
  H313     1.0000 0.30950  0.38760  0.06100  Biso   1.000  H
  C940     1.0000 0.30652  0.41280  0.09057  Biso   1.000  C
  C941     1.0000 0.31791  0.43363  0.10219  Biso   1.000  C
  H314     1.0000 0.31090  0.44040  0.11740  Biso   1.000  H
  C942     1.0000 0.33934  0.44457  0.09170  Biso   1.000  C
  C943     1.0000 0.34972  0.43445  0.06919  Biso   1.000  C
  H315     1.0000 0.36430  0.44200  0.06170  Biso   1.000  H
  C944     1.0000 0.28445  0.39977  0.10312  Biso   1.000  C
  C945     1.0000 0.35269  0.46592  0.10500  Biso   1.000  C
  C946     1.0000 0.28384  0.35188  0.14933  Biso   1.000  C
  C947     1.0000 0.30554  0.33886  0.16217  Biso   1.000  C
  C948     1.0000 0.31613  0.31686  0.15094  Biso   1.000  C
  H316     1.0000 0.30840  0.30970  0.13630  Biso   1.000  H
  Cu80     1.0000 0.24970  0.89241  0.64280  Biso   1.000  Cu
  O633     1.0000 0.37024  0.91115  0.52630  Biso   1.000  O
  O634     1.0000 0.33998  0.88153  0.52655  Biso   1.000  O
  O635     1.0000 0.27755  0.87888  0.59383  Biso   1.000  O
  O636     1.0000 0.27450  0.91050  0.62206  Biso   1.000  O
  O637     1.0000 0.34302  0.97397  0.62499  Biso   1.000  O
  O638     1.0000 0.37274  0.97398  0.59464  Biso   1.000  O
  O639     1.0000 0.27773  0.87291  0.65841  Biso   1.000  O
  O640     1.0000 0.27469  0.84111  0.63051  Biso   1.000  O
  C949     1.0000 0.35042  0.90100  0.53507  Biso   1.000  C
  C950     1.0000 0.33837  0.91311  0.55790  Biso   1.000  C
  C951     1.0000 0.31702  0.90222  0.56855  Biso   1.000  C
  H317     1.0000 0.30950  0.88760  0.56100  Biso   1.000  H
  C952     1.0000 0.30652  0.91280  0.59057  Biso   1.000  C
  C953     1.0000 0.31791  0.93363  0.60219  Biso   1.000  C
  H318     1.0000 0.31090  0.94040  0.61740  Biso   1.000  H
  C954     1.0000 0.33934  0.94457  0.59170  Biso   1.000  C
  C955     1.0000 0.34972  0.93445  0.56919  Biso   1.000  C
  H319     1.0000 0.36430  0.94200  0.56170  Biso   1.000  H
  C956     1.0000 0.28445  0.89977  0.60312  Biso   1.000  C
  C957     1.0000 0.35269  0.96592  0.60500  Biso   1.000  C
  C958     1.0000 0.28384  0.85188  0.64933  Biso   1.000  C
  C959     1.0000 0.30554  0.83886  0.66217  Biso   1.000  C
  C960     1.0000 0.31613  0.81686  0.65094  Biso   1.000  C
  H320     1.0000 0.30840  0.80970  0.63630  Biso   1.000  H
  Cu81     1.0000 0.60759  0.64280  0.25030  Biso   1.000  Cu
  O641     1.0000 0.58885  0.52630  0.12976  Biso   1.000  O
  O642     1.0000 0.61847  0.52655  0.16002  Biso   1.000  O
  O643     1.0000 0.62112  0.59383  0.22245  Biso   1.000  O
  O644     1.0000 0.58950  0.62206  0.22550  Biso   1.000  O
  O645     1.0000 0.52603  0.62499  0.15698  Biso   1.000  O
  O646     1.0000 0.52602  0.59464  0.12726  Biso   1.000  O
  O647     1.0000 0.62709  0.65841  0.22227  Biso   1.000  O
  O648     1.0000 0.65889  0.63051  0.22531  Biso   1.000  O
  C961     1.0000 0.59900  0.53507  0.14958  Biso   1.000  C
  C962     1.0000 0.58689  0.55790  0.16163  Biso   1.000  C
  C963     1.0000 0.59778  0.56855  0.18298  Biso   1.000  C
  H321     1.0000 0.61240  0.56100  0.19050  Biso   1.000  H
  C964     1.0000 0.58720  0.59057  0.19348  Biso   1.000  C
  C965     1.0000 0.56637  0.60219  0.18209  Biso   1.000  C
  H322     1.0000 0.55960  0.61740  0.18910  Biso   1.000  H
  C966     1.0000 0.55543  0.59170  0.16066  Biso   1.000  C
  C967     1.0000 0.56555  0.56919  0.15028  Biso   1.000  C
  H323     1.0000 0.55800  0.56170  0.13570  Biso   1.000  H
  C968     1.0000 0.60023  0.60312  0.21555  Biso   1.000  C
  C969     1.0000 0.53408  0.60500  0.14731  Biso   1.000  C
  C970     1.0000 0.64812  0.64933  0.21616  Biso   1.000  C
  C971     1.0000 0.66114  0.66217  0.19446  Biso   1.000  C
  C972     1.0000 0.68314  0.65094  0.18387  Biso   1.000  C
  H324     1.0000 0.69030  0.63630  0.19160  Biso   1.000  H
  Cu82     1.0000 0.60759  0.14280  0.75030  Biso   1.000  Cu
  O649     1.0000 0.58885  0.02630  0.62976  Biso   1.000  O
  O650     1.0000 0.61847  0.02655  0.66002  Biso   1.000  O
  O651     1.0000 0.62112  0.09383  0.72245  Biso   1.000  O
  O652     1.0000 0.58950  0.12206  0.72550  Biso   1.000  O
  O653     1.0000 0.52603  0.12499  0.65698  Biso   1.000  O
  O654     1.0000 0.52602  0.09464  0.62726  Biso   1.000  O
  O655     1.0000 0.62709  0.15841  0.72227  Biso   1.000  O
  O656     1.0000 0.65889  0.13051  0.72531  Biso   1.000  O
  C973     1.0000 0.59900  0.03507  0.64958  Biso   1.000  C
  C974     1.0000 0.58689  0.05790  0.66163  Biso   1.000  C
  C975     1.0000 0.59778  0.06855  0.68298  Biso   1.000  C
  H325     1.0000 0.61240  0.06100  0.69050  Biso   1.000  H
  C976     1.0000 0.58720  0.09057  0.69348  Biso   1.000  C
  C977     1.0000 0.56637  0.10219  0.68209  Biso   1.000  C
  H326     1.0000 0.55960  0.11740  0.68910  Biso   1.000  H
  C978     1.0000 0.55543  0.09170  0.66066  Biso   1.000  C
  C979     1.0000 0.56555  0.06919  0.65028  Biso   1.000  C
  H327     1.0000 0.55800  0.06170  0.63570  Biso   1.000  H
  C980     1.0000 0.60023  0.10312  0.71555  Biso   1.000  C
  C981     1.0000 0.53408  0.10500  0.64731  Biso   1.000  C
  C982     1.0000 0.64812  0.14933  0.71616  Biso   1.000  C
  C983     1.0000 0.66114  0.16217  0.69446  Biso   1.000  C
  C984     1.0000 0.68314  0.15094  0.68387  Biso   1.000  C
  H328     1.0000 0.69030  0.13630  0.69160  Biso   1.000  H
  Cu83     1.0000 0.10759  0.64280  0.75030  Biso   1.000  Cu
  O657     1.0000 0.08885  0.52630  0.62976  Biso   1.000  O
  O658     1.0000 0.11847  0.52655  0.66002  Biso   1.000  O
  O659     1.0000 0.12112  0.59383  0.72245  Biso   1.000  O
  O660     1.0000 0.08950  0.62206  0.72550  Biso   1.000  O
  O661     1.0000 0.02603  0.62499  0.65698  Biso   1.000  O
  O662     1.0000 0.02602  0.59464  0.62726  Biso   1.000  O
  O663     1.0000 0.12709  0.65841  0.72227  Biso   1.000  O
  O664     1.0000 0.15889  0.63051  0.72531  Biso   1.000  O
  C985     1.0000 0.09900  0.53507  0.64958  Biso   1.000  C
  C986     1.0000 0.08689  0.55790  0.66163  Biso   1.000  C
  C987     1.0000 0.09778  0.56855  0.68298  Biso   1.000  C
  H329     1.0000 0.11240  0.56100  0.69050  Biso   1.000  H
  C988     1.0000 0.08720  0.59057  0.69348  Biso   1.000  C
  C989     1.0000 0.06637  0.60219  0.68209  Biso   1.000  C
  H330     1.0000 0.05960  0.61740  0.68910  Biso   1.000  H
  C990     1.0000 0.05543  0.59170  0.66066  Biso   1.000  C
  C991     1.0000 0.06555  0.56919  0.65028  Biso   1.000  C
  H331     1.0000 0.05800  0.56170  0.63570  Biso   1.000  H
  C992     1.0000 0.10023  0.60312  0.71555  Biso   1.000  C
  C993     1.0000 0.03408  0.60500  0.64731  Biso   1.000  C
  C994     1.0000 0.14812  0.64933  0.71616  Biso   1.000  C
  C995     1.0000 0.16114  0.66217  0.69446  Biso   1.000  C
  C996     1.0000 0.18314  0.65094  0.68387  Biso   1.000  C
  H332     1.0000 0.19030  0.63630  0.69160  Biso   1.000  H
  Cu84     1.0000 0.10759  0.14280  0.25030  Biso   1.000  Cu
  O665     1.0000 0.08885  0.02630  0.12976  Biso   1.000  O
  O666     1.0000 0.11847  0.02655  0.16002  Biso   1.000  O
  O667     1.0000 0.12112  0.09383  0.22245  Biso   1.000  O
  O668     1.0000 0.08950  0.12206  0.22550  Biso   1.000  O
  O669     1.0000 0.02603  0.12499  0.15698  Biso   1.000  O
  O670     1.0000 0.02602  0.09464  0.12726  Biso   1.000  O
  O671     1.0000 0.12709  0.15841  0.22227  Biso   1.000  O
  O672     1.0000 0.15889  0.13051  0.22531  Biso   1.000  O
  C997     1.0000 0.09900  0.03507  0.14958  Biso   1.000  C
  C998     1.0000 0.08689  0.05790  0.16163  Biso   1.000  C
  C999     1.0000 0.09778  0.06855  0.18298  Biso   1.000  C
  H333     1.0000 0.11240  0.06100  0.19050  Biso   1.000  H
  C1000    1.0000 0.08720  0.09057  0.19348  Biso   1.000  C
  C1001    1.0000 0.06637  0.10219  0.18209  Biso   1.000  C
  H334     1.0000 0.05960  0.11740  0.18910  Biso   1.000  H
  C1002    1.0000 0.05543  0.09170  0.16066  Biso   1.000  C
  C1003    1.0000 0.06555  0.06919  0.15028  Biso   1.000  C
  H335     1.0000 0.05800  0.06170  0.13570  Biso   1.000  H
  C1004    1.0000 0.10023  0.10312  0.21555  Biso   1.000  C
  C1005    1.0000 0.03408  0.10500  0.14731  Biso   1.000  C
  C1006    1.0000 0.14812  0.14933  0.21616  Biso   1.000  C
  C1007    1.0000 0.16114  0.16217  0.19446  Biso   1.000  C
  C1008    1.0000 0.18314  0.15094  0.18387  Biso   1.000  C
  H336     1.0000 0.19030  0.13630  0.19160  Biso   1.000  H
  Cu85     1.0000 0.60759  0.35720  0.74970  Biso   1.000  Cu
  O673     1.0000 0.58885  0.47370  0.87024  Biso   1.000  O
  O674     1.0000 0.61847  0.47345  0.83998  Biso   1.000  O
  O675     1.0000 0.62112  0.40617  0.77755  Biso   1.000  O
  O676     1.0000 0.58950  0.37794  0.77450  Biso   1.000  O
  O677     1.0000 0.52603  0.37501  0.84302  Biso   1.000  O
  O678     1.0000 0.52602  0.40536  0.87274  Biso   1.000  O
  O679     1.0000 0.62709  0.34159  0.77773  Biso   1.000  O
  O680     1.0000 0.65889  0.36949  0.77469  Biso   1.000  O
  C1009    1.0000 0.59900  0.46493  0.85042  Biso   1.000  C
  C1010    1.0000 0.58689  0.44210  0.83837  Biso   1.000  C
  C1011    1.0000 0.59778  0.43145  0.81702  Biso   1.000  C
  H337     1.0000 0.61240  0.43900  0.80950  Biso   1.000  H
  C1012    1.0000 0.58720  0.40943  0.80652  Biso   1.000  C
  C1013    1.0000 0.56637  0.39781  0.81791  Biso   1.000  C
  H338     1.0000 0.55960  0.38260  0.81090  Biso   1.000  H
  C1014    1.0000 0.55543  0.40830  0.83934  Biso   1.000  C
  C1015    1.0000 0.56555  0.43081  0.84972  Biso   1.000  C
  H339     1.0000 0.55800  0.43830  0.86430  Biso   1.000  H
  C1016    1.0000 0.60023  0.39688  0.78445  Biso   1.000  C
  C1017    1.0000 0.53408  0.39500  0.85269  Biso   1.000  C
  C1018    1.0000 0.64812  0.35067  0.78384  Biso   1.000  C
  C1019    1.0000 0.66114  0.33783  0.80554  Biso   1.000  C
  C1020    1.0000 0.68314  0.34906  0.81613  Biso   1.000  C
  H340     1.0000 0.69030  0.36370  0.80840  Biso   1.000  H
  Cu86     1.0000 0.60759  0.85720  0.24970  Biso   1.000  Cu
  O681     1.0000 0.58885  0.97370  0.37024  Biso   1.000  O
  O682     1.0000 0.61847  0.97345  0.33998  Biso   1.000  O
  O683     1.0000 0.62112  0.90617  0.27755  Biso   1.000  O
  O684     1.0000 0.58950  0.87794  0.27450  Biso   1.000  O
  O685     1.0000 0.52603  0.87501  0.34302  Biso   1.000  O
  O686     1.0000 0.52602  0.90536  0.37274  Biso   1.000  O
  O687     1.0000 0.62709  0.84159  0.27773  Biso   1.000  O
  O688     1.0000 0.65889  0.86949  0.27469  Biso   1.000  O
  C1021    1.0000 0.59900  0.96493  0.35042  Biso   1.000  C
  C1022    1.0000 0.58689  0.94210  0.33837  Biso   1.000  C
  C1023    1.0000 0.59778  0.93145  0.31702  Biso   1.000  C
  H341     1.0000 0.61240  0.93900  0.30950  Biso   1.000  H
  C1024    1.0000 0.58720  0.90943  0.30652  Biso   1.000  C
  C1025    1.0000 0.56637  0.89781  0.31791  Biso   1.000  C
  H342     1.0000 0.55960  0.88260  0.31090  Biso   1.000  H
  C1026    1.0000 0.55543  0.90830  0.33934  Biso   1.000  C
  C1027    1.0000 0.56555  0.93081  0.34972  Biso   1.000  C
  H343     1.0000 0.55800  0.93830  0.36430  Biso   1.000  H
  C1028    1.0000 0.60023  0.89688  0.28445  Biso   1.000  C
  C1029    1.0000 0.53408  0.89500  0.35269  Biso   1.000  C
  C1030    1.0000 0.64812  0.85067  0.28384  Biso   1.000  C
  C1031    1.0000 0.66114  0.83783  0.30554  Biso   1.000  C
  C1032    1.0000 0.68314  0.84906  0.31613  Biso   1.000  C
  H344     1.0000 0.69030  0.86370  0.30840  Biso   1.000  H
  Cu87     1.0000 0.10759  0.35720  0.24970  Biso   1.000  Cu
  O689     1.0000 0.08885  0.47370  0.37024  Biso   1.000  O
  O690     1.0000 0.11847  0.47345  0.33998  Biso   1.000  O
  O691     1.0000 0.12112  0.40617  0.27755  Biso   1.000  O
  O692     1.0000 0.08950  0.37794  0.27450  Biso   1.000  O
  O693     1.0000 0.02603  0.37501  0.34302  Biso   1.000  O
  O694     1.0000 0.02602  0.40536  0.37274  Biso   1.000  O
  O695     1.0000 0.12709  0.34159  0.27773  Biso   1.000  O
  O696     1.0000 0.15889  0.36949  0.27469  Biso   1.000  O
  C1033    1.0000 0.09900  0.46493  0.35042  Biso   1.000  C
  C1034    1.0000 0.08689  0.44210  0.33837  Biso   1.000  C
  C1035    1.0000 0.09778  0.43145  0.31702  Biso   1.000  C
  H345     1.0000 0.11240  0.43900  0.30950  Biso   1.000  H
  C1036    1.0000 0.08720  0.40943  0.30652  Biso   1.000  C
  C1037    1.0000 0.06637  0.39781  0.31791  Biso   1.000  C
  H346     1.0000 0.05960  0.38260  0.31090  Biso   1.000  H
  C1038    1.0000 0.05543  0.40830  0.33934  Biso   1.000  C
  C1039    1.0000 0.06555  0.43081  0.34972  Biso   1.000  C
  H347     1.0000 0.05800  0.43830  0.36430  Biso   1.000  H
  C1040    1.0000 0.10023  0.39688  0.28445  Biso   1.000  C
  C1041    1.0000 0.03408  0.39500  0.35269  Biso   1.000  C
  C1042    1.0000 0.14812  0.35067  0.28384  Biso   1.000  C
  C1043    1.0000 0.16114  0.33783  0.30554  Biso   1.000  C
  C1044    1.0000 0.18314  0.34906  0.31613  Biso   1.000  C
  H348     1.0000 0.19030  0.36370  0.30840  Biso   1.000  H
  Cu88     1.0000 0.10759  0.85720  0.74970  Biso   1.000  Cu
  O697     1.0000 0.08885  0.97370  0.87024  Biso   1.000  O
  O698     1.0000 0.11847  0.97345  0.83998  Biso   1.000  O
  O699     1.0000 0.12112  0.90617  0.77755  Biso   1.000  O
  O700     1.0000 0.08950  0.87794  0.77450  Biso   1.000  O
  O701     1.0000 0.02603  0.87501  0.84302  Biso   1.000  O
  O702     1.0000 0.02602  0.90536  0.87274  Biso   1.000  O
  O703     1.0000 0.12709  0.84159  0.77773  Biso   1.000  O
  O704     1.0000 0.15889  0.86949  0.77469  Biso   1.000  O
  C1045    1.0000 0.09900  0.96493  0.85042  Biso   1.000  C
  C1046    1.0000 0.08689  0.94210  0.83837  Biso   1.000  C
  C1047    1.0000 0.09778  0.93145  0.81702  Biso   1.000  C
  H349     1.0000 0.11240  0.93900  0.80950  Biso   1.000  H
  C1048    1.0000 0.08720  0.90943  0.80652  Biso   1.000  C
  C1049    1.0000 0.06637  0.89781  0.81791  Biso   1.000  C
  H350     1.0000 0.05960  0.88260  0.81090  Biso   1.000  H
  C1050    1.0000 0.05543  0.90830  0.83934  Biso   1.000  C
  C1051    1.0000 0.06555  0.93081  0.84972  Biso   1.000  C
  H351     1.0000 0.05800  0.93830  0.86430  Biso   1.000  H
  C1052    1.0000 0.10023  0.89688  0.78445  Biso   1.000  C
  C1053    1.0000 0.03408  0.89500  0.85269  Biso   1.000  C
  C1054    1.0000 0.14812  0.85067  0.78384  Biso   1.000  C
  C1055    1.0000 0.16114  0.83783  0.80554  Biso   1.000  C
  C1056    1.0000 0.18314  0.84906  0.81613  Biso   1.000  C
  H352     1.0000 0.19030  0.86370  0.80840  Biso   1.000  H
  Cu89     1.0000 0.39241  0.64280  0.74970  Biso   1.000  Cu
  O705     1.0000 0.41115  0.52630  0.87024  Biso   1.000  O
  O706     1.0000 0.38153  0.52655  0.83998  Biso   1.000  O
  O707     1.0000 0.37888  0.59383  0.77755  Biso   1.000  O
  O708     1.0000 0.41050  0.62206  0.77450  Biso   1.000  O
  O709     1.0000 0.47397  0.62499  0.84302  Biso   1.000  O
  O710     1.0000 0.47398  0.59464  0.87274  Biso   1.000  O
  O711     1.0000 0.37291  0.65841  0.77773  Biso   1.000  O
  O712     1.0000 0.34111  0.63051  0.77469  Biso   1.000  O
  C1057    1.0000 0.40100  0.53507  0.85042  Biso   1.000  C
  C1058    1.0000 0.41311  0.55790  0.83837  Biso   1.000  C
  C1059    1.0000 0.40222  0.56855  0.81702  Biso   1.000  C
  H353     1.0000 0.38760  0.56100  0.80950  Biso   1.000  H
  C1060    1.0000 0.41280  0.59057  0.80652  Biso   1.000  C
  C1061    1.0000 0.43363  0.60219  0.81791  Biso   1.000  C
  H354     1.0000 0.44040  0.61740  0.81090  Biso   1.000  H
  C1062    1.0000 0.44457  0.59170  0.83934  Biso   1.000  C
  C1063    1.0000 0.43445  0.56919  0.84972  Biso   1.000  C
  H355     1.0000 0.44200  0.56170  0.86430  Biso   1.000  H
  C1064    1.0000 0.39977  0.60312  0.78445  Biso   1.000  C
  C1065    1.0000 0.46592  0.60500  0.85269  Biso   1.000  C
  C1066    1.0000 0.35188  0.64933  0.78384  Biso   1.000  C
  C1067    1.0000 0.33886  0.66217  0.80554  Biso   1.000  C
  C1068    1.0000 0.31686  0.65094  0.81613  Biso   1.000  C
  H356     1.0000 0.30970  0.63630  0.80840  Biso   1.000  H
  Cu90     1.0000 0.39241  0.14280  0.24970  Biso   1.000  Cu
  O713     1.0000 0.41115  0.02630  0.37024  Biso   1.000  O
  O714     1.0000 0.38153  0.02655  0.33998  Biso   1.000  O
  O715     1.0000 0.37888  0.09383  0.27755  Biso   1.000  O
  O716     1.0000 0.41050  0.12206  0.27450  Biso   1.000  O
  O717     1.0000 0.47397  0.12499  0.34302  Biso   1.000  O
  O718     1.0000 0.47398  0.09464  0.37274  Biso   1.000  O
  O719     1.0000 0.37291  0.15841  0.27773  Biso   1.000  O
  O720     1.0000 0.34111  0.13051  0.27469  Biso   1.000  O
  C1069    1.0000 0.40100  0.03507  0.35042  Biso   1.000  C
  C1070    1.0000 0.41311  0.05790  0.33837  Biso   1.000  C
  C1071    1.0000 0.40222  0.06855  0.31702  Biso   1.000  C
  H357     1.0000 0.38760  0.06100  0.30950  Biso   1.000  H
  C1072    1.0000 0.41280  0.09057  0.30652  Biso   1.000  C
  C1073    1.0000 0.43363  0.10219  0.31791  Biso   1.000  C
  H358     1.0000 0.44040  0.11740  0.31090  Biso   1.000  H
  C1074    1.0000 0.44457  0.09170  0.33934  Biso   1.000  C
  C1075    1.0000 0.43445  0.06919  0.34972  Biso   1.000  C
  H359     1.0000 0.44200  0.06170  0.36430  Biso   1.000  H
  C1076    1.0000 0.39977  0.10312  0.28445  Biso   1.000  C
  C1077    1.0000 0.46592  0.10500  0.35269  Biso   1.000  C
  C1078    1.0000 0.35188  0.14933  0.28384  Biso   1.000  C
  C1079    1.0000 0.33886  0.16217  0.30554  Biso   1.000  C
  C1080    1.0000 0.31686  0.15094  0.31613  Biso   1.000  C
  H360     1.0000 0.30970  0.13630  0.30840  Biso   1.000  H
  Cu91     1.0000 0.89241  0.64280  0.24970  Biso   1.000  Cu
  O721     1.0000 0.91115  0.52630  0.37024  Biso   1.000  O
  O722     1.0000 0.88153  0.52655  0.33998  Biso   1.000  O
  O723     1.0000 0.87888  0.59383  0.27755  Biso   1.000  O
  O724     1.0000 0.91050  0.62206  0.27450  Biso   1.000  O
  O725     1.0000 0.97397  0.62499  0.34302  Biso   1.000  O
  O726     1.0000 0.97398  0.59464  0.37274  Biso   1.000  O
  O727     1.0000 0.87291  0.65841  0.27773  Biso   1.000  O
  O728     1.0000 0.84111  0.63051  0.27469  Biso   1.000  O
  C1081    1.0000 0.90100  0.53507  0.35042  Biso   1.000  C
  C1082    1.0000 0.91311  0.55790  0.33837  Biso   1.000  C
  C1083    1.0000 0.90222  0.56855  0.31702  Biso   1.000  C
  H361     1.0000 0.88760  0.56100  0.30950  Biso   1.000  H
  C1084    1.0000 0.91280  0.59057  0.30652  Biso   1.000  C
  C1085    1.0000 0.93363  0.60219  0.31791  Biso   1.000  C
  H362     1.0000 0.94040  0.61740  0.31090  Biso   1.000  H
  C1086    1.0000 0.94457  0.59170  0.33934  Biso   1.000  C
  C1087    1.0000 0.93445  0.56919  0.34972  Biso   1.000  C
  H363     1.0000 0.94200  0.56170  0.36430  Biso   1.000  H
  C1088    1.0000 0.89977  0.60312  0.28445  Biso   1.000  C
  C1089    1.0000 0.96592  0.60500  0.35269  Biso   1.000  C
  C1090    1.0000 0.85188  0.64933  0.28384  Biso   1.000  C
  C1091    1.0000 0.83886  0.66217  0.30554  Biso   1.000  C
  C1092    1.0000 0.81686  0.65094  0.31613  Biso   1.000  C
  H364     1.0000 0.80970  0.63630  0.30840  Biso   1.000  H
  Cu92     1.0000 0.89241  0.14280  0.74970  Biso   1.000  Cu
  O729     1.0000 0.91115  0.02630  0.87024  Biso   1.000  O
  O730     1.0000 0.88153  0.02655  0.83998  Biso   1.000  O
  O731     1.0000 0.87888  0.09383  0.77755  Biso   1.000  O
  O732     1.0000 0.91050  0.12206  0.77450  Biso   1.000  O
  O733     1.0000 0.97397  0.12499  0.84302  Biso   1.000  O
  O734     1.0000 0.97398  0.09464  0.87274  Biso   1.000  O
  O735     1.0000 0.87291  0.15841  0.77773  Biso   1.000  O
  O736     1.0000 0.84111  0.13051  0.77469  Biso   1.000  O
  C1093    1.0000 0.90100  0.03507  0.85042  Biso   1.000  C
  C1094    1.0000 0.91311  0.05790  0.83837  Biso   1.000  C
  C1095    1.0000 0.90222  0.06855  0.81702  Biso   1.000  C
  H365     1.0000 0.88760  0.06100  0.80950  Biso   1.000  H
  C1096    1.0000 0.91280  0.09057  0.80652  Biso   1.000  C
  C1097    1.0000 0.93363  0.10219  0.81791  Biso   1.000  C
  H366     1.0000 0.94040  0.11740  0.81090  Biso   1.000  H
  C1098    1.0000 0.94457  0.09170  0.83934  Biso   1.000  C
  C1099    1.0000 0.93445  0.06919  0.84972  Biso   1.000  C
  H367     1.0000 0.94200  0.06170  0.86430  Biso   1.000  H
  C1100    1.0000 0.89977  0.10312  0.78445  Biso   1.000  C
  C1101    1.0000 0.96592  0.10500  0.85269  Biso   1.000  C
  C1102    1.0000 0.85188  0.14933  0.78384  Biso   1.000  C
  C1103    1.0000 0.83886  0.16217  0.80554  Biso   1.000  C
  C1104    1.0000 0.81686  0.15094  0.81613  Biso   1.000  C
  H368     1.0000 0.80970  0.13630  0.80840  Biso   1.000  H
  Cu93     1.0000 0.39241  0.35720  0.25030  Biso   1.000  Cu
  O737     1.0000 0.41115  0.47370  0.12976  Biso   1.000  O
  O738     1.0000 0.38153  0.47345  0.16002  Biso   1.000  O
  O739     1.0000 0.37888  0.40617  0.22245  Biso   1.000  O
  O740     1.0000 0.41050  0.37794  0.22550  Biso   1.000  O
  O741     1.0000 0.47397  0.37501  0.15698  Biso   1.000  O
  O742     1.0000 0.47398  0.40536  0.12726  Biso   1.000  O
  O743     1.0000 0.37291  0.34159  0.22227  Biso   1.000  O
  O744     1.0000 0.34111  0.36949  0.22531  Biso   1.000  O
  C1105    1.0000 0.40100  0.46493  0.14958  Biso   1.000  C
  C1106    1.0000 0.41311  0.44210  0.16163  Biso   1.000  C
  C1107    1.0000 0.40222  0.43145  0.18298  Biso   1.000  C
  H369     1.0000 0.38760  0.43900  0.19050  Biso   1.000  H
  C1108    1.0000 0.41280  0.40943  0.19348  Biso   1.000  C
  C1109    1.0000 0.43363  0.39781  0.18209  Biso   1.000  C
  H370     1.0000 0.44040  0.38260  0.18910  Biso   1.000  H
  C1110    1.0000 0.44457  0.40830  0.16066  Biso   1.000  C
  C1111    1.0000 0.43445  0.43081  0.15028  Biso   1.000  C
  H371     1.0000 0.44200  0.43830  0.13570  Biso   1.000  H
  C1112    1.0000 0.39977  0.39688  0.21555  Biso   1.000  C
  C1113    1.0000 0.46592  0.39500  0.14731  Biso   1.000  C
  C1114    1.0000 0.35188  0.35067  0.21616  Biso   1.000  C
  C1115    1.0000 0.33886  0.33783  0.19446  Biso   1.000  C
  C1116    1.0000 0.31686  0.34906  0.18387  Biso   1.000  C
  H372     1.0000 0.30970  0.36370  0.19160  Biso   1.000  H
  Cu94     1.0000 0.39241  0.85720  0.75030  Biso   1.000  Cu
  O745     1.0000 0.41115  0.97370  0.62976  Biso   1.000  O
  O746     1.0000 0.38153  0.97345  0.66002  Biso   1.000  O
  O747     1.0000 0.37888  0.90617  0.72245  Biso   1.000  O
  O748     1.0000 0.41050  0.87794  0.72550  Biso   1.000  O
  O749     1.0000 0.47397  0.87501  0.65698  Biso   1.000  O
  O750     1.0000 0.47398  0.90536  0.62726  Biso   1.000  O
  O751     1.0000 0.37291  0.84159  0.72227  Biso   1.000  O
  O752     1.0000 0.34111  0.86949  0.72531  Biso   1.000  O
  C1117    1.0000 0.40100  0.96493  0.64958  Biso   1.000  C
  C1118    1.0000 0.41311  0.94210  0.66163  Biso   1.000  C
  C1119    1.0000 0.40222  0.93145  0.68298  Biso   1.000  C
  H373     1.0000 0.38760  0.93900  0.69050  Biso   1.000  H
  C1120    1.0000 0.41280  0.90943  0.69348  Biso   1.000  C
  C1121    1.0000 0.43363  0.89781  0.68209  Biso   1.000  C
  H374     1.0000 0.44040  0.88260  0.68910  Biso   1.000  H
  C1122    1.0000 0.44457  0.90830  0.66066  Biso   1.000  C
  C1123    1.0000 0.43445  0.93081  0.65028  Biso   1.000  C
  H375     1.0000 0.44200  0.93830  0.63570  Biso   1.000  H
  C1124    1.0000 0.39977  0.89688  0.71555  Biso   1.000  C
  C1125    1.0000 0.46592  0.89500  0.64731  Biso   1.000  C
  C1126    1.0000 0.35188  0.85067  0.71616  Biso   1.000  C
  C1127    1.0000 0.33886  0.83783  0.69446  Biso   1.000  C
  C1128    1.0000 0.31686  0.84906  0.68387  Biso   1.000  C
  H376     1.0000 0.30970  0.86370  0.69160  Biso   1.000  H
  Cu95     1.0000 0.89241  0.35720  0.75030  Biso   1.000  Cu
  O753     1.0000 0.91115  0.47370  0.62976  Biso   1.000  O
  O754     1.0000 0.88153  0.47345  0.66002  Biso   1.000  O
  O755     1.0000 0.87888  0.40617  0.72245  Biso   1.000  O
  O756     1.0000 0.91050  0.37794  0.72550  Biso   1.000  O
  O757     1.0000 0.97397  0.37501  0.65698  Biso   1.000  O
  O758     1.0000 0.97398  0.40536  0.62726  Biso   1.000  O
  O759     1.0000 0.87291  0.34159  0.72227  Biso   1.000  O
  O760     1.0000 0.84111  0.36949  0.72531  Biso   1.000  O
  C1129    1.0000 0.90100  0.46493  0.64958  Biso   1.000  C
  C1130    1.0000 0.91311  0.44210  0.66163  Biso   1.000  C
  C1131    1.0000 0.90222  0.43145  0.68298  Biso   1.000  C
  H377     1.0000 0.88760  0.43900  0.69050  Biso   1.000  H
  C1132    1.0000 0.91280  0.40943  0.69348  Biso   1.000  C
  C1133    1.0000 0.93363  0.39781  0.68209  Biso   1.000  C
  H378     1.0000 0.94040  0.38260  0.68910  Biso   1.000  H
  C1134    1.0000 0.94457  0.40830  0.66066  Biso   1.000  C
  C1135    1.0000 0.93445  0.43081  0.65028  Biso   1.000  C
  H379     1.0000 0.94200  0.43830  0.63570  Biso   1.000  H
  C1136    1.0000 0.89977  0.39688  0.71555  Biso   1.000  C
  C1137    1.0000 0.96592  0.39500  0.64731  Biso   1.000  C
  C1138    1.0000 0.85188  0.35067  0.71616  Biso   1.000  C
  C1139    1.0000 0.83886  0.33783  0.69446  Biso   1.000  C
  C1140    1.0000 0.81686  0.34906  0.68387  Biso   1.000  C
  H380     1.0000 0.80970  0.36370  0.69160  Biso   1.000  H
  Cu96     1.0000 0.89241  0.85720  0.25030  Biso   1.000  Cu
  O761     1.0000 0.91115  0.97370  0.12976  Biso   1.000  O
  O762     1.0000 0.88153  0.97345  0.16002  Biso   1.000  O
  O763     1.0000 0.87888  0.90617  0.22245  Biso   1.000  O
  O764     1.0000 0.91050  0.87794  0.22550  Biso   1.000  O
  O765     1.0000 0.97397  0.87501  0.15698  Biso   1.000  O
  O766     1.0000 0.97398  0.90536  0.12726  Biso   1.000  O
  O767     1.0000 0.87291  0.84159  0.22227  Biso   1.000  O
  O768     1.0000 0.84111  0.86949  0.22531  Biso   1.000  O
  C1141    1.0000 0.90100  0.96493  0.14958  Biso   1.000  C
  C1142    1.0000 0.91311  0.94210  0.16163  Biso   1.000  C
  C1143    1.0000 0.90222  0.93145  0.18298  Biso   1.000  C
  H381     1.0000 0.88760  0.93900  0.19050  Biso   1.000  H
  C1144    1.0000 0.91280  0.90943  0.19348  Biso   1.000  C
  C1145    1.0000 0.93363  0.89781  0.18209  Biso   1.000  C
  H382     1.0000 0.94040  0.88260  0.18910  Biso   1.000  H
  C1146    1.0000 0.94457  0.90830  0.16066  Biso   1.000  C
  C1147    1.0000 0.93445  0.93081  0.15028  Biso   1.000  C
  H383     1.0000 0.94200  0.93830  0.13570  Biso   1.000  H
  C1148    1.0000 0.89977  0.89688  0.21555  Biso   1.000  C
  C1149    1.0000 0.96592  0.89500  0.14731  Biso   1.000  C
  C1150    1.0000 0.85188  0.85067  0.21616  Biso   1.000  C
  C1151    1.0000 0.83886  0.83783  0.19446  Biso   1.000  C
  C1152    1.0000 0.81686  0.84906  0.18387  Biso   1.000  C
  H384     1.0000 0.80970  0.86370  0.19160  Biso   1.000  H
  Cu97     1.0000 0.75030  0.85720  0.89241  Biso   1.000  Cu
  O769     1.0000 0.62976  0.97370  0.91115  Biso   1.000  O
  O770     1.0000 0.66002  0.97345  0.88153  Biso   1.000  O
  O771     1.0000 0.72245  0.90617  0.87888  Biso   1.000  O
  O772     1.0000 0.72550  0.87794  0.91050  Biso   1.000  O
  O773     1.0000 0.65698  0.87501  0.97397  Biso   1.000  O
  O774     1.0000 0.62726  0.90536  0.97398  Biso   1.000  O
  O775     1.0000 0.72227  0.84159  0.87291  Biso   1.000  O
  O776     1.0000 0.72531  0.86949  0.84111  Biso   1.000  O
  C1153    1.0000 0.64958  0.96493  0.90100  Biso   1.000  C
  C1154    1.0000 0.66163  0.94210  0.91311  Biso   1.000  C
  C1155    1.0000 0.68298  0.93145  0.90222  Biso   1.000  C
  H385     1.0000 0.69050  0.93900  0.88760  Biso   1.000  H
  C1156    1.0000 0.69348  0.90943  0.91280  Biso   1.000  C
  C1157    1.0000 0.68209  0.89781  0.93363  Biso   1.000  C
  H386     1.0000 0.68910  0.88260  0.94040  Biso   1.000  H
  C1158    1.0000 0.66066  0.90830  0.94457  Biso   1.000  C
  C1159    1.0000 0.65028  0.93081  0.93445  Biso   1.000  C
  H387     1.0000 0.63570  0.93830  0.94200  Biso   1.000  H
  C1160    1.0000 0.71555  0.89688  0.89977  Biso   1.000  C
  C1161    1.0000 0.64731  0.89500  0.96592  Biso   1.000  C
  C1162    1.0000 0.71616  0.85067  0.85188  Biso   1.000  C
  C1163    1.0000 0.69446  0.83783  0.83886  Biso   1.000  C
  C1164    1.0000 0.68387  0.84906  0.81686  Biso   1.000  C
  H388     1.0000 0.69160  0.86370  0.80970  Biso   1.000  H
  Cu98     1.0000 0.75030  0.35720  0.39241  Biso   1.000  Cu
  O777     1.0000 0.62976  0.47370  0.41115  Biso   1.000  O
  O778     1.0000 0.66002  0.47345  0.38153  Biso   1.000  O
  O779     1.0000 0.72245  0.40617  0.37888  Biso   1.000  O
  O780     1.0000 0.72550  0.37794  0.41050  Biso   1.000  O
  O781     1.0000 0.65698  0.37501  0.47397  Biso   1.000  O
  O782     1.0000 0.62726  0.40536  0.47398  Biso   1.000  O
  O783     1.0000 0.72227  0.34159  0.37291  Biso   1.000  O
  O784     1.0000 0.72531  0.36949  0.34111  Biso   1.000  O
  C1165    1.0000 0.64958  0.46493  0.40100  Biso   1.000  C
  C1166    1.0000 0.66163  0.44210  0.41311  Biso   1.000  C
  C1167    1.0000 0.68298  0.43145  0.40222  Biso   1.000  C
  H389     1.0000 0.69050  0.43900  0.38760  Biso   1.000  H
  C1168    1.0000 0.69348  0.40943  0.41280  Biso   1.000  C
  C1169    1.0000 0.68209  0.39781  0.43363  Biso   1.000  C
  H390     1.0000 0.68910  0.38260  0.44040  Biso   1.000  H
  C1170    1.0000 0.66066  0.40830  0.44457  Biso   1.000  C
  C1171    1.0000 0.65028  0.43081  0.43445  Biso   1.000  C
  H391     1.0000 0.63570  0.43830  0.44200  Biso   1.000  H
  C1172    1.0000 0.71555  0.39688  0.39977  Biso   1.000  C
  C1173    1.0000 0.64731  0.39500  0.46592  Biso   1.000  C
  C1174    1.0000 0.71616  0.35067  0.35188  Biso   1.000  C
  C1175    1.0000 0.69446  0.33783  0.33886  Biso   1.000  C
  C1176    1.0000 0.68387  0.34906  0.31686  Biso   1.000  C
  H392     1.0000 0.69160  0.36370  0.30970  Biso   1.000  H
  Cu99     1.0000 0.25030  0.85720  0.39241  Biso   1.000  Cu
  O785     1.0000 0.12976  0.97370  0.41115  Biso   1.000  O
  O786     1.0000 0.16002  0.97345  0.38153  Biso   1.000  O
  O787     1.0000 0.22245  0.90617  0.37888  Biso   1.000  O
  O788     1.0000 0.22550  0.87794  0.41050  Biso   1.000  O
  O789     1.0000 0.15698  0.87501  0.47397  Biso   1.000  O
  O790     1.0000 0.12726  0.90536  0.47398  Biso   1.000  O
  O791     1.0000 0.22227  0.84159  0.37291  Biso   1.000  O
  O792     1.0000 0.22531  0.86949  0.34111  Biso   1.000  O
  C1177    1.0000 0.14958  0.96493  0.40100  Biso   1.000  C
  C1178    1.0000 0.16163  0.94210  0.41311  Biso   1.000  C
  C1179    1.0000 0.18298  0.93145  0.40222  Biso   1.000  C
  H393     1.0000 0.19050  0.93900  0.38760  Biso   1.000  H
  C1180    1.0000 0.19348  0.90943  0.41280  Biso   1.000  C
  C1181    1.0000 0.18209  0.89781  0.43363  Biso   1.000  C
  H394     1.0000 0.18910  0.88260  0.44040  Biso   1.000  H
  C1182    1.0000 0.16066  0.90830  0.44457  Biso   1.000  C
  C1183    1.0000 0.15028  0.93081  0.43445  Biso   1.000  C
  H395     1.0000 0.13570  0.93830  0.44200  Biso   1.000  H
  C1184    1.0000 0.21555  0.89688  0.39977  Biso   1.000  C
  C1185    1.0000 0.14731  0.89500  0.46592  Biso   1.000  C
  C1186    1.0000 0.21616  0.85067  0.35188  Biso   1.000  C
  C1187    1.0000 0.19446  0.83783  0.33886  Biso   1.000  C
  C1188    1.0000 0.18387  0.84906  0.31686  Biso   1.000  C
  H396     1.0000 0.19160  0.86370  0.30970  Biso   1.000  H
  Cu100    1.0000 0.25030  0.35720  0.89241  Biso   1.000  Cu
  O793     1.0000 0.12976  0.47370  0.91115  Biso   1.000  O
  O794     1.0000 0.16002  0.47345  0.88153  Biso   1.000  O
  O795     1.0000 0.22245  0.40617  0.87888  Biso   1.000  O
  O796     1.0000 0.22550  0.37794  0.91050  Biso   1.000  O
  O797     1.0000 0.15698  0.37501  0.97397  Biso   1.000  O
  O798     1.0000 0.12726  0.40536  0.97398  Biso   1.000  O
  O799     1.0000 0.22227  0.34159  0.87291  Biso   1.000  O
  O800     1.0000 0.22531  0.36949  0.84111  Biso   1.000  O
  C1189    1.0000 0.14958  0.46493  0.90100  Biso   1.000  C
  C1190    1.0000 0.16163  0.44210  0.91311  Biso   1.000  C
  C1191    1.0000 0.18298  0.43145  0.90222  Biso   1.000  C
  H397     1.0000 0.19050  0.43900  0.88760  Biso   1.000  H
  C1192    1.0000 0.19348  0.40943  0.91280  Biso   1.000  C
  C1193    1.0000 0.18209  0.39781  0.93363  Biso   1.000  C
  H398     1.0000 0.18910  0.38260  0.94040  Biso   1.000  H
  C1194    1.0000 0.16066  0.40830  0.94457  Biso   1.000  C
  C1195    1.0000 0.15028  0.43081  0.93445  Biso   1.000  C
  H399     1.0000 0.13570  0.43830  0.94200  Biso   1.000  H
  C1196    1.0000 0.21555  0.39688  0.89977  Biso   1.000  C
  C1197    1.0000 0.14731  0.39500  0.96592  Biso   1.000  C
  C1198    1.0000 0.21616  0.35067  0.85188  Biso   1.000  C
  C1199    1.0000 0.19446  0.33783  0.83886  Biso   1.000  C
  C1200    1.0000 0.18387  0.34906  0.81686  Biso   1.000  C
  H400     1.0000 0.19160  0.36370  0.80970  Biso   1.000  H
  Cu101    1.0000 0.24970  0.14280  0.89241  Biso   1.000  Cu
  O801     1.0000 0.37024  0.02630  0.91115  Biso   1.000  O
  O802     1.0000 0.33998  0.02655  0.88153  Biso   1.000  O
  O803     1.0000 0.27755  0.09383  0.87888  Biso   1.000  O
  O804     1.0000 0.27450  0.12206  0.91050  Biso   1.000  O
  O805     1.0000 0.34302  0.12499  0.97397  Biso   1.000  O
  O806     1.0000 0.37274  0.09464  0.97398  Biso   1.000  O
  O807     1.0000 0.27773  0.15841  0.87291  Biso   1.000  O
  O808     1.0000 0.27469  0.13051  0.84111  Biso   1.000  O
  C1201    1.0000 0.35042  0.03507  0.90100  Biso   1.000  C
  C1202    1.0000 0.33837  0.05790  0.91311  Biso   1.000  C
  C1203    1.0000 0.31702  0.06855  0.90222  Biso   1.000  C
  H401     1.0000 0.30950  0.06100  0.88760  Biso   1.000  H
  C1204    1.0000 0.30652  0.09057  0.91280  Biso   1.000  C
  C1205    1.0000 0.31791  0.10219  0.93363  Biso   1.000  C
  H402     1.0000 0.31090  0.11740  0.94040  Biso   1.000  H
  C1206    1.0000 0.33934  0.09170  0.94457  Biso   1.000  C
  C1207    1.0000 0.34972  0.06919  0.93445  Biso   1.000  C
  H403     1.0000 0.36430  0.06170  0.94200  Biso   1.000  H
  C1208    1.0000 0.28445  0.10312  0.89977  Biso   1.000  C
  C1209    1.0000 0.35269  0.10500  0.96592  Biso   1.000  C
  C1210    1.0000 0.28384  0.14933  0.85188  Biso   1.000  C
  C1211    1.0000 0.30554  0.16217  0.83886  Biso   1.000  C
  C1212    1.0000 0.31613  0.15094  0.81686  Biso   1.000  C
  H404     1.0000 0.30840  0.13630  0.80970  Biso   1.000  H
  Cu102    1.0000 0.24970  0.64280  0.39241  Biso   1.000  Cu
  O809     1.0000 0.37024  0.52630  0.41115  Biso   1.000  O
  O810     1.0000 0.33998  0.52655  0.38153  Biso   1.000  O
  O811     1.0000 0.27755  0.59383  0.37888  Biso   1.000  O
  O812     1.0000 0.27450  0.62206  0.41050  Biso   1.000  O
  O813     1.0000 0.34302  0.62499  0.47397  Biso   1.000  O
  O814     1.0000 0.37274  0.59464  0.47398  Biso   1.000  O
  O815     1.0000 0.27773  0.65841  0.37291  Biso   1.000  O
  O816     1.0000 0.27469  0.63051  0.34111  Biso   1.000  O
  C1213    1.0000 0.35042  0.53507  0.40100  Biso   1.000  C
  C1214    1.0000 0.33837  0.55790  0.41311  Biso   1.000  C
  C1215    1.0000 0.31702  0.56855  0.40222  Biso   1.000  C
  H405     1.0000 0.30950  0.56100  0.38760  Biso   1.000  H
  C1216    1.0000 0.30652  0.59057  0.41280  Biso   1.000  C
  C1217    1.0000 0.31791  0.60219  0.43363  Biso   1.000  C
  H406     1.0000 0.31090  0.61740  0.44040  Biso   1.000  H
  C1218    1.0000 0.33934  0.59170  0.44457  Biso   1.000  C
  C1219    1.0000 0.34972  0.56919  0.43445  Biso   1.000  C
  H407     1.0000 0.36430  0.56170  0.44200  Biso   1.000  H
  C1220    1.0000 0.28445  0.60312  0.39977  Biso   1.000  C
  C1221    1.0000 0.35269  0.60500  0.46592  Biso   1.000  C
  C1222    1.0000 0.28384  0.64933  0.35188  Biso   1.000  C
  C1223    1.0000 0.30554  0.66217  0.33886  Biso   1.000  C
  C1224    1.0000 0.31613  0.65094  0.31686  Biso   1.000  C
  H408     1.0000 0.30840  0.63630  0.30970  Biso   1.000  H
  Cu103    1.0000 0.74970  0.14280  0.39241  Biso   1.000  Cu
  O817     1.0000 0.87024  0.02630  0.41115  Biso   1.000  O
  O818     1.0000 0.83998  0.02655  0.38153  Biso   1.000  O
  O819     1.0000 0.77755  0.09383  0.37888  Biso   1.000  O
  O820     1.0000 0.77450  0.12206  0.41050  Biso   1.000  O
  O821     1.0000 0.84302  0.12499  0.47397  Biso   1.000  O
  O822     1.0000 0.87274  0.09464  0.47398  Biso   1.000  O
  O823     1.0000 0.77773  0.15841  0.37291  Biso   1.000  O
  O824     1.0000 0.77469  0.13051  0.34111  Biso   1.000  O
  C1225    1.0000 0.85042  0.03507  0.40100  Biso   1.000  C
  C1226    1.0000 0.83837  0.05790  0.41311  Biso   1.000  C
  C1227    1.0000 0.81702  0.06855  0.40222  Biso   1.000  C
  H409     1.0000 0.80950  0.06100  0.38760  Biso   1.000  H
  C1228    1.0000 0.80652  0.09057  0.41280  Biso   1.000  C
  C1229    1.0000 0.81791  0.10219  0.43363  Biso   1.000  C
  H410     1.0000 0.81090  0.11740  0.44040  Biso   1.000  H
  C1230    1.0000 0.83934  0.09170  0.44457  Biso   1.000  C
  C1231    1.0000 0.84972  0.06919  0.43445  Biso   1.000  C
  H411     1.0000 0.86430  0.06170  0.44200  Biso   1.000  H
  C1232    1.0000 0.78445  0.10312  0.39977  Biso   1.000  C
  C1233    1.0000 0.85269  0.10500  0.46592  Biso   1.000  C
  C1234    1.0000 0.78384  0.14933  0.35188  Biso   1.000  C
  C1235    1.0000 0.80554  0.16217  0.33886  Biso   1.000  C
  C1236    1.0000 0.81613  0.15094  0.31686  Biso   1.000  C
  H412     1.0000 0.80840  0.13630  0.30970  Biso   1.000  H
  Cu104    1.0000 0.74970  0.64280  0.89241  Biso   1.000  Cu
  O825     1.0000 0.87024  0.52630  0.91115  Biso   1.000  O
  O826     1.0000 0.83998  0.52655  0.88153  Biso   1.000  O
  O827     1.0000 0.77755  0.59383  0.87888  Biso   1.000  O
  O828     1.0000 0.77450  0.62206  0.91050  Biso   1.000  O
  O829     1.0000 0.84302  0.62499  0.97397  Biso   1.000  O
  O830     1.0000 0.87274  0.59464  0.97398  Biso   1.000  O
  O831     1.0000 0.77773  0.65841  0.87291  Biso   1.000  O
  O832     1.0000 0.77469  0.63051  0.84111  Biso   1.000  O
  C1237    1.0000 0.85042  0.53507  0.90100  Biso   1.000  C
  C1238    1.0000 0.83837  0.55790  0.91311  Biso   1.000  C
  C1239    1.0000 0.81702  0.56855  0.90222  Biso   1.000  C
  H413     1.0000 0.80950  0.56100  0.88760  Biso   1.000  H
  C1240    1.0000 0.80652  0.59057  0.91280  Biso   1.000  C
  C1241    1.0000 0.81791  0.60219  0.93363  Biso   1.000  C
  H414     1.0000 0.81090  0.61740  0.94040  Biso   1.000  H
  C1242    1.0000 0.83934  0.59170  0.94457  Biso   1.000  C
  C1243    1.0000 0.84972  0.56919  0.93445  Biso   1.000  C
  H415     1.0000 0.86430  0.56170  0.94200  Biso   1.000  H
  C1244    1.0000 0.78445  0.60312  0.89977  Biso   1.000  C
  C1245    1.0000 0.85269  0.60500  0.96592  Biso   1.000  C
  C1246    1.0000 0.78384  0.64933  0.85188  Biso   1.000  C
  C1247    1.0000 0.80554  0.66217  0.83886  Biso   1.000  C
  C1248    1.0000 0.81613  0.65094  0.81686  Biso   1.000  C
  H416     1.0000 0.80840  0.63630  0.80970  Biso   1.000  H
  Cu105    1.0000 0.24970  0.85720  0.10759  Biso   1.000  Cu
  O833     1.0000 0.37024  0.97370  0.08885  Biso   1.000  O
  O834     1.0000 0.33998  0.97345  0.11847  Biso   1.000  O
  O835     1.0000 0.27755  0.90617  0.12112  Biso   1.000  O
  O836     1.0000 0.27450  0.87794  0.08950  Biso   1.000  O
  O837     1.0000 0.34302  0.87501  0.02603  Biso   1.000  O
  O838     1.0000 0.37274  0.90536  0.02602  Biso   1.000  O
  O839     1.0000 0.27773  0.84159  0.12709  Biso   1.000  O
  O840     1.0000 0.27469  0.86949  0.15889  Biso   1.000  O
  C1249    1.0000 0.35042  0.96493  0.09900  Biso   1.000  C
  C1250    1.0000 0.33837  0.94210  0.08689  Biso   1.000  C
  C1251    1.0000 0.31702  0.93145  0.09778  Biso   1.000  C
  H417     1.0000 0.30950  0.93900  0.11240  Biso   1.000  H
  C1252    1.0000 0.30652  0.90943  0.08720  Biso   1.000  C
  C1253    1.0000 0.31791  0.89781  0.06637  Biso   1.000  C
  H418     1.0000 0.31090  0.88260  0.05960  Biso   1.000  H
  C1254    1.0000 0.33934  0.90830  0.05543  Biso   1.000  C
  C1255    1.0000 0.34972  0.93081  0.06555  Biso   1.000  C
  H419     1.0000 0.36430  0.93830  0.05800  Biso   1.000  H
  C1256    1.0000 0.28445  0.89688  0.10023  Biso   1.000  C
  C1257    1.0000 0.35269  0.89500  0.03408  Biso   1.000  C
  C1258    1.0000 0.28384  0.85067  0.14812  Biso   1.000  C
  C1259    1.0000 0.30554  0.83783  0.16114  Biso   1.000  C
  C1260    1.0000 0.31613  0.84906  0.18314  Biso   1.000  C
  H420     1.0000 0.30840  0.86370  0.19030  Biso   1.000  H
  Cu106    1.0000 0.24970  0.35720  0.60759  Biso   1.000  Cu
  O841     1.0000 0.37024  0.47370  0.58885  Biso   1.000  O
  O842     1.0000 0.33998  0.47345  0.61847  Biso   1.000  O
  O843     1.0000 0.27755  0.40617  0.62112  Biso   1.000  O
  O844     1.0000 0.27450  0.37794  0.58950  Biso   1.000  O
  O845     1.0000 0.34302  0.37501  0.52603  Biso   1.000  O
  O846     1.0000 0.37274  0.40536  0.52602  Biso   1.000  O
  O847     1.0000 0.27773  0.34159  0.62709  Biso   1.000  O
  O848     1.0000 0.27469  0.36949  0.65889  Biso   1.000  O
  C1261    1.0000 0.35042  0.46493  0.59900  Biso   1.000  C
  C1262    1.0000 0.33837  0.44210  0.58689  Biso   1.000  C
  C1263    1.0000 0.31702  0.43145  0.59778  Biso   1.000  C
  H421     1.0000 0.30950  0.43900  0.61240  Biso   1.000  H
  C1264    1.0000 0.30652  0.40943  0.58720  Biso   1.000  C
  C1265    1.0000 0.31791  0.39781  0.56637  Biso   1.000  C
  H422     1.0000 0.31090  0.38260  0.55960  Biso   1.000  H
  C1266    1.0000 0.33934  0.40830  0.55543  Biso   1.000  C
  C1267    1.0000 0.34972  0.43081  0.56555  Biso   1.000  C
  H423     1.0000 0.36430  0.43830  0.55800  Biso   1.000  H
  C1268    1.0000 0.28445  0.39688  0.60023  Biso   1.000  C
  C1269    1.0000 0.35269  0.39500  0.53408  Biso   1.000  C
  C1270    1.0000 0.28384  0.35067  0.64812  Biso   1.000  C
  C1271    1.0000 0.30554  0.33783  0.66114  Biso   1.000  C
  C1272    1.0000 0.31613  0.34906  0.68314  Biso   1.000  C
  H424     1.0000 0.30840  0.36370  0.69030  Biso   1.000  H
  Cu107    1.0000 0.74970  0.85720  0.60759  Biso   1.000  Cu
  O849     1.0000 0.87024  0.97370  0.58885  Biso   1.000  O
  O850     1.0000 0.83998  0.97345  0.61847  Biso   1.000  O
  O851     1.0000 0.77755  0.90617  0.62112  Biso   1.000  O
  O852     1.0000 0.77450  0.87794  0.58950  Biso   1.000  O
  O853     1.0000 0.84302  0.87501  0.52603  Biso   1.000  O
  O854     1.0000 0.87274  0.90536  0.52602  Biso   1.000  O
  O855     1.0000 0.77773  0.84159  0.62709  Biso   1.000  O
  O856     1.0000 0.77469  0.86949  0.65889  Biso   1.000  O
  C1273    1.0000 0.85042  0.96493  0.59900  Biso   1.000  C
  C1274    1.0000 0.83837  0.94210  0.58689  Biso   1.000  C
  C1275    1.0000 0.81702  0.93145  0.59778  Biso   1.000  C
  H425     1.0000 0.80950  0.93900  0.61240  Biso   1.000  H
  C1276    1.0000 0.80652  0.90943  0.58720  Biso   1.000  C
  C1277    1.0000 0.81791  0.89781  0.56637  Biso   1.000  C
  H426     1.0000 0.81090  0.88260  0.55960  Biso   1.000  H
  C1278    1.0000 0.83934  0.90830  0.55543  Biso   1.000  C
  C1279    1.0000 0.84972  0.93081  0.56555  Biso   1.000  C
  H427     1.0000 0.86430  0.93830  0.55800  Biso   1.000  H
  C1280    1.0000 0.78445  0.89688  0.60023  Biso   1.000  C
  C1281    1.0000 0.85269  0.89500  0.53408  Biso   1.000  C
  C1282    1.0000 0.78384  0.85067  0.64812  Biso   1.000  C
  C1283    1.0000 0.80554  0.83783  0.66114  Biso   1.000  C
  C1284    1.0000 0.81613  0.84906  0.68314  Biso   1.000  C
  H428     1.0000 0.80840  0.86370  0.69030  Biso   1.000  H
  Cu108    1.0000 0.74970  0.35720  0.10759  Biso   1.000  Cu
  O857     1.0000 0.87024  0.47370  0.08885  Biso   1.000  O
  O858     1.0000 0.83998  0.47345  0.11847  Biso   1.000  O
  O859     1.0000 0.77755  0.40617  0.12112  Biso   1.000  O
  O860     1.0000 0.77450  0.37794  0.08950  Biso   1.000  O
  O861     1.0000 0.84302  0.37501  0.02603  Biso   1.000  O
  O862     1.0000 0.87274  0.40536  0.02602  Biso   1.000  O
  O863     1.0000 0.77773  0.34159  0.12709  Biso   1.000  O
  O864     1.0000 0.77469  0.36949  0.15889  Biso   1.000  O
  C1285    1.0000 0.85042  0.46493  0.09900  Biso   1.000  C
  C1286    1.0000 0.83837  0.44210  0.08689  Biso   1.000  C
  C1287    1.0000 0.81702  0.43145  0.09778  Biso   1.000  C
  H429     1.0000 0.80950  0.43900  0.11240  Biso   1.000  H
  C1288    1.0000 0.80652  0.40943  0.08720  Biso   1.000  C
  C1289    1.0000 0.81791  0.39781  0.06637  Biso   1.000  C
  H430     1.0000 0.81090  0.38260  0.05960  Biso   1.000  H
  C1290    1.0000 0.83934  0.40830  0.05543  Biso   1.000  C
  C1291    1.0000 0.84972  0.43081  0.06555  Biso   1.000  C
  H431     1.0000 0.86430  0.43830  0.05800  Biso   1.000  H
  C1292    1.0000 0.78445  0.39688  0.10023  Biso   1.000  C
  C1293    1.0000 0.85269  0.39500  0.03408  Biso   1.000  C
  C1294    1.0000 0.78384  0.35067  0.14812  Biso   1.000  C
  C1295    1.0000 0.80554  0.33783  0.16114  Biso   1.000  C
  C1296    1.0000 0.81613  0.34906  0.18314  Biso   1.000  C
  H432     1.0000 0.80840  0.36370  0.19030  Biso   1.000  H
  Cu109    1.0000 0.75030  0.14280  0.10759  Biso   1.000  Cu
  O865     1.0000 0.62976  0.02630  0.08885  Biso   1.000  O
  O866     1.0000 0.66002  0.02655  0.11847  Biso   1.000  O
  O867     1.0000 0.72245  0.09383  0.12112  Biso   1.000  O
  O868     1.0000 0.72550  0.12206  0.08950  Biso   1.000  O
  O869     1.0000 0.65698  0.12499  0.02603  Biso   1.000  O
  O870     1.0000 0.62726  0.09464  0.02602  Biso   1.000  O
  O871     1.0000 0.72227  0.15841  0.12709  Biso   1.000  O
  O872     1.0000 0.72531  0.13051  0.15889  Biso   1.000  O
  C1297    1.0000 0.64958  0.03507  0.09900  Biso   1.000  C
  C1298    1.0000 0.66163  0.05790  0.08689  Biso   1.000  C
  C1299    1.0000 0.68298  0.06855  0.09778  Biso   1.000  C
  H433     1.0000 0.69050  0.06100  0.11240  Biso   1.000  H
  C1300    1.0000 0.69348  0.09057  0.08720  Biso   1.000  C
  C1301    1.0000 0.68209  0.10219  0.06637  Biso   1.000  C
  H434     1.0000 0.68910  0.11740  0.05960  Biso   1.000  H
  C1302    1.0000 0.66066  0.09170  0.05543  Biso   1.000  C
  C1303    1.0000 0.65028  0.06919  0.06555  Biso   1.000  C
  H435     1.0000 0.63570  0.06170  0.05800  Biso   1.000  H
  C1304    1.0000 0.71555  0.10312  0.10023  Biso   1.000  C
  C1305    1.0000 0.64731  0.10500  0.03408  Biso   1.000  C
  C1306    1.0000 0.71616  0.14933  0.14812  Biso   1.000  C
  C1307    1.0000 0.69446  0.16217  0.16114  Biso   1.000  C
  C1308    1.0000 0.68387  0.15094  0.18314  Biso   1.000  C
  H436     1.0000 0.69160  0.13630  0.19030  Biso   1.000  H
  Cu110    1.0000 0.75030  0.64280  0.60759  Biso   1.000  Cu
  O873     1.0000 0.62976  0.52630  0.58885  Biso   1.000  O
  O874     1.0000 0.66002  0.52655  0.61847  Biso   1.000  O
  O875     1.0000 0.72245  0.59383  0.62112  Biso   1.000  O
  O876     1.0000 0.72550  0.62206  0.58950  Biso   1.000  O
  O877     1.0000 0.65698  0.62499  0.52603  Biso   1.000  O
  O878     1.0000 0.62726  0.59464  0.52602  Biso   1.000  O
  O879     1.0000 0.72227  0.65841  0.62709  Biso   1.000  O
  O880     1.0000 0.72531  0.63051  0.65889  Biso   1.000  O
  C1309    1.0000 0.64958  0.53507  0.59900  Biso   1.000  C
  C1310    1.0000 0.66163  0.55790  0.58689  Biso   1.000  C
  C1311    1.0000 0.68298  0.56855  0.59778  Biso   1.000  C
  H437     1.0000 0.69050  0.56100  0.61240  Biso   1.000  H
  C1312    1.0000 0.69348  0.59057  0.58720  Biso   1.000  C
  C1313    1.0000 0.68209  0.60219  0.56637  Biso   1.000  C
  H438     1.0000 0.68910  0.61740  0.55960  Biso   1.000  H
  C1314    1.0000 0.66066  0.59170  0.55543  Biso   1.000  C
  C1315    1.0000 0.65028  0.56919  0.56555  Biso   1.000  C
  H439     1.0000 0.63570  0.56170  0.55800  Biso   1.000  H
  C1316    1.0000 0.71555  0.60312  0.60023  Biso   1.000  C
  C1317    1.0000 0.64731  0.60500  0.53408  Biso   1.000  C
  C1318    1.0000 0.71616  0.64933  0.64812  Biso   1.000  C
  C1319    1.0000 0.69446  0.66217  0.66114  Biso   1.000  C
  C1320    1.0000 0.68387  0.65094  0.68314  Biso   1.000  C
  H440     1.0000 0.69160  0.63630  0.69030  Biso   1.000  H
  Cu111    1.0000 0.25030  0.14280  0.60759  Biso   1.000  Cu
  O881     1.0000 0.12976  0.02630  0.58885  Biso   1.000  O
  O882     1.0000 0.16002  0.02655  0.61847  Biso   1.000  O
  O883     1.0000 0.22245  0.09383  0.62112  Biso   1.000  O
  O884     1.0000 0.22550  0.12206  0.58950  Biso   1.000  O
  O885     1.0000 0.15698  0.12499  0.52603  Biso   1.000  O
  O886     1.0000 0.12726  0.09464  0.52602  Biso   1.000  O
  O887     1.0000 0.22227  0.15841  0.62709  Biso   1.000  O
  O888     1.0000 0.22531  0.13051  0.65889  Biso   1.000  O
  C1321    1.0000 0.14958  0.03507  0.59900  Biso   1.000  C
  C1322    1.0000 0.16163  0.05790  0.58689  Biso   1.000  C
  C1323    1.0000 0.18298  0.06855  0.59778  Biso   1.000  C
  H441     1.0000 0.19050  0.06100  0.61240  Biso   1.000  H
  C1324    1.0000 0.19348  0.09057  0.58720  Biso   1.000  C
  C1325    1.0000 0.18209  0.10219  0.56637  Biso   1.000  C
  H442     1.0000 0.18910  0.11740  0.55960  Biso   1.000  H
  C1326    1.0000 0.16066  0.09170  0.55543  Biso   1.000  C
  C1327    1.0000 0.15028  0.06919  0.56555  Biso   1.000  C
  H443     1.0000 0.13570  0.06170  0.55800  Biso   1.000  H
  C1328    1.0000 0.21555  0.10312  0.60023  Biso   1.000  C
  C1329    1.0000 0.14731  0.10500  0.53408  Biso   1.000  C
  C1330    1.0000 0.21616  0.14933  0.64812  Biso   1.000  C
  C1331    1.0000 0.19446  0.16217  0.66114  Biso   1.000  C
  C1332    1.0000 0.18387  0.15094  0.68314  Biso   1.000  C
  H444     1.0000 0.19160  0.13630  0.69030  Biso   1.000  H
  Cu112    1.0000 0.25030  0.64280  0.10759  Biso   1.000  Cu
  O889     1.0000 0.12976  0.52630  0.08885  Biso   1.000  O
  O890     1.0000 0.16002  0.52655  0.11847  Biso   1.000  O
  O891     1.0000 0.22245  0.59383  0.12112  Biso   1.000  O
  O892     1.0000 0.22550  0.62206  0.08950  Biso   1.000  O
  O893     1.0000 0.15698  0.62499  0.02603  Biso   1.000  O
  O894     1.0000 0.12726  0.59464  0.02602  Biso   1.000  O
  O895     1.0000 0.22227  0.65841  0.12709  Biso   1.000  O
  O896     1.0000 0.22531  0.63051  0.15889  Biso   1.000  O
  C1333    1.0000 0.14958  0.53507  0.09900  Biso   1.000  C
  C1334    1.0000 0.16163  0.55790  0.08689  Biso   1.000  C
  C1335    1.0000 0.18298  0.56855  0.09778  Biso   1.000  C
  H445     1.0000 0.19050  0.56100  0.11240  Biso   1.000  H
  C1336    1.0000 0.19348  0.59057  0.08720  Biso   1.000  C
  C1337    1.0000 0.18209  0.60219  0.06637  Biso   1.000  C
  H446     1.0000 0.18910  0.61740  0.05960  Biso   1.000  H
  C1338    1.0000 0.16066  0.59170  0.05543  Biso   1.000  C
  C1339    1.0000 0.15028  0.56919  0.06555  Biso   1.000  C
  H447     1.0000 0.13570  0.56170  0.05800  Biso   1.000  H
  C1340    1.0000 0.21555  0.60312  0.10023  Biso   1.000  C
  C1341    1.0000 0.14731  0.60500  0.03408  Biso   1.000  C
  C1342    1.0000 0.21616  0.64933  0.14812  Biso   1.000  C
  C1343    1.0000 0.19446  0.66217  0.16114  Biso   1.000  C
  C1344    1.0000 0.18387  0.65094  0.18314  Biso   1.000  C
  H448     1.0000 0.19160  0.63630  0.19030  Biso   1.000  H
  Cu113    1.0000 0.89241  0.75030  0.85720  Biso   1.000  Cu
  O897     1.0000 0.91115  0.62976  0.97370  Biso   1.000  O
  O898     1.0000 0.88153  0.66002  0.97345  Biso   1.000  O
  O899     1.0000 0.87888  0.72245  0.90617  Biso   1.000  O
  O900     1.0000 0.91050  0.72550  0.87794  Biso   1.000  O
  O901     1.0000 0.97397  0.65698  0.87501  Biso   1.000  O
  O902     1.0000 0.97398  0.62726  0.90536  Biso   1.000  O
  O903     1.0000 0.87291  0.72227  0.84159  Biso   1.000  O
  O904     1.0000 0.84111  0.72531  0.86949  Biso   1.000  O
  C1345    1.0000 0.90100  0.64958  0.96493  Biso   1.000  C
  C1346    1.0000 0.91311  0.66163  0.94210  Biso   1.000  C
  C1347    1.0000 0.90222  0.68298  0.93145  Biso   1.000  C
  H449     1.0000 0.88760  0.69050  0.93900  Biso   1.000  H
  C1348    1.0000 0.91280  0.69348  0.90943  Biso   1.000  C
  C1349    1.0000 0.93363  0.68209  0.89781  Biso   1.000  C
  H450     1.0000 0.94040  0.68910  0.88260  Biso   1.000  H
  C1350    1.0000 0.94457  0.66066  0.90830  Biso   1.000  C
  C1351    1.0000 0.93445  0.65028  0.93081  Biso   1.000  C
  H451     1.0000 0.94200  0.63570  0.93830  Biso   1.000  H
  C1352    1.0000 0.89977  0.71555  0.89688  Biso   1.000  C
  C1353    1.0000 0.96592  0.64731  0.89500  Biso   1.000  C
  C1354    1.0000 0.85188  0.71616  0.85067  Biso   1.000  C
  C1355    1.0000 0.83886  0.69446  0.83783  Biso   1.000  C
  C1356    1.0000 0.81686  0.68387  0.84906  Biso   1.000  C
  H452     1.0000 0.80970  0.69160  0.86370  Biso   1.000  H
  Cu114    1.0000 0.89241  0.25030  0.35720  Biso   1.000  Cu
  O905     1.0000 0.91115  0.12976  0.47370  Biso   1.000  O
  O906     1.0000 0.88153  0.16002  0.47345  Biso   1.000  O
  O907     1.0000 0.87888  0.22245  0.40617  Biso   1.000  O
  O908     1.0000 0.91050  0.22550  0.37794  Biso   1.000  O
  O909     1.0000 0.97397  0.15698  0.37501  Biso   1.000  O
  O910     1.0000 0.97398  0.12726  0.40536  Biso   1.000  O
  O911     1.0000 0.87291  0.22227  0.34159  Biso   1.000  O
  O912     1.0000 0.84111  0.22531  0.36949  Biso   1.000  O
  C1357    1.0000 0.90100  0.14958  0.46493  Biso   1.000  C
  C1358    1.0000 0.91311  0.16163  0.44210  Biso   1.000  C
  C1359    1.0000 0.90222  0.18298  0.43145  Biso   1.000  C
  H453     1.0000 0.88760  0.19050  0.43900  Biso   1.000  H
  C1360    1.0000 0.91280  0.19348  0.40943  Biso   1.000  C
  C1361    1.0000 0.93363  0.18209  0.39781  Biso   1.000  C
  H454     1.0000 0.94040  0.18910  0.38260  Biso   1.000  H
  C1362    1.0000 0.94457  0.16066  0.40830  Biso   1.000  C
  C1363    1.0000 0.93445  0.15028  0.43081  Biso   1.000  C
  H455     1.0000 0.94200  0.13570  0.43830  Biso   1.000  H
  C1364    1.0000 0.89977  0.21555  0.39688  Biso   1.000  C
  C1365    1.0000 0.96592  0.14731  0.39500  Biso   1.000  C
  C1366    1.0000 0.85188  0.21616  0.35067  Biso   1.000  C
  C1367    1.0000 0.83886  0.19446  0.33783  Biso   1.000  C
  C1368    1.0000 0.81686  0.18387  0.34906  Biso   1.000  C
  H456     1.0000 0.80970  0.19160  0.36370  Biso   1.000  H
  Cu115    1.0000 0.39241  0.75030  0.35720  Biso   1.000  Cu
  O913     1.0000 0.41115  0.62976  0.47370  Biso   1.000  O
  O914     1.0000 0.38153  0.66002  0.47345  Biso   1.000  O
  O915     1.0000 0.37888  0.72245  0.40617  Biso   1.000  O
  O916     1.0000 0.41050  0.72550  0.37794  Biso   1.000  O
  O917     1.0000 0.47397  0.65698  0.37501  Biso   1.000  O
  O918     1.0000 0.47398  0.62726  0.40536  Biso   1.000  O
  O919     1.0000 0.37291  0.72227  0.34159  Biso   1.000  O
  O920     1.0000 0.34111  0.72531  0.36949  Biso   1.000  O
  C1369    1.0000 0.40100  0.64958  0.46493  Biso   1.000  C
  C1370    1.0000 0.41311  0.66163  0.44210  Biso   1.000  C
  C1371    1.0000 0.40222  0.68298  0.43145  Biso   1.000  C
  H457     1.0000 0.38760  0.69050  0.43900  Biso   1.000  H
  C1372    1.0000 0.41280  0.69348  0.40943  Biso   1.000  C
  C1373    1.0000 0.43363  0.68209  0.39781  Biso   1.000  C
  H458     1.0000 0.44040  0.68910  0.38260  Biso   1.000  H
  C1374    1.0000 0.44457  0.66066  0.40830  Biso   1.000  C
  C1375    1.0000 0.43445  0.65028  0.43081  Biso   1.000  C
  H459     1.0000 0.44200  0.63570  0.43830  Biso   1.000  H
  C1376    1.0000 0.39977  0.71555  0.39688  Biso   1.000  C
  C1377    1.0000 0.46592  0.64731  0.39500  Biso   1.000  C
  C1378    1.0000 0.35188  0.71616  0.35067  Biso   1.000  C
  C1379    1.0000 0.33886  0.69446  0.33783  Biso   1.000  C
  C1380    1.0000 0.31686  0.68387  0.34906  Biso   1.000  C
  H460     1.0000 0.30970  0.69160  0.36370  Biso   1.000  H
  Cu116    1.0000 0.39241  0.25030  0.85720  Biso   1.000  Cu
  O921     1.0000 0.41115  0.12976  0.97370  Biso   1.000  O
  O922     1.0000 0.38153  0.16002  0.97345  Biso   1.000  O
  O923     1.0000 0.37888  0.22245  0.90617  Biso   1.000  O
  O924     1.0000 0.41050  0.22550  0.87794  Biso   1.000  O
  O925     1.0000 0.47397  0.15698  0.87501  Biso   1.000  O
  O926     1.0000 0.47398  0.12726  0.90536  Biso   1.000  O
  O927     1.0000 0.37291  0.22227  0.84159  Biso   1.000  O
  O928     1.0000 0.34111  0.22531  0.86949  Biso   1.000  O
  C1381    1.0000 0.40100  0.14958  0.96493  Biso   1.000  C
  C1382    1.0000 0.41311  0.16163  0.94210  Biso   1.000  C
  C1383    1.0000 0.40222  0.18298  0.93145  Biso   1.000  C
  H461     1.0000 0.38760  0.19050  0.93900  Biso   1.000  H
  C1384    1.0000 0.41280  0.19348  0.90943  Biso   1.000  C
  C1385    1.0000 0.43363  0.18209  0.89781  Biso   1.000  C
  H462     1.0000 0.44040  0.18910  0.88260  Biso   1.000  H
  C1386    1.0000 0.44457  0.16066  0.90830  Biso   1.000  C
  C1387    1.0000 0.43445  0.15028  0.93081  Biso   1.000  C
  H463     1.0000 0.44200  0.13570  0.93830  Biso   1.000  H
  C1388    1.0000 0.39977  0.21555  0.89688  Biso   1.000  C
  C1389    1.0000 0.46592  0.14731  0.89500  Biso   1.000  C
  C1390    1.0000 0.35188  0.21616  0.85067  Biso   1.000  C
  C1391    1.0000 0.33886  0.19446  0.83783  Biso   1.000  C
  C1392    1.0000 0.31686  0.18387  0.84906  Biso   1.000  C
  H464     1.0000 0.30970  0.19160  0.86370  Biso   1.000  H
  Cu117    1.0000 0.89241  0.24970  0.14280  Biso   1.000  Cu
  O929     1.0000 0.91115  0.37024  0.02630  Biso   1.000  O
  O930     1.0000 0.88153  0.33998  0.02655  Biso   1.000  O
  O931     1.0000 0.87888  0.27755  0.09383  Biso   1.000  O
  O932     1.0000 0.91050  0.27450  0.12206  Biso   1.000  O
  O933     1.0000 0.97397  0.34302  0.12499  Biso   1.000  O
  O934     1.0000 0.97398  0.37274  0.09464  Biso   1.000  O
  O935     1.0000 0.87291  0.27773  0.15841  Biso   1.000  O
  O936     1.0000 0.84111  0.27469  0.13051  Biso   1.000  O
  C1393    1.0000 0.90100  0.35042  0.03507  Biso   1.000  C
  C1394    1.0000 0.91311  0.33837  0.05790  Biso   1.000  C
  C1395    1.0000 0.90222  0.31702  0.06855  Biso   1.000  C
  H465     1.0000 0.88760  0.30950  0.06100  Biso   1.000  H
  C1396    1.0000 0.91280  0.30652  0.09057  Biso   1.000  C
  C1397    1.0000 0.93363  0.31791  0.10219  Biso   1.000  C
  H466     1.0000 0.94040  0.31090  0.11740  Biso   1.000  H
  C1398    1.0000 0.94457  0.33934  0.09170  Biso   1.000  C
  C1399    1.0000 0.93445  0.34972  0.06919  Biso   1.000  C
  H467     1.0000 0.94200  0.36430  0.06170  Biso   1.000  H
  C1400    1.0000 0.89977  0.28445  0.10312  Biso   1.000  C
  C1401    1.0000 0.96592  0.35269  0.10500  Biso   1.000  C
  C1402    1.0000 0.85188  0.28384  0.14933  Biso   1.000  C
  C1403    1.0000 0.83886  0.30554  0.16217  Biso   1.000  C
  C1404    1.0000 0.81686  0.31613  0.15094  Biso   1.000  C
  H468     1.0000 0.80970  0.30840  0.13630  Biso   1.000  H
  Cu118    1.0000 0.89241  0.74970  0.64280  Biso   1.000  Cu
  O937     1.0000 0.91115  0.87024  0.52630  Biso   1.000  O
  O938     1.0000 0.88153  0.83998  0.52655  Biso   1.000  O
  O939     1.0000 0.87888  0.77755  0.59383  Biso   1.000  O
  O940     1.0000 0.91050  0.77450  0.62206  Biso   1.000  O
  O941     1.0000 0.97397  0.84302  0.62499  Biso   1.000  O
  O942     1.0000 0.97398  0.87274  0.59464  Biso   1.000  O
  O943     1.0000 0.87291  0.77773  0.65841  Biso   1.000  O
  O944     1.0000 0.84111  0.77469  0.63051  Biso   1.000  O
  C1405    1.0000 0.90100  0.85042  0.53507  Biso   1.000  C
  C1406    1.0000 0.91311  0.83837  0.55790  Biso   1.000  C
  C1407    1.0000 0.90222  0.81702  0.56855  Biso   1.000  C
  H469     1.0000 0.88760  0.80950  0.56100  Biso   1.000  H
  C1408    1.0000 0.91280  0.80652  0.59057  Biso   1.000  C
  C1409    1.0000 0.93363  0.81791  0.60219  Biso   1.000  C
  H470     1.0000 0.94040  0.81090  0.61740  Biso   1.000  H
  C1410    1.0000 0.94457  0.83934  0.59170  Biso   1.000  C
  C1411    1.0000 0.93445  0.84972  0.56919  Biso   1.000  C
  H471     1.0000 0.94200  0.86430  0.56170  Biso   1.000  H
  C1412    1.0000 0.89977  0.78445  0.60312  Biso   1.000  C
  C1413    1.0000 0.96592  0.85269  0.60500  Biso   1.000  C
  C1414    1.0000 0.85188  0.78384  0.64933  Biso   1.000  C
  C1415    1.0000 0.83886  0.80554  0.66217  Biso   1.000  C
  C1416    1.0000 0.81686  0.81613  0.65094  Biso   1.000  C
  H472     1.0000 0.80970  0.80840  0.63630  Biso   1.000  H
  Cu119    1.0000 0.39241  0.24970  0.64280  Biso   1.000  Cu
  O945     1.0000 0.41115  0.37024  0.52630  Biso   1.000  O
  O946     1.0000 0.38153  0.33998  0.52655  Biso   1.000  O
  O947     1.0000 0.37888  0.27755  0.59383  Biso   1.000  O
  O948     1.0000 0.41050  0.27450  0.62206  Biso   1.000  O
  O949     1.0000 0.47397  0.34302  0.62499  Biso   1.000  O
  O950     1.0000 0.47398  0.37274  0.59464  Biso   1.000  O
  O951     1.0000 0.37291  0.27773  0.65841  Biso   1.000  O
  O952     1.0000 0.34111  0.27469  0.63051  Biso   1.000  O
  C1417    1.0000 0.40100  0.35042  0.53507  Biso   1.000  C
  C1418    1.0000 0.41311  0.33837  0.55790  Biso   1.000  C
  C1419    1.0000 0.40222  0.31702  0.56855  Biso   1.000  C
  H473     1.0000 0.38760  0.30950  0.56100  Biso   1.000  H
  C1420    1.0000 0.41280  0.30652  0.59057  Biso   1.000  C
  C1421    1.0000 0.43363  0.31791  0.60219  Biso   1.000  C
  H474     1.0000 0.44040  0.31090  0.61740  Biso   1.000  H
  C1422    1.0000 0.44457  0.33934  0.59170  Biso   1.000  C
  C1423    1.0000 0.43445  0.34972  0.56919  Biso   1.000  C
  H475     1.0000 0.44200  0.36430  0.56170  Biso   1.000  H
  C1424    1.0000 0.39977  0.28445  0.60312  Biso   1.000  C
  C1425    1.0000 0.46592  0.35269  0.60500  Biso   1.000  C
  C1426    1.0000 0.35188  0.28384  0.64933  Biso   1.000  C
  C1427    1.0000 0.33886  0.30554  0.66217  Biso   1.000  C
  C1428    1.0000 0.31686  0.31613  0.65094  Biso   1.000  C
  H476     1.0000 0.30970  0.30840  0.63630  Biso   1.000  H
  Cu120    1.0000 0.39241  0.74970  0.14280  Biso   1.000  Cu
  O953     1.0000 0.41115  0.87024  0.02630  Biso   1.000  O
  O954     1.0000 0.38153  0.83998  0.02655  Biso   1.000  O
  O955     1.0000 0.37888  0.77755  0.09383  Biso   1.000  O
  O956     1.0000 0.41050  0.77450  0.12206  Biso   1.000  O
  O957     1.0000 0.47397  0.84302  0.12499  Biso   1.000  O
  O958     1.0000 0.47398  0.87274  0.09464  Biso   1.000  O
  O959     1.0000 0.37291  0.77773  0.15841  Biso   1.000  O
  O960     1.0000 0.34111  0.77469  0.13051  Biso   1.000  O
  C1429    1.0000 0.40100  0.85042  0.03507  Biso   1.000  C
  C1430    1.0000 0.41311  0.83837  0.05790  Biso   1.000  C
  C1431    1.0000 0.40222  0.81702  0.06855  Biso   1.000  C
  H477     1.0000 0.38760  0.80950  0.06100  Biso   1.000  H
  C1432    1.0000 0.41280  0.80652  0.09057  Biso   1.000  C
  C1433    1.0000 0.43363  0.81791  0.10219  Biso   1.000  C
  H478     1.0000 0.44040  0.81090  0.11740  Biso   1.000  H
  C1434    1.0000 0.44457  0.83934  0.09170  Biso   1.000  C
  C1435    1.0000 0.43445  0.84972  0.06919  Biso   1.000  C
  H479     1.0000 0.44200  0.86430  0.06170  Biso   1.000  H
  C1436    1.0000 0.39977  0.78445  0.10312  Biso   1.000  C
  C1437    1.0000 0.46592  0.85269  0.10500  Biso   1.000  C
  C1438    1.0000 0.35188  0.78384  0.14933  Biso   1.000  C
  C1439    1.0000 0.33886  0.80554  0.16217  Biso   1.000  C
  C1440    1.0000 0.31686  0.81613  0.15094  Biso   1.000  C
  H480     1.0000 0.30970  0.80840  0.13630  Biso   1.000  H
  Cu121    1.0000 0.10759  0.24970  0.85720  Biso   1.000  Cu
  O961     1.0000 0.08885  0.37024  0.97370  Biso   1.000  O
  O962     1.0000 0.11847  0.33998  0.97345  Biso   1.000  O
  O963     1.0000 0.12112  0.27755  0.90617  Biso   1.000  O
  O964     1.0000 0.08950  0.27450  0.87794  Biso   1.000  O
  O965     1.0000 0.02603  0.34302  0.87501  Biso   1.000  O
  O966     1.0000 0.02602  0.37274  0.90536  Biso   1.000  O
  O967     1.0000 0.12709  0.27773  0.84159  Biso   1.000  O
  O968     1.0000 0.15889  0.27469  0.86949  Biso   1.000  O
  C1441    1.0000 0.09900  0.35042  0.96493  Biso   1.000  C
  C1442    1.0000 0.08689  0.33837  0.94210  Biso   1.000  C
  C1443    1.0000 0.09778  0.31702  0.93145  Biso   1.000  C
  H481     1.0000 0.11240  0.30950  0.93900  Biso   1.000  H
  C1444    1.0000 0.08720  0.30652  0.90943  Biso   1.000  C
  C1445    1.0000 0.06637  0.31791  0.89781  Biso   1.000  C
  H482     1.0000 0.05960  0.31090  0.88260  Biso   1.000  H
  C1446    1.0000 0.05543  0.33934  0.90830  Biso   1.000  C
  C1447    1.0000 0.06555  0.34972  0.93081  Biso   1.000  C
  H483     1.0000 0.05800  0.36430  0.93830  Biso   1.000  H
  C1448    1.0000 0.10023  0.28445  0.89688  Biso   1.000  C
  C1449    1.0000 0.03408  0.35269  0.89500  Biso   1.000  C
  C1450    1.0000 0.14812  0.28384  0.85067  Biso   1.000  C
  C1451    1.0000 0.16114  0.30554  0.83783  Biso   1.000  C
  C1452    1.0000 0.18314  0.31613  0.84906  Biso   1.000  C
  H484     1.0000 0.19030  0.30840  0.86370  Biso   1.000  H
  Cu122    1.0000 0.10759  0.74970  0.35720  Biso   1.000  Cu
  O969     1.0000 0.08885  0.87024  0.47370  Biso   1.000  O
  O970     1.0000 0.11847  0.83998  0.47345  Biso   1.000  O
  O971     1.0000 0.12112  0.77755  0.40617  Biso   1.000  O
  O972     1.0000 0.08950  0.77450  0.37794  Biso   1.000  O
  O973     1.0000 0.02603  0.84302  0.37501  Biso   1.000  O
  O974     1.0000 0.02602  0.87274  0.40536  Biso   1.000  O
  O975     1.0000 0.12709  0.77773  0.34159  Biso   1.000  O
  O976     1.0000 0.15889  0.77469  0.36949  Biso   1.000  O
  C1453    1.0000 0.09900  0.85042  0.46493  Biso   1.000  C
  C1454    1.0000 0.08689  0.83837  0.44210  Biso   1.000  C
  C1455    1.0000 0.09778  0.81702  0.43145  Biso   1.000  C
  H485     1.0000 0.11240  0.80950  0.43900  Biso   1.000  H
  C1456    1.0000 0.08720  0.80652  0.40943  Biso   1.000  C
  C1457    1.0000 0.06637  0.81791  0.39781  Biso   1.000  C
  H486     1.0000 0.05960  0.81090  0.38260  Biso   1.000  H
  C1458    1.0000 0.05543  0.83934  0.40830  Biso   1.000  C
  C1459    1.0000 0.06555  0.84972  0.43081  Biso   1.000  C
  H487     1.0000 0.05800  0.86430  0.43830  Biso   1.000  H
  C1460    1.0000 0.10023  0.78445  0.39688  Biso   1.000  C
  C1461    1.0000 0.03408  0.85269  0.39500  Biso   1.000  C
  C1462    1.0000 0.14812  0.78384  0.35067  Biso   1.000  C
  C1463    1.0000 0.16114  0.80554  0.33783  Biso   1.000  C
  C1464    1.0000 0.18314  0.81613  0.34906  Biso   1.000  C
  H488     1.0000 0.19030  0.80840  0.36370  Biso   1.000  H
  Cu123    1.0000 0.60759  0.24970  0.35720  Biso   1.000  Cu
  O977     1.0000 0.58885  0.37024  0.47370  Biso   1.000  O
  O978     1.0000 0.61847  0.33998  0.47345  Biso   1.000  O
  O979     1.0000 0.62112  0.27755  0.40617  Biso   1.000  O
  O980     1.0000 0.58950  0.27450  0.37794  Biso   1.000  O
  O981     1.0000 0.52603  0.34302  0.37501  Biso   1.000  O
  O982     1.0000 0.52602  0.37274  0.40536  Biso   1.000  O
  O983     1.0000 0.62709  0.27773  0.34159  Biso   1.000  O
  O984     1.0000 0.65889  0.27469  0.36949  Biso   1.000  O
  C1465    1.0000 0.59900  0.35042  0.46493  Biso   1.000  C
  C1466    1.0000 0.58689  0.33837  0.44210  Biso   1.000  C
  C1467    1.0000 0.59778  0.31702  0.43145  Biso   1.000  C
  H489     1.0000 0.61240  0.30950  0.43900  Biso   1.000  H
  C1468    1.0000 0.58720  0.30652  0.40943  Biso   1.000  C
  C1469    1.0000 0.56637  0.31791  0.39781  Biso   1.000  C
  H490     1.0000 0.55960  0.31090  0.38260  Biso   1.000  H
  C1470    1.0000 0.55543  0.33934  0.40830  Biso   1.000  C
  C1471    1.0000 0.56555  0.34972  0.43081  Biso   1.000  C
  H491     1.0000 0.55800  0.36430  0.43830  Biso   1.000  H
  C1472    1.0000 0.60023  0.28445  0.39688  Biso   1.000  C
  C1473    1.0000 0.53408  0.35269  0.39500  Biso   1.000  C
  C1474    1.0000 0.64812  0.28384  0.35067  Biso   1.000  C
  C1475    1.0000 0.66114  0.30554  0.33783  Biso   1.000  C
  C1476    1.0000 0.68314  0.31613  0.34906  Biso   1.000  C
  H492     1.0000 0.69030  0.30840  0.36370  Biso   1.000  H
  Cu124    1.0000 0.60759  0.74970  0.85720  Biso   1.000  Cu
  O985     1.0000 0.58885  0.87024  0.97370  Biso   1.000  O
  O986     1.0000 0.61847  0.83998  0.97345  Biso   1.000  O
  O987     1.0000 0.62112  0.77755  0.90617  Biso   1.000  O
  O988     1.0000 0.58950  0.77450  0.87794  Biso   1.000  O
  O989     1.0000 0.52603  0.84302  0.87501  Biso   1.000  O
  O990     1.0000 0.52602  0.87274  0.90536  Biso   1.000  O
  O991     1.0000 0.62709  0.77773  0.84159  Biso   1.000  O
  O992     1.0000 0.65889  0.77469  0.86949  Biso   1.000  O
  C1477    1.0000 0.59900  0.85042  0.96493  Biso   1.000  C
  C1478    1.0000 0.58689  0.83837  0.94210  Biso   1.000  C
  C1479    1.0000 0.59778  0.81702  0.93145  Biso   1.000  C
  H493     1.0000 0.61240  0.80950  0.93900  Biso   1.000  H
  C1480    1.0000 0.58720  0.80652  0.90943  Biso   1.000  C
  C1481    1.0000 0.56637  0.81791  0.89781  Biso   1.000  C
  H494     1.0000 0.55960  0.81090  0.88260  Biso   1.000  H
  C1482    1.0000 0.55543  0.83934  0.90830  Biso   1.000  C
  C1483    1.0000 0.56555  0.84972  0.93081  Biso   1.000  C
  H495     1.0000 0.55800  0.86430  0.93830  Biso   1.000  H
  C1484    1.0000 0.60023  0.78445  0.89688  Biso   1.000  C
  C1485    1.0000 0.53408  0.85269  0.89500  Biso   1.000  C
  C1486    1.0000 0.64812  0.78384  0.85067  Biso   1.000  C
  C1487    1.0000 0.66114  0.80554  0.83783  Biso   1.000  C
  C1488    1.0000 0.68314  0.81613  0.84906  Biso   1.000  C
  H496     1.0000 0.69030  0.80840  0.86370  Biso   1.000  H
  Cu125    1.0000 0.10759  0.75030  0.14280  Biso   1.000  Cu
  O993     1.0000 0.08885  0.62976  0.02630  Biso   1.000  O
  O994     1.0000 0.11847  0.66002  0.02655  Biso   1.000  O
  O995     1.0000 0.12112  0.72245  0.09383  Biso   1.000  O
  O996     1.0000 0.08950  0.72550  0.12206  Biso   1.000  O
  O997     1.0000 0.02603  0.65698  0.12499  Biso   1.000  O
  O998     1.0000 0.02602  0.62726  0.09464  Biso   1.000  O
  O999     1.0000 0.12709  0.72227  0.15841  Biso   1.000  O
  O1000    1.0000 0.15889  0.72531  0.13051  Biso   1.000  O
  C1489    1.0000 0.09900  0.64958  0.03507  Biso   1.000  C
  C1490    1.0000 0.08689  0.66163  0.05790  Biso   1.000  C
  C1491    1.0000 0.09778  0.68298  0.06855  Biso   1.000  C
  H497     1.0000 0.11240  0.69050  0.06100  Biso   1.000  H
  C1492    1.0000 0.08720  0.69348  0.09057  Biso   1.000  C
  C1493    1.0000 0.06637  0.68209  0.10219  Biso   1.000  C
  H498     1.0000 0.05960  0.68910  0.11740  Biso   1.000  H
  C1494    1.0000 0.05543  0.66066  0.09170  Biso   1.000  C
  C1495    1.0000 0.06555  0.65028  0.06919  Biso   1.000  C
  H499     1.0000 0.05800  0.63570  0.06170  Biso   1.000  H
  C1496    1.0000 0.10023  0.71555  0.10312  Biso   1.000  C
  C1497    1.0000 0.03408  0.64731  0.10500  Biso   1.000  C
  C1498    1.0000 0.14812  0.71616  0.14933  Biso   1.000  C
  C1499    1.0000 0.16114  0.69446  0.16217  Biso   1.000  C
  C1500    1.0000 0.18314  0.68387  0.15094  Biso   1.000  C
  H500     1.0000 0.19030  0.69160  0.13630  Biso   1.000  H
  Cu126    1.0000 0.10759  0.25030  0.64280  Biso   1.000  Cu
  O1001    1.0000 0.08885  0.12976  0.52630  Biso   1.000  O
  O1002    1.0000 0.11847  0.16002  0.52655  Biso   1.000  O
  O1003    1.0000 0.12112  0.22245  0.59383  Biso   1.000  O
  O1004    1.0000 0.08950  0.22550  0.62206  Biso   1.000  O
  O1005    1.0000 0.02603  0.15698  0.62499  Biso   1.000  O
  O1006    1.0000 0.02602  0.12726  0.59464  Biso   1.000  O
  O1007    1.0000 0.12709  0.22227  0.65841  Biso   1.000  O
  O1008    1.0000 0.15889  0.22531  0.63051  Biso   1.000  O
  C1501    1.0000 0.09900  0.14958  0.53507  Biso   1.000  C
  C1502    1.0000 0.08689  0.16163  0.55790  Biso   1.000  C
  C1503    1.0000 0.09778  0.18298  0.56855  Biso   1.000  C
  H501     1.0000 0.11240  0.19050  0.56100  Biso   1.000  H
  C1504    1.0000 0.08720  0.19348  0.59057  Biso   1.000  C
  C1505    1.0000 0.06637  0.18209  0.60219  Biso   1.000  C
  H502     1.0000 0.05960  0.18910  0.61740  Biso   1.000  H
  C1506    1.0000 0.05543  0.16066  0.59170  Biso   1.000  C
  C1507    1.0000 0.06555  0.15028  0.56919  Biso   1.000  C
  H503     1.0000 0.05800  0.13570  0.56170  Biso   1.000  H
  C1508    1.0000 0.10023  0.21555  0.60312  Biso   1.000  C
  C1509    1.0000 0.03408  0.14731  0.60500  Biso   1.000  C
  C1510    1.0000 0.14812  0.21616  0.64933  Biso   1.000  C
  C1511    1.0000 0.16114  0.19446  0.66217  Biso   1.000  C
  C1512    1.0000 0.18314  0.18387  0.65094  Biso   1.000  C
  H504     1.0000 0.19030  0.19160  0.63630  Biso   1.000  H
  Cu127    1.0000 0.60759  0.75030  0.64280  Biso   1.000  Cu
  O1009    1.0000 0.58885  0.62976  0.52630  Biso   1.000  O
  O1010    1.0000 0.61847  0.66002  0.52655  Biso   1.000  O
  O1011    1.0000 0.62112  0.72245  0.59383  Biso   1.000  O
  O1012    1.0000 0.58950  0.72550  0.62206  Biso   1.000  O
  O1013    1.0000 0.52603  0.65698  0.62499  Biso   1.000  O
  O1014    1.0000 0.52602  0.62726  0.59464  Biso   1.000  O
  O1015    1.0000 0.62709  0.72227  0.65841  Biso   1.000  O
  O1016    1.0000 0.65889  0.72531  0.63051  Biso   1.000  O
  C1513    1.0000 0.59900  0.64958  0.53507  Biso   1.000  C
  C1514    1.0000 0.58689  0.66163  0.55790  Biso   1.000  C
  C1515    1.0000 0.59778  0.68298  0.56855  Biso   1.000  C
  H505     1.0000 0.61240  0.69050  0.56100  Biso   1.000  H
  C1516    1.0000 0.58720  0.69348  0.59057  Biso   1.000  C
  C1517    1.0000 0.56637  0.68209  0.60219  Biso   1.000  C
  H506     1.0000 0.55960  0.68910  0.61740  Biso   1.000  H
  C1518    1.0000 0.55543  0.66066  0.59170  Biso   1.000  C
  C1519    1.0000 0.56555  0.65028  0.56919  Biso   1.000  C
  H507     1.0000 0.55800  0.63570  0.56170  Biso   1.000  H
  C1520    1.0000 0.60023  0.71555  0.60312  Biso   1.000  C
  C1521    1.0000 0.53408  0.64731  0.60500  Biso   1.000  C
  C1522    1.0000 0.64812  0.71616  0.64933  Biso   1.000  C
  C1523    1.0000 0.66114  0.69446  0.66217  Biso   1.000  C
  C1524    1.0000 0.68314  0.68387  0.65094  Biso   1.000  C
  H508     1.0000 0.69030  0.69160  0.63630  Biso   1.000  H
  Cu128    1.0000 0.60759  0.25030  0.14280  Biso   1.000  Cu
  O1017    1.0000 0.58885  0.12976  0.02630  Biso   1.000  O
  O1018    1.0000 0.61847  0.16002  0.02655  Biso   1.000  O
  O1019    1.0000 0.62112  0.22245  0.09383  Biso   1.000  O
  O1020    1.0000 0.58950  0.22550  0.12206  Biso   1.000  O
  O1021    1.0000 0.52603  0.15698  0.12499  Biso   1.000  O
  O1022    1.0000 0.52602  0.12726  0.09464  Biso   1.000  O
  O1023    1.0000 0.62709  0.22227  0.15841  Biso   1.000  O
  O1024    1.0000 0.65889  0.22531  0.13051  Biso   1.000  O
  C1525    1.0000 0.59900  0.14958  0.03507  Biso   1.000  C
  C1526    1.0000 0.58689  0.16163  0.05790  Biso   1.000  C
  C1527    1.0000 0.59778  0.18298  0.06855  Biso   1.000  C
  H509     1.0000 0.61240  0.19050  0.06100  Biso   1.000  H
  C1528    1.0000 0.58720  0.19348  0.09057  Biso   1.000  C
  C1529    1.0000 0.56637  0.18209  0.10219  Biso   1.000  C
  H510     1.0000 0.55960  0.18910  0.11740  Biso   1.000  H
  C1530    1.0000 0.55543  0.16066  0.09170  Biso   1.000  C
  C1531    1.0000 0.56555  0.15028  0.06919  Biso   1.000  C
  H511     1.0000 0.55800  0.13570  0.06170  Biso   1.000  H
  C1532    1.0000 0.60023  0.21555  0.10312  Biso   1.000  C
  C1533    1.0000 0.53408  0.14731  0.10500  Biso   1.000  C
  C1534    1.0000 0.64812  0.21616  0.14933  Biso   1.000  C
  C1535    1.0000 0.66114  0.19446  0.16217  Biso   1.000  C
  C1536    1.0000 0.68314  0.18387  0.15094  Biso   1.000  C
  H512     1.0000 0.69030  0.19160  0.13630  Biso   1.000  H
  Cu129    1.0000 0.85720  0.89241  0.75030  Biso   1.000  Cu
  O1025    1.0000 0.97370  0.91115  0.62976  Biso   1.000  O
  O1026    1.0000 0.97345  0.88153  0.66002  Biso   1.000  O
  O1027    1.0000 0.90617  0.87888  0.72245  Biso   1.000  O
  O1028    1.0000 0.87794  0.91050  0.72550  Biso   1.000  O
  O1029    1.0000 0.87501  0.97397  0.65698  Biso   1.000  O
  O1030    1.0000 0.90536  0.97398  0.62726  Biso   1.000  O
  O1031    1.0000 0.84159  0.87291  0.72227  Biso   1.000  O
  O1032    1.0000 0.86949  0.84111  0.72531  Biso   1.000  O
  C1537    1.0000 0.96493  0.90100  0.64958  Biso   1.000  C
  C1538    1.0000 0.94210  0.91311  0.66163  Biso   1.000  C
  C1539    1.0000 0.93145  0.90222  0.68298  Biso   1.000  C
  H513     1.0000 0.93900  0.88760  0.69050  Biso   1.000  H
  C1540    1.0000 0.90943  0.91280  0.69348  Biso   1.000  C
  C1541    1.0000 0.89781  0.93363  0.68209  Biso   1.000  C
  H514     1.0000 0.88260  0.94040  0.68910  Biso   1.000  H
  C1542    1.0000 0.90830  0.94457  0.66066  Biso   1.000  C
  C1543    1.0000 0.93081  0.93445  0.65028  Biso   1.000  C
  H515     1.0000 0.93830  0.94200  0.63570  Biso   1.000  H
  C1544    1.0000 0.89688  0.89977  0.71555  Biso   1.000  C
  C1545    1.0000 0.89500  0.96592  0.64731  Biso   1.000  C
  C1546    1.0000 0.85067  0.85188  0.71616  Biso   1.000  C
  C1547    1.0000 0.83783  0.83886  0.69446  Biso   1.000  C
  C1548    1.0000 0.84906  0.81686  0.68387  Biso   1.000  C
  H516     1.0000 0.86370  0.80970  0.69160  Biso   1.000  H
  Cu130    1.0000 0.85720  0.39241  0.25030  Biso   1.000  Cu
  O1033    1.0000 0.97370  0.41115  0.12976  Biso   1.000  O
  O1034    1.0000 0.97345  0.38153  0.16002  Biso   1.000  O
  O1035    1.0000 0.90617  0.37888  0.22245  Biso   1.000  O
  O1036    1.0000 0.87794  0.41050  0.22550  Biso   1.000  O
  O1037    1.0000 0.87501  0.47397  0.15698  Biso   1.000  O
  O1038    1.0000 0.90536  0.47398  0.12726  Biso   1.000  O
  O1039    1.0000 0.84159  0.37291  0.22227  Biso   1.000  O
  O1040    1.0000 0.86949  0.34111  0.22531  Biso   1.000  O
  C1549    1.0000 0.96493  0.40100  0.14958  Biso   1.000  C
  C1550    1.0000 0.94210  0.41311  0.16163  Biso   1.000  C
  C1551    1.0000 0.93145  0.40222  0.18298  Biso   1.000  C
  H517     1.0000 0.93900  0.38760  0.19050  Biso   1.000  H
  C1552    1.0000 0.90943  0.41280  0.19348  Biso   1.000  C
  C1553    1.0000 0.89781  0.43363  0.18209  Biso   1.000  C
  H518     1.0000 0.88260  0.44040  0.18910  Biso   1.000  H
  C1554    1.0000 0.90830  0.44457  0.16066  Biso   1.000  C
  C1555    1.0000 0.93081  0.43445  0.15028  Biso   1.000  C
  H519     1.0000 0.93830  0.44200  0.13570  Biso   1.000  H
  C1556    1.0000 0.89688  0.39977  0.21555  Biso   1.000  C
  C1557    1.0000 0.89500  0.46592  0.14731  Biso   1.000  C
  C1558    1.0000 0.85067  0.35188  0.21616  Biso   1.000  C
  C1559    1.0000 0.83783  0.33886  0.19446  Biso   1.000  C
  C1560    1.0000 0.84906  0.31686  0.18387  Biso   1.000  C
  H520     1.0000 0.86370  0.30970  0.19160  Biso   1.000  H
  Cu131    1.0000 0.35720  0.89241  0.25030  Biso   1.000  Cu
  O1041    1.0000 0.47370  0.91115  0.12976  Biso   1.000  O
  O1042    1.0000 0.47345  0.88153  0.16002  Biso   1.000  O
  O1043    1.0000 0.40617  0.87888  0.22245  Biso   1.000  O
  O1044    1.0000 0.37794  0.91050  0.22550  Biso   1.000  O
  O1045    1.0000 0.37501  0.97397  0.15698  Biso   1.000  O
  O1046    1.0000 0.40536  0.97398  0.12726  Biso   1.000  O
  O1047    1.0000 0.34159  0.87291  0.22227  Biso   1.000  O
  O1048    1.0000 0.36949  0.84111  0.22531  Biso   1.000  O
  C1561    1.0000 0.46493  0.90100  0.14958  Biso   1.000  C
  C1562    1.0000 0.44210  0.91311  0.16163  Biso   1.000  C
  C1563    1.0000 0.43145  0.90222  0.18298  Biso   1.000  C
  H521     1.0000 0.43900  0.88760  0.19050  Biso   1.000  H
  C1564    1.0000 0.40943  0.91280  0.19348  Biso   1.000  C
  C1565    1.0000 0.39781  0.93363  0.18209  Biso   1.000  C
  H522     1.0000 0.38260  0.94040  0.18910  Biso   1.000  H
  C1566    1.0000 0.40830  0.94457  0.16066  Biso   1.000  C
  C1567    1.0000 0.43081  0.93445  0.15028  Biso   1.000  C
  H523     1.0000 0.43830  0.94200  0.13570  Biso   1.000  H
  C1568    1.0000 0.39688  0.89977  0.21555  Biso   1.000  C
  C1569    1.0000 0.39500  0.96592  0.14731  Biso   1.000  C
  C1570    1.0000 0.35067  0.85188  0.21616  Biso   1.000  C
  C1571    1.0000 0.33783  0.83886  0.19446  Biso   1.000  C
  C1572    1.0000 0.34906  0.81686  0.18387  Biso   1.000  C
  H524     1.0000 0.36370  0.80970  0.19160  Biso   1.000  H
  Cu132    1.0000 0.35720  0.39241  0.75030  Biso   1.000  Cu
  O1049    1.0000 0.47370  0.41115  0.62976  Biso   1.000  O
  O1050    1.0000 0.47345  0.38153  0.66002  Biso   1.000  O
  O1051    1.0000 0.40617  0.37888  0.72245  Biso   1.000  O
  O1052    1.0000 0.37794  0.41050  0.72550  Biso   1.000  O
  O1053    1.0000 0.37501  0.47397  0.65698  Biso   1.000  O
  O1054    1.0000 0.40536  0.47398  0.62726  Biso   1.000  O
  O1055    1.0000 0.34159  0.37291  0.72227  Biso   1.000  O
  O1056    1.0000 0.36949  0.34111  0.72531  Biso   1.000  O
  C1573    1.0000 0.46493  0.40100  0.64958  Biso   1.000  C
  C1574    1.0000 0.44210  0.41311  0.66163  Biso   1.000  C
  C1575    1.0000 0.43145  0.40222  0.68298  Biso   1.000  C
  H525     1.0000 0.43900  0.38760  0.69050  Biso   1.000  H
  C1576    1.0000 0.40943  0.41280  0.69348  Biso   1.000  C
  C1577    1.0000 0.39781  0.43363  0.68209  Biso   1.000  C
  H526     1.0000 0.38260  0.44040  0.68910  Biso   1.000  H
  C1578    1.0000 0.40830  0.44457  0.66066  Biso   1.000  C
  C1579    1.0000 0.43081  0.43445  0.65028  Biso   1.000  C
  H527     1.0000 0.43830  0.44200  0.63570  Biso   1.000  H
  C1580    1.0000 0.39688  0.39977  0.71555  Biso   1.000  C
  C1581    1.0000 0.39500  0.46592  0.64731  Biso   1.000  C
  C1582    1.0000 0.35067  0.35188  0.71616  Biso   1.000  C
  C1583    1.0000 0.33783  0.33886  0.69446  Biso   1.000  C
  C1584    1.0000 0.34906  0.31686  0.68387  Biso   1.000  C
  H528     1.0000 0.36370  0.30970  0.69160  Biso   1.000  H
  Cu133    1.0000 0.14280  0.89241  0.24970  Biso   1.000  Cu
  O1057    1.0000 0.02630  0.91115  0.37024  Biso   1.000  O
  O1058    1.0000 0.02655  0.88153  0.33998  Biso   1.000  O
  O1059    1.0000 0.09383  0.87888  0.27755  Biso   1.000  O
  O1060    1.0000 0.12206  0.91050  0.27450  Biso   1.000  O
  O1061    1.0000 0.12499  0.97397  0.34302  Biso   1.000  O
  O1062    1.0000 0.09464  0.97398  0.37274  Biso   1.000  O
  O1063    1.0000 0.15841  0.87291  0.27773  Biso   1.000  O
  O1064    1.0000 0.13051  0.84111  0.27469  Biso   1.000  O
  C1585    1.0000 0.03507  0.90100  0.35042  Biso   1.000  C
  C1586    1.0000 0.05790  0.91311  0.33837  Biso   1.000  C
  C1587    1.0000 0.06855  0.90222  0.31702  Biso   1.000  C
  H529     1.0000 0.06100  0.88760  0.30950  Biso   1.000  H
  C1588    1.0000 0.09057  0.91280  0.30652  Biso   1.000  C
  C1589    1.0000 0.10219  0.93363  0.31791  Biso   1.000  C
  H530     1.0000 0.11740  0.94040  0.31090  Biso   1.000  H
  C1590    1.0000 0.09170  0.94457  0.33934  Biso   1.000  C
  C1591    1.0000 0.06919  0.93445  0.34972  Biso   1.000  C
  H531     1.0000 0.06170  0.94200  0.36430  Biso   1.000  H
  C1592    1.0000 0.10312  0.89977  0.28445  Biso   1.000  C
  C1593    1.0000 0.10500  0.96592  0.35269  Biso   1.000  C
  C1594    1.0000 0.14933  0.85188  0.28384  Biso   1.000  C
  C1595    1.0000 0.16217  0.83886  0.30554  Biso   1.000  C
  C1596    1.0000 0.15094  0.81686  0.31613  Biso   1.000  C
  H532     1.0000 0.13630  0.80970  0.30840  Biso   1.000  H
  Cu134    1.0000 0.14280  0.39241  0.74970  Biso   1.000  Cu
  O1065    1.0000 0.02630  0.41115  0.87024  Biso   1.000  O
  O1066    1.0000 0.02655  0.38153  0.83998  Biso   1.000  O
  O1067    1.0000 0.09383  0.37888  0.77755  Biso   1.000  O
  O1068    1.0000 0.12206  0.41050  0.77450  Biso   1.000  O
  O1069    1.0000 0.12499  0.47397  0.84302  Biso   1.000  O
  O1070    1.0000 0.09464  0.47398  0.87274  Biso   1.000  O
  O1071    1.0000 0.15841  0.37291  0.77773  Biso   1.000  O
  O1072    1.0000 0.13051  0.34111  0.77469  Biso   1.000  O
  C1597    1.0000 0.03507  0.40100  0.85042  Biso   1.000  C
  C1598    1.0000 0.05790  0.41311  0.83837  Biso   1.000  C
  C1599    1.0000 0.06855  0.40222  0.81702  Biso   1.000  C
  H533     1.0000 0.06100  0.38760  0.80950  Biso   1.000  H
  C1600    1.0000 0.09057  0.41280  0.80652  Biso   1.000  C
  C1601    1.0000 0.10219  0.43363  0.81791  Biso   1.000  C
  H534     1.0000 0.11740  0.44040  0.81090  Biso   1.000  H
  C1602    1.0000 0.09170  0.44457  0.83934  Biso   1.000  C
  C1603    1.0000 0.06919  0.43445  0.84972  Biso   1.000  C
  H535     1.0000 0.06170  0.44200  0.86430  Biso   1.000  H
  C1604    1.0000 0.10312  0.39977  0.78445  Biso   1.000  C
  C1605    1.0000 0.10500  0.46592  0.85269  Biso   1.000  C
  C1606    1.0000 0.14933  0.35188  0.78384  Biso   1.000  C
  C1607    1.0000 0.16217  0.33886  0.80554  Biso   1.000  C
  C1608    1.0000 0.15094  0.31686  0.81613  Biso   1.000  C
  H536     1.0000 0.13630  0.30970  0.80840  Biso   1.000  H
  Cu135    1.0000 0.64280  0.89241  0.74970  Biso   1.000  Cu
  O1073    1.0000 0.52630  0.91115  0.87024  Biso   1.000  O
  O1074    1.0000 0.52655  0.88153  0.83998  Biso   1.000  O
  O1075    1.0000 0.59383  0.87888  0.77755  Biso   1.000  O
  O1076    1.0000 0.62206  0.91050  0.77450  Biso   1.000  O
  O1077    1.0000 0.62499  0.97397  0.84302  Biso   1.000  O
  O1078    1.0000 0.59464  0.97398  0.87274  Biso   1.000  O
  O1079    1.0000 0.65841  0.87291  0.77773  Biso   1.000  O
  O1080    1.0000 0.63051  0.84111  0.77469  Biso   1.000  O
  C1609    1.0000 0.53507  0.90100  0.85042  Biso   1.000  C
  C1610    1.0000 0.55790  0.91311  0.83837  Biso   1.000  C
  C1611    1.0000 0.56855  0.90222  0.81702  Biso   1.000  C
  H537     1.0000 0.56100  0.88760  0.80950  Biso   1.000  H
  C1612    1.0000 0.59057  0.91280  0.80652  Biso   1.000  C
  C1613    1.0000 0.60219  0.93363  0.81791  Biso   1.000  C
  H538     1.0000 0.61740  0.94040  0.81090  Biso   1.000  H
  C1614    1.0000 0.59170  0.94457  0.83934  Biso   1.000  C
  C1615    1.0000 0.56919  0.93445  0.84972  Biso   1.000  C
  H539     1.0000 0.56170  0.94200  0.86430  Biso   1.000  H
  C1616    1.0000 0.60312  0.89977  0.78445  Biso   1.000  C
  C1617    1.0000 0.60500  0.96592  0.85269  Biso   1.000  C
  C1618    1.0000 0.64933  0.85188  0.78384  Biso   1.000  C
  C1619    1.0000 0.66217  0.83886  0.80554  Biso   1.000  C
  C1620    1.0000 0.65094  0.81686  0.81613  Biso   1.000  C
  H540     1.0000 0.63630  0.80970  0.80840  Biso   1.000  H
  Cu136    1.0000 0.64280  0.39241  0.24970  Biso   1.000  Cu
  O1081    1.0000 0.52630  0.41115  0.37024  Biso   1.000  O
  O1082    1.0000 0.52655  0.38153  0.33998  Biso   1.000  O
  O1083    1.0000 0.59383  0.37888  0.27755  Biso   1.000  O
  O1084    1.0000 0.62206  0.41050  0.27450  Biso   1.000  O
  O1085    1.0000 0.62499  0.47397  0.34302  Biso   1.000  O
  O1086    1.0000 0.59464  0.47398  0.37274  Biso   1.000  O
  O1087    1.0000 0.65841  0.37291  0.27773  Biso   1.000  O
  O1088    1.0000 0.63051  0.34111  0.27469  Biso   1.000  O
  C1621    1.0000 0.53507  0.40100  0.35042  Biso   1.000  C
  C1622    1.0000 0.55790  0.41311  0.33837  Biso   1.000  C
  C1623    1.0000 0.56855  0.40222  0.31702  Biso   1.000  C
  H541     1.0000 0.56100  0.38760  0.30950  Biso   1.000  H
  C1624    1.0000 0.59057  0.41280  0.30652  Biso   1.000  C
  C1625    1.0000 0.60219  0.43363  0.31791  Biso   1.000  C
  H542     1.0000 0.61740  0.44040  0.31090  Biso   1.000  H
  C1626    1.0000 0.59170  0.44457  0.33934  Biso   1.000  C
  C1627    1.0000 0.56919  0.43445  0.34972  Biso   1.000  C
  H543     1.0000 0.56170  0.44200  0.36430  Biso   1.000  H
  C1628    1.0000 0.60312  0.39977  0.28445  Biso   1.000  C
  C1629    1.0000 0.60500  0.46592  0.35269  Biso   1.000  C
  C1630    1.0000 0.64933  0.35188  0.28384  Biso   1.000  C
  C1631    1.0000 0.66217  0.33886  0.30554  Biso   1.000  C
  C1632    1.0000 0.65094  0.31686  0.31613  Biso   1.000  C
  H544     1.0000 0.63630  0.30970  0.30840  Biso   1.000  H
  Cu137    1.0000 0.85720  0.10759  0.24970  Biso   1.000  Cu
  O1089    1.0000 0.97370  0.08885  0.37024  Biso   1.000  O
  O1090    1.0000 0.97345  0.11847  0.33998  Biso   1.000  O
  O1091    1.0000 0.90617  0.12112  0.27755  Biso   1.000  O
  O1092    1.0000 0.87794  0.08950  0.27450  Biso   1.000  O
  O1093    1.0000 0.87501  0.02603  0.34302  Biso   1.000  O
  O1094    1.0000 0.90536  0.02602  0.37274  Biso   1.000  O
  O1095    1.0000 0.84159  0.12709  0.27773  Biso   1.000  O
  O1096    1.0000 0.86949  0.15889  0.27469  Biso   1.000  O
  C1633    1.0000 0.96493  0.09900  0.35042  Biso   1.000  C
  C1634    1.0000 0.94210  0.08689  0.33837  Biso   1.000  C
  C1635    1.0000 0.93145  0.09778  0.31702  Biso   1.000  C
  H545     1.0000 0.93900  0.11240  0.30950  Biso   1.000  H
  C1636    1.0000 0.90943  0.08720  0.30652  Biso   1.000  C
  C1637    1.0000 0.89781  0.06637  0.31791  Biso   1.000  C
  H546     1.0000 0.88260  0.05960  0.31090  Biso   1.000  H
  C1638    1.0000 0.90830  0.05543  0.33934  Biso   1.000  C
  C1639    1.0000 0.93081  0.06555  0.34972  Biso   1.000  C
  H547     1.0000 0.93830  0.05800  0.36430  Biso   1.000  H
  C1640    1.0000 0.89688  0.10023  0.28445  Biso   1.000  C
  C1641    1.0000 0.89500  0.03408  0.35269  Biso   1.000  C
  C1642    1.0000 0.85067  0.14812  0.28384  Biso   1.000  C
  C1643    1.0000 0.83783  0.16114  0.30554  Biso   1.000  C
  C1644    1.0000 0.84906  0.18314  0.31613  Biso   1.000  C
  H548     1.0000 0.86370  0.19030  0.30840  Biso   1.000  H
  Cu138    1.0000 0.85720  0.60759  0.74970  Biso   1.000  Cu
  O1097    1.0000 0.97370  0.58885  0.87024  Biso   1.000  O
  O1098    1.0000 0.97345  0.61847  0.83998  Biso   1.000  O
  O1099    1.0000 0.90617  0.62112  0.77755  Biso   1.000  O
  O1100    1.0000 0.87794  0.58950  0.77450  Biso   1.000  O
  O1101    1.0000 0.87501  0.52603  0.84302  Biso   1.000  O
  O1102    1.0000 0.90536  0.52602  0.87274  Biso   1.000  O
  O1103    1.0000 0.84159  0.62709  0.77773  Biso   1.000  O
  O1104    1.0000 0.86949  0.65889  0.77469  Biso   1.000  O
  C1645    1.0000 0.96493  0.59900  0.85042  Biso   1.000  C
  C1646    1.0000 0.94210  0.58689  0.83837  Biso   1.000  C
  C1647    1.0000 0.93145  0.59778  0.81702  Biso   1.000  C
  H549     1.0000 0.93900  0.61240  0.80950  Biso   1.000  H
  C1648    1.0000 0.90943  0.58720  0.80652  Biso   1.000  C
  C1649    1.0000 0.89781  0.56637  0.81791  Biso   1.000  C
  H550     1.0000 0.88260  0.55960  0.81090  Biso   1.000  H
  C1650    1.0000 0.90830  0.55543  0.83934  Biso   1.000  C
  C1651    1.0000 0.93081  0.56555  0.84972  Biso   1.000  C
  H551     1.0000 0.93830  0.55800  0.86430  Biso   1.000  H
  C1652    1.0000 0.89688  0.60023  0.78445  Biso   1.000  C
  C1653    1.0000 0.89500  0.53408  0.85269  Biso   1.000  C
  C1654    1.0000 0.85067  0.64812  0.78384  Biso   1.000  C
  C1655    1.0000 0.83783  0.66114  0.80554  Biso   1.000  C
  C1656    1.0000 0.84906  0.68314  0.81613  Biso   1.000  C
  H552     1.0000 0.86370  0.69030  0.80840  Biso   1.000  H
  Cu139    1.0000 0.35720  0.10759  0.74970  Biso   1.000  Cu
  O1105    1.0000 0.47370  0.08885  0.87024  Biso   1.000  O
  O1106    1.0000 0.47345  0.11847  0.83998  Biso   1.000  O
  O1107    1.0000 0.40617  0.12112  0.77755  Biso   1.000  O
  O1108    1.0000 0.37794  0.08950  0.77450  Biso   1.000  O
  O1109    1.0000 0.37501  0.02603  0.84302  Biso   1.000  O
  O1110    1.0000 0.40536  0.02602  0.87274  Biso   1.000  O
  O1111    1.0000 0.34159  0.12709  0.77773  Biso   1.000  O
  O1112    1.0000 0.36949  0.15889  0.77469  Biso   1.000  O
  C1657    1.0000 0.46493  0.09900  0.85042  Biso   1.000  C
  C1658    1.0000 0.44210  0.08689  0.83837  Biso   1.000  C
  C1659    1.0000 0.43145  0.09778  0.81702  Biso   1.000  C
  H553     1.0000 0.43900  0.11240  0.80950  Biso   1.000  H
  C1660    1.0000 0.40943  0.08720  0.80652  Biso   1.000  C
  C1661    1.0000 0.39781  0.06637  0.81791  Biso   1.000  C
  H554     1.0000 0.38260  0.05960  0.81090  Biso   1.000  H
  C1662    1.0000 0.40830  0.05543  0.83934  Biso   1.000  C
  C1663    1.0000 0.43081  0.06555  0.84972  Biso   1.000  C
  H555     1.0000 0.43830  0.05800  0.86430  Biso   1.000  H
  C1664    1.0000 0.39688  0.10023  0.78445  Biso   1.000  C
  C1665    1.0000 0.39500  0.03408  0.85269  Biso   1.000  C
  C1666    1.0000 0.35067  0.14812  0.78384  Biso   1.000  C
  C1667    1.0000 0.33783  0.16114  0.80554  Biso   1.000  C
  C1668    1.0000 0.34906  0.18314  0.81613  Biso   1.000  C
  H556     1.0000 0.36370  0.19030  0.80840  Biso   1.000  H
  Cu140    1.0000 0.35720  0.60759  0.24970  Biso   1.000  Cu
  O1113    1.0000 0.47370  0.58885  0.37024  Biso   1.000  O
  O1114    1.0000 0.47345  0.61847  0.33998  Biso   1.000  O
  O1115    1.0000 0.40617  0.62112  0.27755  Biso   1.000  O
  O1116    1.0000 0.37794  0.58950  0.27450  Biso   1.000  O
  O1117    1.0000 0.37501  0.52603  0.34302  Biso   1.000  O
  O1118    1.0000 0.40536  0.52602  0.37274  Biso   1.000  O
  O1119    1.0000 0.34159  0.62709  0.27773  Biso   1.000  O
  O1120    1.0000 0.36949  0.65889  0.27469  Biso   1.000  O
  C1669    1.0000 0.46493  0.59900  0.35042  Biso   1.000  C
  C1670    1.0000 0.44210  0.58689  0.33837  Biso   1.000  C
  C1671    1.0000 0.43145  0.59778  0.31702  Biso   1.000  C
  H557     1.0000 0.43900  0.61240  0.30950  Biso   1.000  H
  C1672    1.0000 0.40943  0.58720  0.30652  Biso   1.000  C
  C1673    1.0000 0.39781  0.56637  0.31791  Biso   1.000  C
  H558     1.0000 0.38260  0.55960  0.31090  Biso   1.000  H
  C1674    1.0000 0.40830  0.55543  0.33934  Biso   1.000  C
  C1675    1.0000 0.43081  0.56555  0.34972  Biso   1.000  C
  H559     1.0000 0.43830  0.55800  0.36430  Biso   1.000  H
  C1676    1.0000 0.39688  0.60023  0.28445  Biso   1.000  C
  C1677    1.0000 0.39500  0.53408  0.35269  Biso   1.000  C
  C1678    1.0000 0.35067  0.64812  0.28384  Biso   1.000  C
  C1679    1.0000 0.33783  0.66114  0.30554  Biso   1.000  C
  C1680    1.0000 0.34906  0.68314  0.31613  Biso   1.000  C
  H560     1.0000 0.36370  0.69030  0.30840  Biso   1.000  H
  Cu141    1.0000 0.14280  0.10759  0.75030  Biso   1.000  Cu
  O1121    1.0000 0.02630  0.08885  0.62976  Biso   1.000  O
  O1122    1.0000 0.02655  0.11847  0.66002  Biso   1.000  O
  O1123    1.0000 0.09383  0.12112  0.72245  Biso   1.000  O
  O1124    1.0000 0.12206  0.08950  0.72550  Biso   1.000  O
  O1125    1.0000 0.12499  0.02603  0.65698  Biso   1.000  O
  O1126    1.0000 0.09464  0.02602  0.62726  Biso   1.000  O
  O1127    1.0000 0.15841  0.12709  0.72227  Biso   1.000  O
  O1128    1.0000 0.13051  0.15889  0.72531  Biso   1.000  O
  C1681    1.0000 0.03507  0.09900  0.64958  Biso   1.000  C
  C1682    1.0000 0.05790  0.08689  0.66163  Biso   1.000  C
  C1683    1.0000 0.06855  0.09778  0.68298  Biso   1.000  C
  H561     1.0000 0.06100  0.11240  0.69050  Biso   1.000  H
  C1684    1.0000 0.09057  0.08720  0.69348  Biso   1.000  C
  C1685    1.0000 0.10219  0.06637  0.68209  Biso   1.000  C
  H562     1.0000 0.11740  0.05960  0.68910  Biso   1.000  H
  C1686    1.0000 0.09170  0.05543  0.66066  Biso   1.000  C
  C1687    1.0000 0.06919  0.06555  0.65028  Biso   1.000  C
  H563     1.0000 0.06170  0.05800  0.63570  Biso   1.000  H
  C1688    1.0000 0.10312  0.10023  0.71555  Biso   1.000  C
  C1689    1.0000 0.10500  0.03408  0.64731  Biso   1.000  C
  C1690    1.0000 0.14933  0.14812  0.71616  Biso   1.000  C
  C1691    1.0000 0.16217  0.16114  0.69446  Biso   1.000  C
  C1692    1.0000 0.15094  0.18314  0.68387  Biso   1.000  C
  H564     1.0000 0.13630  0.19030  0.69160  Biso   1.000  H
  Cu142    1.0000 0.14280  0.60759  0.25030  Biso   1.000  Cu
  O1129    1.0000 0.02630  0.58885  0.12976  Biso   1.000  O
  O1130    1.0000 0.02655  0.61847  0.16002  Biso   1.000  O
  O1131    1.0000 0.09383  0.62112  0.22245  Biso   1.000  O
  O1132    1.0000 0.12206  0.58950  0.22550  Biso   1.000  O
  O1133    1.0000 0.12499  0.52603  0.15698  Biso   1.000  O
  O1134    1.0000 0.09464  0.52602  0.12726  Biso   1.000  O
  O1135    1.0000 0.15841  0.62709  0.22227  Biso   1.000  O
  O1136    1.0000 0.13051  0.65889  0.22531  Biso   1.000  O
  C1693    1.0000 0.03507  0.59900  0.14958  Biso   1.000  C
  C1694    1.0000 0.05790  0.58689  0.16163  Biso   1.000  C
  C1695    1.0000 0.06855  0.59778  0.18298  Biso   1.000  C
  H565     1.0000 0.06100  0.61240  0.19050  Biso   1.000  H
  C1696    1.0000 0.09057  0.58720  0.19348  Biso   1.000  C
  C1697    1.0000 0.10219  0.56637  0.18209  Biso   1.000  C
  H566     1.0000 0.11740  0.55960  0.18910  Biso   1.000  H
  C1698    1.0000 0.09170  0.55543  0.16066  Biso   1.000  C
  C1699    1.0000 0.06919  0.56555  0.15028  Biso   1.000  C
  H567     1.0000 0.06170  0.55800  0.13570  Biso   1.000  H
  C1700    1.0000 0.10312  0.60023  0.21555  Biso   1.000  C
  C1701    1.0000 0.10500  0.53408  0.14731  Biso   1.000  C
  C1702    1.0000 0.14933  0.64812  0.21616  Biso   1.000  C
  C1703    1.0000 0.16217  0.66114  0.19446  Biso   1.000  C
  C1704    1.0000 0.15094  0.68314  0.18387  Biso   1.000  C
  H568     1.0000 0.13630  0.69030  0.19160  Biso   1.000  H
  Cu143    1.0000 0.64280  0.10759  0.25030  Biso   1.000  Cu
  O1137    1.0000 0.52630  0.08885  0.12976  Biso   1.000  O
  O1138    1.0000 0.52655  0.11847  0.16002  Biso   1.000  O
  O1139    1.0000 0.59383  0.12112  0.22245  Biso   1.000  O
  O1140    1.0000 0.62206  0.08950  0.22550  Biso   1.000  O
  O1141    1.0000 0.62499  0.02603  0.15698  Biso   1.000  O
  O1142    1.0000 0.59464  0.02602  0.12726  Biso   1.000  O
  O1143    1.0000 0.65841  0.12709  0.22227  Biso   1.000  O
  O1144    1.0000 0.63051  0.15889  0.22531  Biso   1.000  O
  C1705    1.0000 0.53507  0.09900  0.14958  Biso   1.000  C
  C1706    1.0000 0.55790  0.08689  0.16163  Biso   1.000  C
  C1707    1.0000 0.56855  0.09778  0.18298  Biso   1.000  C
  H569     1.0000 0.56100  0.11240  0.19050  Biso   1.000  H
  C1708    1.0000 0.59057  0.08720  0.19348  Biso   1.000  C
  C1709    1.0000 0.60219  0.06637  0.18209  Biso   1.000  C
  H570     1.0000 0.61740  0.05960  0.18910  Biso   1.000  H
  C1710    1.0000 0.59170  0.05543  0.16066  Biso   1.000  C
  C1711    1.0000 0.56919  0.06555  0.15028  Biso   1.000  C
  H571     1.0000 0.56170  0.05800  0.13570  Biso   1.000  H
  C1712    1.0000 0.60312  0.10023  0.21555  Biso   1.000  C
  C1713    1.0000 0.60500  0.03408  0.14731  Biso   1.000  C
  C1714    1.0000 0.64933  0.14812  0.21616  Biso   1.000  C
  C1715    1.0000 0.66217  0.16114  0.19446  Biso   1.000  C
  C1716    1.0000 0.65094  0.18314  0.18387  Biso   1.000  C
  H572     1.0000 0.63630  0.19030  0.19160  Biso   1.000  H
  Cu144    1.0000 0.64280  0.60759  0.75030  Biso   1.000  Cu
  O1145    1.0000 0.52630  0.58885  0.62976  Biso   1.000  O
  O1146    1.0000 0.52655  0.61847  0.66002  Biso   1.000  O
  O1147    1.0000 0.59383  0.62112  0.72245  Biso   1.000  O
  O1148    1.0000 0.62206  0.58950  0.72550  Biso   1.000  O
  O1149    1.0000 0.62499  0.52603  0.65698  Biso   1.000  O
  O1150    1.0000 0.59464  0.52602  0.62726  Biso   1.000  O
  O1151    1.0000 0.65841  0.62709  0.72227  Biso   1.000  O
  O1152    1.0000 0.63051  0.65889  0.72531  Biso   1.000  O
  C1717    1.0000 0.53507  0.59900  0.64958  Biso   1.000  C
  C1718    1.0000 0.55790  0.58689  0.66163  Biso   1.000  C
  C1719    1.0000 0.56855  0.59778  0.68298  Biso   1.000  C
  H573     1.0000 0.56100  0.61240  0.69050  Biso   1.000  H
  C1720    1.0000 0.59057  0.58720  0.69348  Biso   1.000  C
  C1721    1.0000 0.60219  0.56637  0.68209  Biso   1.000  C
  H574     1.0000 0.61740  0.55960  0.68910  Biso   1.000  H
  C1722    1.0000 0.59170  0.55543  0.66066  Biso   1.000  C
  C1723    1.0000 0.56919  0.56555  0.65028  Biso   1.000  C
  H575     1.0000 0.56170  0.55800  0.63570  Biso   1.000  H
  C1724    1.0000 0.60312  0.60023  0.71555  Biso   1.000  C
  C1725    1.0000 0.60500  0.53408  0.64731  Biso   1.000  C
  C1726    1.0000 0.64933  0.64812  0.71616  Biso   1.000  C
  C1727    1.0000 0.66217  0.66114  0.69446  Biso   1.000  C
  C1728    1.0000 0.65094  0.68314  0.68387  Biso   1.000  C
  H576     1.0000 0.63630  0.69030  0.69160  Biso   1.000  H
  Cu145    1.0000 0.35720  0.25030  0.60759  Biso   1.000  Cu
  O1153    1.0000 0.47370  0.12976  0.58885  Biso   1.000  O
  O1154    1.0000 0.47345  0.16002  0.61847  Biso   1.000  O
  O1155    1.0000 0.40617  0.22245  0.62112  Biso   1.000  O
  O1156    1.0000 0.37794  0.22550  0.58950  Biso   1.000  O
  O1157    1.0000 0.37501  0.15698  0.52603  Biso   1.000  O
  O1158    1.0000 0.40536  0.12726  0.52602  Biso   1.000  O
  O1159    1.0000 0.34159  0.22227  0.62709  Biso   1.000  O
  O1160    1.0000 0.36949  0.22531  0.65889  Biso   1.000  O
  C1729    1.0000 0.46493  0.14958  0.59900  Biso   1.000  C
  C1730    1.0000 0.44210  0.16163  0.58689  Biso   1.000  C
  C1731    1.0000 0.43145  0.18298  0.59778  Biso   1.000  C
  H577     1.0000 0.43900  0.19050  0.61240  Biso   1.000  H
  C1732    1.0000 0.40943  0.19348  0.58720  Biso   1.000  C
  C1733    1.0000 0.39781  0.18209  0.56637  Biso   1.000  C
  H578     1.0000 0.38260  0.18910  0.55960  Biso   1.000  H
  C1734    1.0000 0.40830  0.16066  0.55543  Biso   1.000  C
  C1735    1.0000 0.43081  0.15028  0.56555  Biso   1.000  C
  H579     1.0000 0.43830  0.13570  0.55800  Biso   1.000  H
  C1736    1.0000 0.39688  0.21555  0.60023  Biso   1.000  C
  C1737    1.0000 0.39500  0.14731  0.53408  Biso   1.000  C
  C1738    1.0000 0.35067  0.21616  0.64812  Biso   1.000  C
  C1739    1.0000 0.33783  0.19446  0.66114  Biso   1.000  C
  C1740    1.0000 0.34906  0.18387  0.68314  Biso   1.000  C
  H580     1.0000 0.36370  0.19160  0.69030  Biso   1.000  H
  Cu146    1.0000 0.35720  0.75030  0.10759  Biso   1.000  Cu
  O1161    1.0000 0.47370  0.62976  0.08885  Biso   1.000  O
  O1162    1.0000 0.47345  0.66002  0.11847  Biso   1.000  O
  O1163    1.0000 0.40617  0.72245  0.12112  Biso   1.000  O
  O1164    1.0000 0.37794  0.72550  0.08950  Biso   1.000  O
  O1165    1.0000 0.37501  0.65698  0.02603  Biso   1.000  O
  O1166    1.0000 0.40536  0.62726  0.02602  Biso   1.000  O
  O1167    1.0000 0.34159  0.72227  0.12709  Biso   1.000  O
  O1168    1.0000 0.36949  0.72531  0.15889  Biso   1.000  O
  C1741    1.0000 0.46493  0.64958  0.09900  Biso   1.000  C
  C1742    1.0000 0.44210  0.66163  0.08689  Biso   1.000  C
  C1743    1.0000 0.43145  0.68298  0.09778  Biso   1.000  C
  H581     1.0000 0.43900  0.69050  0.11240  Biso   1.000  H
  C1744    1.0000 0.40943  0.69348  0.08720  Biso   1.000  C
  C1745    1.0000 0.39781  0.68209  0.06637  Biso   1.000  C
  H582     1.0000 0.38260  0.68910  0.05960  Biso   1.000  H
  C1746    1.0000 0.40830  0.66066  0.05543  Biso   1.000  C
  C1747    1.0000 0.43081  0.65028  0.06555  Biso   1.000  C
  H583     1.0000 0.43830  0.63570  0.05800  Biso   1.000  H
  C1748    1.0000 0.39688  0.71555  0.10023  Biso   1.000  C
  C1749    1.0000 0.39500  0.64731  0.03408  Biso   1.000  C
  C1750    1.0000 0.35067  0.71616  0.14812  Biso   1.000  C
  C1751    1.0000 0.33783  0.69446  0.16114  Biso   1.000  C
  C1752    1.0000 0.34906  0.68387  0.18314  Biso   1.000  C
  H584     1.0000 0.36370  0.69160  0.19030  Biso   1.000  H
  Cu147    1.0000 0.85720  0.25030  0.10759  Biso   1.000  Cu
  O1169    1.0000 0.97370  0.12976  0.08885  Biso   1.000  O
  O1170    1.0000 0.97345  0.16002  0.11847  Biso   1.000  O
  O1171    1.0000 0.90617  0.22245  0.12112  Biso   1.000  O
  O1172    1.0000 0.87794  0.22550  0.08950  Biso   1.000  O
  O1173    1.0000 0.87501  0.15698  0.02603  Biso   1.000  O
  O1174    1.0000 0.90536  0.12726  0.02602  Biso   1.000  O
  O1175    1.0000 0.84159  0.22227  0.12709  Biso   1.000  O
  O1176    1.0000 0.86949  0.22531  0.15889  Biso   1.000  O
  C1753    1.0000 0.96493  0.14958  0.09900  Biso   1.000  C
  C1754    1.0000 0.94210  0.16163  0.08689  Biso   1.000  C
  C1755    1.0000 0.93145  0.18298  0.09778  Biso   1.000  C
  H585     1.0000 0.93900  0.19050  0.11240  Biso   1.000  H
  C1756    1.0000 0.90943  0.19348  0.08720  Biso   1.000  C
  C1757    1.0000 0.89781  0.18209  0.06637  Biso   1.000  C
  H586     1.0000 0.88260  0.18910  0.05960  Biso   1.000  H
  C1758    1.0000 0.90830  0.16066  0.05543  Biso   1.000  C
  C1759    1.0000 0.93081  0.15028  0.06555  Biso   1.000  C
  H587     1.0000 0.93830  0.13570  0.05800  Biso   1.000  H
  C1760    1.0000 0.89688  0.21555  0.10023  Biso   1.000  C
  C1761    1.0000 0.89500  0.14731  0.03408  Biso   1.000  C
  C1762    1.0000 0.85067  0.21616  0.14812  Biso   1.000  C
  C1763    1.0000 0.83783  0.19446  0.16114  Biso   1.000  C
  C1764    1.0000 0.84906  0.18387  0.18314  Biso   1.000  C
  H588     1.0000 0.86370  0.19160  0.19030  Biso   1.000  H
  Cu148    1.0000 0.85720  0.75030  0.60759  Biso   1.000  Cu
  O1177    1.0000 0.97370  0.62976  0.58885  Biso   1.000  O
  O1178    1.0000 0.97345  0.66002  0.61847  Biso   1.000  O
  O1179    1.0000 0.90617  0.72245  0.62112  Biso   1.000  O
  O1180    1.0000 0.87794  0.72550  0.58950  Biso   1.000  O
  O1181    1.0000 0.87501  0.65698  0.52603  Biso   1.000  O
  O1182    1.0000 0.90536  0.62726  0.52602  Biso   1.000  O
  O1183    1.0000 0.84159  0.72227  0.62709  Biso   1.000  O
  O1184    1.0000 0.86949  0.72531  0.65889  Biso   1.000  O
  C1765    1.0000 0.96493  0.64958  0.59900  Biso   1.000  C
  C1766    1.0000 0.94210  0.66163  0.58689  Biso   1.000  C
  C1767    1.0000 0.93145  0.68298  0.59778  Biso   1.000  C
  H589     1.0000 0.93900  0.69050  0.61240  Biso   1.000  H
  C1768    1.0000 0.90943  0.69348  0.58720  Biso   1.000  C
  C1769    1.0000 0.89781  0.68209  0.56637  Biso   1.000  C
  H590     1.0000 0.88260  0.68910  0.55960  Biso   1.000  H
  C1770    1.0000 0.90830  0.66066  0.55543  Biso   1.000  C
  C1771    1.0000 0.93081  0.65028  0.56555  Biso   1.000  C
  H591     1.0000 0.93830  0.63570  0.55800  Biso   1.000  H
  C1772    1.0000 0.89688  0.71555  0.60023  Biso   1.000  C
  C1773    1.0000 0.89500  0.64731  0.53408  Biso   1.000  C
  C1774    1.0000 0.85067  0.71616  0.64812  Biso   1.000  C
  C1775    1.0000 0.83783  0.69446  0.66114  Biso   1.000  C
  C1776    1.0000 0.84906  0.68387  0.68314  Biso   1.000  C
  H592     1.0000 0.86370  0.69160  0.69030  Biso   1.000  H
  Cu149    1.0000 0.64280  0.74970  0.60759  Biso   1.000  Cu
  O1185    1.0000 0.52630  0.87024  0.58885  Biso   1.000  O
  O1186    1.0000 0.52655  0.83998  0.61847  Biso   1.000  O
  O1187    1.0000 0.59383  0.77755  0.62112  Biso   1.000  O
  O1188    1.0000 0.62206  0.77450  0.58950  Biso   1.000  O
  O1189    1.0000 0.62499  0.84302  0.52603  Biso   1.000  O
  O1190    1.0000 0.59464  0.87274  0.52602  Biso   1.000  O
  O1191    1.0000 0.65841  0.77773  0.62709  Biso   1.000  O
  O1192    1.0000 0.63051  0.77469  0.65889  Biso   1.000  O
  C1777    1.0000 0.53507  0.85042  0.59900  Biso   1.000  C
  C1778    1.0000 0.55790  0.83837  0.58689  Biso   1.000  C
  C1779    1.0000 0.56855  0.81702  0.59778  Biso   1.000  C
  H593     1.0000 0.56100  0.80950  0.61240  Biso   1.000  H
  C1780    1.0000 0.59057  0.80652  0.58720  Biso   1.000  C
  C1781    1.0000 0.60219  0.81791  0.56637  Biso   1.000  C
  H594     1.0000 0.61740  0.81090  0.55960  Biso   1.000  H
  C1782    1.0000 0.59170  0.83934  0.55543  Biso   1.000  C
  C1783    1.0000 0.56919  0.84972  0.56555  Biso   1.000  C
  H595     1.0000 0.56170  0.86430  0.55800  Biso   1.000  H
  C1784    1.0000 0.60312  0.78445  0.60023  Biso   1.000  C
  C1785    1.0000 0.60500  0.85269  0.53408  Biso   1.000  C
  C1786    1.0000 0.64933  0.78384  0.64812  Biso   1.000  C
  C1787    1.0000 0.66217  0.80554  0.66114  Biso   1.000  C
  C1788    1.0000 0.65094  0.81613  0.68314  Biso   1.000  C
  H596     1.0000 0.63630  0.80840  0.69030  Biso   1.000  H
  Cu150    1.0000 0.64280  0.24970  0.10759  Biso   1.000  Cu
  O1193    1.0000 0.52630  0.37024  0.08885  Biso   1.000  O
  O1194    1.0000 0.52655  0.33998  0.11847  Biso   1.000  O
  O1195    1.0000 0.59383  0.27755  0.12112  Biso   1.000  O
  O1196    1.0000 0.62206  0.27450  0.08950  Biso   1.000  O
  O1197    1.0000 0.62499  0.34302  0.02603  Biso   1.000  O
  O1198    1.0000 0.59464  0.37274  0.02602  Biso   1.000  O
  O1199    1.0000 0.65841  0.27773  0.12709  Biso   1.000  O
  O1200    1.0000 0.63051  0.27469  0.15889  Biso   1.000  O
  C1789    1.0000 0.53507  0.35042  0.09900  Biso   1.000  C
  C1790    1.0000 0.55790  0.33837  0.08689  Biso   1.000  C
  C1791    1.0000 0.56855  0.31702  0.09778  Biso   1.000  C
  H597     1.0000 0.56100  0.30950  0.11240  Biso   1.000  H
  C1792    1.0000 0.59057  0.30652  0.08720  Biso   1.000  C
  C1793    1.0000 0.60219  0.31791  0.06637  Biso   1.000  C
  H598     1.0000 0.61740  0.31090  0.05960  Biso   1.000  H
  C1794    1.0000 0.59170  0.33934  0.05543  Biso   1.000  C
  C1795    1.0000 0.56919  0.34972  0.06555  Biso   1.000  C
  H599     1.0000 0.56170  0.36430  0.05800  Biso   1.000  H
  C1796    1.0000 0.60312  0.28445  0.10023  Biso   1.000  C
  C1797    1.0000 0.60500  0.35269  0.03408  Biso   1.000  C
  C1798    1.0000 0.64933  0.28384  0.14812  Biso   1.000  C
  C1799    1.0000 0.66217  0.30554  0.16114  Biso   1.000  C
  C1800    1.0000 0.65094  0.31613  0.18314  Biso   1.000  C
  H600     1.0000 0.63630  0.30840  0.19030  Biso   1.000  H
  Cu151    1.0000 0.14280  0.74970  0.10759  Biso   1.000  Cu
  O1201    1.0000 0.02630  0.87024  0.08885  Biso   1.000  O
  O1202    1.0000 0.02655  0.83998  0.11847  Biso   1.000  O
  O1203    1.0000 0.09383  0.77755  0.12112  Biso   1.000  O
  O1204    1.0000 0.12206  0.77450  0.08950  Biso   1.000  O
  O1205    1.0000 0.12499  0.84302  0.02603  Biso   1.000  O
  O1206    1.0000 0.09464  0.87274  0.02602  Biso   1.000  O
  O1207    1.0000 0.15841  0.77773  0.12709  Biso   1.000  O
  O1208    1.0000 0.13051  0.77469  0.15889  Biso   1.000  O
  C1801    1.0000 0.03507  0.85042  0.09900  Biso   1.000  C
  C1802    1.0000 0.05790  0.83837  0.08689  Biso   1.000  C
  C1803    1.0000 0.06855  0.81702  0.09778  Biso   1.000  C
  H601     1.0000 0.06100  0.80950  0.11240  Biso   1.000  H
  C1804    1.0000 0.09057  0.80652  0.08720  Biso   1.000  C
  C1805    1.0000 0.10219  0.81791  0.06637  Biso   1.000  C
  H602     1.0000 0.11740  0.81090  0.05960  Biso   1.000  H
  C1806    1.0000 0.09170  0.83934  0.05543  Biso   1.000  C
  C1807    1.0000 0.06919  0.84972  0.06555  Biso   1.000  C
  H603     1.0000 0.06170  0.86430  0.05800  Biso   1.000  H
  C1808    1.0000 0.10312  0.78445  0.10023  Biso   1.000  C
  C1809    1.0000 0.10500  0.85269  0.03408  Biso   1.000  C
  C1810    1.0000 0.14933  0.78384  0.14812  Biso   1.000  C
  C1811    1.0000 0.16217  0.80554  0.16114  Biso   1.000  C
  C1812    1.0000 0.15094  0.81613  0.18314  Biso   1.000  C
  H604     1.0000 0.13630  0.80840  0.19030  Biso   1.000  H
  Cu152    1.0000 0.14280  0.24970  0.60759  Biso   1.000  Cu
  O1209    1.0000 0.02630  0.37024  0.58885  Biso   1.000  O
  O1210    1.0000 0.02655  0.33998  0.61847  Biso   1.000  O
  O1211    1.0000 0.09383  0.27755  0.62112  Biso   1.000  O
  O1212    1.0000 0.12206  0.27450  0.58950  Biso   1.000  O
  O1213    1.0000 0.12499  0.34302  0.52603  Biso   1.000  O
  O1214    1.0000 0.09464  0.37274  0.52602  Biso   1.000  O
  O1215    1.0000 0.15841  0.27773  0.62709  Biso   1.000  O
  O1216    1.0000 0.13051  0.27469  0.65889  Biso   1.000  O
  C1813    1.0000 0.03507  0.35042  0.59900  Biso   1.000  C
  C1814    1.0000 0.05790  0.33837  0.58689  Biso   1.000  C
  C1815    1.0000 0.06855  0.31702  0.59778  Biso   1.000  C
  H605     1.0000 0.06100  0.30950  0.61240  Biso   1.000  H
  C1816    1.0000 0.09057  0.30652  0.58720  Biso   1.000  C
  C1817    1.0000 0.10219  0.31791  0.56637  Biso   1.000  C
  H606     1.0000 0.11740  0.31090  0.55960  Biso   1.000  H
  C1818    1.0000 0.09170  0.33934  0.55543  Biso   1.000  C
  C1819    1.0000 0.06919  0.34972  0.56555  Biso   1.000  C
  H607     1.0000 0.06170  0.36430  0.55800  Biso   1.000  H
  C1820    1.0000 0.10312  0.28445  0.60023  Biso   1.000  C
  C1821    1.0000 0.10500  0.35269  0.53408  Biso   1.000  C
  C1822    1.0000 0.14933  0.28384  0.64812  Biso   1.000  C
  C1823    1.0000 0.16217  0.30554  0.66114  Biso   1.000  C
  C1824    1.0000 0.15094  0.31613  0.68314  Biso   1.000  C
  H608     1.0000 0.13630  0.30840  0.69030  Biso   1.000  H
  Cu153    1.0000 0.35720  0.74970  0.39241  Biso   1.000  Cu
  O1217    1.0000 0.47370  0.87024  0.41115  Biso   1.000  O
  O1218    1.0000 0.47345  0.83998  0.38153  Biso   1.000  O
  O1219    1.0000 0.40617  0.77755  0.37888  Biso   1.000  O
  O1220    1.0000 0.37794  0.77450  0.41050  Biso   1.000  O
  O1221    1.0000 0.37501  0.84302  0.47397  Biso   1.000  O
  O1222    1.0000 0.40536  0.87274  0.47398  Biso   1.000  O
  O1223    1.0000 0.34159  0.77773  0.37291  Biso   1.000  O
  O1224    1.0000 0.36949  0.77469  0.34111  Biso   1.000  O
  C1825    1.0000 0.46493  0.85042  0.40100  Biso   1.000  C
  C1826    1.0000 0.44210  0.83837  0.41311  Biso   1.000  C
  C1827    1.0000 0.43145  0.81702  0.40222  Biso   1.000  C
  H609     1.0000 0.43900  0.80950  0.38760  Biso   1.000  H
  C1828    1.0000 0.40943  0.80652  0.41280  Biso   1.000  C
  C1829    1.0000 0.39781  0.81791  0.43363  Biso   1.000  C
  H610     1.0000 0.38260  0.81090  0.44040  Biso   1.000  H
  C1830    1.0000 0.40830  0.83934  0.44457  Biso   1.000  C
  C1831    1.0000 0.43081  0.84972  0.43445  Biso   1.000  C
  H611     1.0000 0.43830  0.86430  0.44200  Biso   1.000  H
  C1832    1.0000 0.39688  0.78445  0.39977  Biso   1.000  C
  C1833    1.0000 0.39500  0.85269  0.46592  Biso   1.000  C
  C1834    1.0000 0.35067  0.78384  0.35188  Biso   1.000  C
  C1835    1.0000 0.33783  0.80554  0.33886  Biso   1.000  C
  C1836    1.0000 0.34906  0.81613  0.31686  Biso   1.000  C
  H612     1.0000 0.36370  0.80840  0.30970  Biso   1.000  H
  Cu154    1.0000 0.35720  0.24970  0.89241  Biso   1.000  Cu
  O1225    1.0000 0.47370  0.37024  0.91115  Biso   1.000  O
  O1226    1.0000 0.47345  0.33998  0.88153  Biso   1.000  O
  O1227    1.0000 0.40617  0.27755  0.87888  Biso   1.000  O
  O1228    1.0000 0.37794  0.27450  0.91050  Biso   1.000  O
  O1229    1.0000 0.37501  0.34302  0.97397  Biso   1.000  O
  O1230    1.0000 0.40536  0.37274  0.97398  Biso   1.000  O
  O1231    1.0000 0.34159  0.27773  0.87291  Biso   1.000  O
  O1232    1.0000 0.36949  0.27469  0.84111  Biso   1.000  O
  C1837    1.0000 0.46493  0.35042  0.90100  Biso   1.000  C
  C1838    1.0000 0.44210  0.33837  0.91311  Biso   1.000  C
  C1839    1.0000 0.43145  0.31702  0.90222  Biso   1.000  C
  H613     1.0000 0.43900  0.30950  0.88760  Biso   1.000  H
  C1840    1.0000 0.40943  0.30652  0.91280  Biso   1.000  C
  C1841    1.0000 0.39781  0.31791  0.93363  Biso   1.000  C
  H614     1.0000 0.38260  0.31090  0.94040  Biso   1.000  H
  C1842    1.0000 0.40830  0.33934  0.94457  Biso   1.000  C
  C1843    1.0000 0.43081  0.34972  0.93445  Biso   1.000  C
  H615     1.0000 0.43830  0.36430  0.94200  Biso   1.000  H
  C1844    1.0000 0.39688  0.28445  0.89977  Biso   1.000  C
  C1845    1.0000 0.39500  0.35269  0.96592  Biso   1.000  C
  C1846    1.0000 0.35067  0.28384  0.85188  Biso   1.000  C
  C1847    1.0000 0.33783  0.30554  0.83886  Biso   1.000  C
  C1848    1.0000 0.34906  0.31613  0.81686  Biso   1.000  C
  H616     1.0000 0.36370  0.30840  0.80970  Biso   1.000  H
  Cu155    1.0000 0.85720  0.74970  0.89241  Biso   1.000  Cu
  O1233    1.0000 0.97370  0.87024  0.91115  Biso   1.000  O
  O1234    1.0000 0.97345  0.83998  0.88153  Biso   1.000  O
  O1235    1.0000 0.90617  0.77755  0.87888  Biso   1.000  O
  O1236    1.0000 0.87794  0.77450  0.91050  Biso   1.000  O
  O1237    1.0000 0.87501  0.84302  0.97397  Biso   1.000  O
  O1238    1.0000 0.90536  0.87274  0.97398  Biso   1.000  O
  O1239    1.0000 0.84159  0.77773  0.87291  Biso   1.000  O
  O1240    1.0000 0.86949  0.77469  0.84111  Biso   1.000  O
  C1849    1.0000 0.96493  0.85042  0.90100  Biso   1.000  C
  C1850    1.0000 0.94210  0.83837  0.91311  Biso   1.000  C
  C1851    1.0000 0.93145  0.81702  0.90222  Biso   1.000  C
  H617     1.0000 0.93900  0.80950  0.88760  Biso   1.000  H
  C1852    1.0000 0.90943  0.80652  0.91280  Biso   1.000  C
  C1853    1.0000 0.89781  0.81791  0.93363  Biso   1.000  C
  H618     1.0000 0.88260  0.81090  0.94040  Biso   1.000  H
  C1854    1.0000 0.90830  0.83934  0.94457  Biso   1.000  C
  C1855    1.0000 0.93081  0.84972  0.93445  Biso   1.000  C
  H619     1.0000 0.93830  0.86430  0.94200  Biso   1.000  H
  C1856    1.0000 0.89688  0.78445  0.89977  Biso   1.000  C
  C1857    1.0000 0.89500  0.85269  0.96592  Biso   1.000  C
  C1858    1.0000 0.85067  0.78384  0.85188  Biso   1.000  C
  C1859    1.0000 0.83783  0.80554  0.83886  Biso   1.000  C
  C1860    1.0000 0.84906  0.81613  0.81686  Biso   1.000  C
  H620     1.0000 0.86370  0.80840  0.80970  Biso   1.000  H
  Cu156    1.0000 0.85720  0.24970  0.39241  Biso   1.000  Cu
  O1241    1.0000 0.97370  0.37024  0.41115  Biso   1.000  O
  O1242    1.0000 0.97345  0.33998  0.38153  Biso   1.000  O
  O1243    1.0000 0.90617  0.27755  0.37888  Biso   1.000  O
  O1244    1.0000 0.87794  0.27450  0.41050  Biso   1.000  O
  O1245    1.0000 0.87501  0.34302  0.47397  Biso   1.000  O
  O1246    1.0000 0.90536  0.37274  0.47398  Biso   1.000  O
  O1247    1.0000 0.84159  0.27773  0.37291  Biso   1.000  O
  O1248    1.0000 0.86949  0.27469  0.34111  Biso   1.000  O
  C1861    1.0000 0.96493  0.35042  0.40100  Biso   1.000  C
  C1862    1.0000 0.94210  0.33837  0.41311  Biso   1.000  C
  C1863    1.0000 0.93145  0.31702  0.40222  Biso   1.000  C
  H621     1.0000 0.93900  0.30950  0.38760  Biso   1.000  H
  C1864    1.0000 0.90943  0.30652  0.41280  Biso   1.000  C
  C1865    1.0000 0.89781  0.31791  0.43363  Biso   1.000  C
  H622     1.0000 0.88260  0.31090  0.44040  Biso   1.000  H
  C1866    1.0000 0.90830  0.33934  0.44457  Biso   1.000  C
  C1867    1.0000 0.93081  0.34972  0.43445  Biso   1.000  C
  H623     1.0000 0.93830  0.36430  0.44200  Biso   1.000  H
  C1868    1.0000 0.89688  0.28445  0.39977  Biso   1.000  C
  C1869    1.0000 0.89500  0.35269  0.46592  Biso   1.000  C
  C1870    1.0000 0.85067  0.28384  0.35188  Biso   1.000  C
  C1871    1.0000 0.83783  0.30554  0.33886  Biso   1.000  C
  C1872    1.0000 0.84906  0.31613  0.31686  Biso   1.000  C
  H624     1.0000 0.86370  0.30840  0.30970  Biso   1.000  H
  Cu157    1.0000 0.64280  0.25030  0.39241  Biso   1.000  Cu
  O1249    1.0000 0.52630  0.12976  0.41115  Biso   1.000  O
  O1250    1.0000 0.52655  0.16002  0.38153  Biso   1.000  O
  O1251    1.0000 0.59383  0.22245  0.37888  Biso   1.000  O
  O1252    1.0000 0.62206  0.22550  0.41050  Biso   1.000  O
  O1253    1.0000 0.62499  0.15698  0.47397  Biso   1.000  O
  O1254    1.0000 0.59464  0.12726  0.47398  Biso   1.000  O
  O1255    1.0000 0.65841  0.22227  0.37291  Biso   1.000  O
  O1256    1.0000 0.63051  0.22531  0.34111  Biso   1.000  O
  C1873    1.0000 0.53507  0.14958  0.40100  Biso   1.000  C
  C1874    1.0000 0.55790  0.16163  0.41311  Biso   1.000  C
  C1875    1.0000 0.56855  0.18298  0.40222  Biso   1.000  C
  H625     1.0000 0.56100  0.19050  0.38760  Biso   1.000  H
  C1876    1.0000 0.59057  0.19348  0.41280  Biso   1.000  C
  C1877    1.0000 0.60219  0.18209  0.43363  Biso   1.000  C
  H626     1.0000 0.61740  0.18910  0.44040  Biso   1.000  H
  C1878    1.0000 0.59170  0.16066  0.44457  Biso   1.000  C
  C1879    1.0000 0.56919  0.15028  0.43445  Biso   1.000  C
  H627     1.0000 0.56170  0.13570  0.44200  Biso   1.000  H
  C1880    1.0000 0.60312  0.21555  0.39977  Biso   1.000  C
  C1881    1.0000 0.60500  0.14731  0.46592  Biso   1.000  C
  C1882    1.0000 0.64933  0.21616  0.35188  Biso   1.000  C
  C1883    1.0000 0.66217  0.19446  0.33886  Biso   1.000  C
  C1884    1.0000 0.65094  0.18387  0.31686  Biso   1.000  C
  H628     1.0000 0.63630  0.19160  0.30970  Biso   1.000  H
  Cu158    1.0000 0.64280  0.75030  0.89241  Biso   1.000  Cu
  O1257    1.0000 0.52630  0.62976  0.91115  Biso   1.000  O
  O1258    1.0000 0.52655  0.66002  0.88153  Biso   1.000  O
  O1259    1.0000 0.59383  0.72245  0.87888  Biso   1.000  O
  O1260    1.0000 0.62206  0.72550  0.91050  Biso   1.000  O
  O1261    1.0000 0.62499  0.65698  0.97397  Biso   1.000  O
  O1262    1.0000 0.59464  0.62726  0.97398  Biso   1.000  O
  O1263    1.0000 0.65841  0.72227  0.87291  Biso   1.000  O
  O1264    1.0000 0.63051  0.72531  0.84111  Biso   1.000  O
  C1885    1.0000 0.53507  0.64958  0.90100  Biso   1.000  C
  C1886    1.0000 0.55790  0.66163  0.91311  Biso   1.000  C
  C1887    1.0000 0.56855  0.68298  0.90222  Biso   1.000  C
  H629     1.0000 0.56100  0.69050  0.88760  Biso   1.000  H
  C1888    1.0000 0.59057  0.69348  0.91280  Biso   1.000  C
  C1889    1.0000 0.60219  0.68209  0.93363  Biso   1.000  C
  H630     1.0000 0.61740  0.68910  0.94040  Biso   1.000  H
  C1890    1.0000 0.59170  0.66066  0.94457  Biso   1.000  C
  C1891    1.0000 0.56919  0.65028  0.93445  Biso   1.000  C
  H631     1.0000 0.56170  0.63570  0.94200  Biso   1.000  H
  C1892    1.0000 0.60312  0.71555  0.89977  Biso   1.000  C
  C1893    1.0000 0.60500  0.64731  0.96592  Biso   1.000  C
  C1894    1.0000 0.64933  0.71616  0.85188  Biso   1.000  C
  C1895    1.0000 0.66217  0.69446  0.83886  Biso   1.000  C
  C1896    1.0000 0.65094  0.68387  0.81686  Biso   1.000  C
  H632     1.0000 0.63630  0.69160  0.80970  Biso   1.000  H
  Cu159    1.0000 0.14280  0.25030  0.89241  Biso   1.000  Cu
  O1265    1.0000 0.02630  0.12976  0.91115  Biso   1.000  O
  O1266    1.0000 0.02655  0.16002  0.88153  Biso   1.000  O
  O1267    1.0000 0.09383  0.22245  0.87888  Biso   1.000  O
  O1268    1.0000 0.12206  0.22550  0.91050  Biso   1.000  O
  O1269    1.0000 0.12499  0.15698  0.97397  Biso   1.000  O
  O1270    1.0000 0.09464  0.12726  0.97398  Biso   1.000  O
  O1271    1.0000 0.15841  0.22227  0.87291  Biso   1.000  O
  O1272    1.0000 0.13051  0.22531  0.84111  Biso   1.000  O
  C1897    1.0000 0.03507  0.14958  0.90100  Biso   1.000  C
  C1898    1.0000 0.05790  0.16163  0.91311  Biso   1.000  C
  C1899    1.0000 0.06855  0.18298  0.90222  Biso   1.000  C
  H633     1.0000 0.06100  0.19050  0.88760  Biso   1.000  H
  C1900    1.0000 0.09057  0.19348  0.91280  Biso   1.000  C
  C1901    1.0000 0.10219  0.18209  0.93363  Biso   1.000  C
  H634     1.0000 0.11740  0.18910  0.94040  Biso   1.000  H
  C1902    1.0000 0.09170  0.16066  0.94457  Biso   1.000  C
  C1903    1.0000 0.06919  0.15028  0.93445  Biso   1.000  C
  H635     1.0000 0.06170  0.13570  0.94200  Biso   1.000  H
  C1904    1.0000 0.10312  0.21555  0.89977  Biso   1.000  C
  C1905    1.0000 0.10500  0.14731  0.96592  Biso   1.000  C
  C1906    1.0000 0.14933  0.21616  0.85188  Biso   1.000  C
  C1907    1.0000 0.16217  0.19446  0.83886  Biso   1.000  C
  C1908    1.0000 0.15094  0.18387  0.81686  Biso   1.000  C
  H636     1.0000 0.13630  0.19160  0.80970  Biso   1.000  H
  Cu160    1.0000 0.14280  0.75030  0.39241  Biso   1.000  Cu
  O1273    1.0000 0.02630  0.62976  0.41115  Biso   1.000  O
  O1274    1.0000 0.02655  0.66002  0.38153  Biso   1.000  O
  O1275    1.0000 0.09383  0.72245  0.37888  Biso   1.000  O
  O1276    1.0000 0.12206  0.72550  0.41050  Biso   1.000  O
  O1277    1.0000 0.12499  0.65698  0.47397  Biso   1.000  O
  O1278    1.0000 0.09464  0.62726  0.47398  Biso   1.000  O
  O1279    1.0000 0.15841  0.72227  0.37291  Biso   1.000  O
  O1280    1.0000 0.13051  0.72531  0.34111  Biso   1.000  O
  C1909    1.0000 0.03507  0.64958  0.40100  Biso   1.000  C
  C1910    1.0000 0.05790  0.66163  0.41311  Biso   1.000  C
  C1911    1.0000 0.06855  0.68298  0.40222  Biso   1.000  C
  H637     1.0000 0.06100  0.69050  0.38760  Biso   1.000  H
  C1912    1.0000 0.09057  0.69348  0.41280  Biso   1.000  C
  C1913    1.0000 0.10219  0.68209  0.43363  Biso   1.000  C
  H638     1.0000 0.11740  0.68910  0.44040  Biso   1.000  H
  C1914    1.0000 0.09170  0.66066  0.44457  Biso   1.000  C
  C1915    1.0000 0.06919  0.65028  0.43445  Biso   1.000  C
  H639     1.0000 0.06170  0.63570  0.44200  Biso   1.000  H
  C1916    1.0000 0.10312  0.71555  0.39977  Biso   1.000  C
  C1917    1.0000 0.10500  0.64731  0.46592  Biso   1.000  C
  C1918    1.0000 0.14933  0.71616  0.35188  Biso   1.000  C
  C1919    1.0000 0.16217  0.69446  0.33886  Biso   1.000  C
  C1920    1.0000 0.15094  0.68387  0.31686  Biso   1.000  C
  H640     1.0000 0.13630  0.69160  0.30970  Biso   1.000  H
  Cu161    1.0000 0.25030  0.39241  0.64280  Biso   1.000  Cu
  O1281    1.0000 0.12976  0.41115  0.52630  Biso   1.000  O
  O1282    1.0000 0.16002  0.38153  0.52655  Biso   1.000  O
  O1283    1.0000 0.22245  0.37888  0.59383  Biso   1.000  O
  O1284    1.0000 0.22550  0.41050  0.62206  Biso   1.000  O
  O1285    1.0000 0.15698  0.47397  0.62499  Biso   1.000  O
  O1286    1.0000 0.12726  0.47398  0.59464  Biso   1.000  O
  O1287    1.0000 0.22227  0.37291  0.65841  Biso   1.000  O
  O1288    1.0000 0.22531  0.34111  0.63051  Biso   1.000  O
  C1921    1.0000 0.14958  0.40100  0.53507  Biso   1.000  C
  C1922    1.0000 0.16163  0.41311  0.55790  Biso   1.000  C
  C1923    1.0000 0.18298  0.40222  0.56855  Biso   1.000  C
  H641     1.0000 0.19050  0.38760  0.56100  Biso   1.000  H
  C1924    1.0000 0.19348  0.41280  0.59057  Biso   1.000  C
  C1925    1.0000 0.18209  0.43363  0.60219  Biso   1.000  C
  H642     1.0000 0.18910  0.44040  0.61740  Biso   1.000  H
  C1926    1.0000 0.16066  0.44457  0.59170  Biso   1.000  C
  C1927    1.0000 0.15028  0.43445  0.56919  Biso   1.000  C
  H643     1.0000 0.13570  0.44200  0.56170  Biso   1.000  H
  C1928    1.0000 0.21555  0.39977  0.60312  Biso   1.000  C
  C1929    1.0000 0.14731  0.46592  0.60500  Biso   1.000  C
  C1930    1.0000 0.21616  0.35188  0.64933  Biso   1.000  C
  C1931    1.0000 0.19446  0.33886  0.66217  Biso   1.000  C
  C1932    1.0000 0.18387  0.31686  0.65094  Biso   1.000  C
  H644     1.0000 0.19160  0.30970  0.63630  Biso   1.000  H
  Cu162    1.0000 0.25030  0.89241  0.14280  Biso   1.000  Cu
  O1289    1.0000 0.12976  0.91115  0.02630  Biso   1.000  O
  O1290    1.0000 0.16002  0.88153  0.02655  Biso   1.000  O
  O1291    1.0000 0.22245  0.87888  0.09383  Biso   1.000  O
  O1292    1.0000 0.22550  0.91050  0.12206  Biso   1.000  O
  O1293    1.0000 0.15698  0.97397  0.12499  Biso   1.000  O
  O1294    1.0000 0.12726  0.97398  0.09464  Biso   1.000  O
  O1295    1.0000 0.22227  0.87291  0.15841  Biso   1.000  O
  O1296    1.0000 0.22531  0.84111  0.13051  Biso   1.000  O
  C1933    1.0000 0.14958  0.90100  0.03507  Biso   1.000  C
  C1934    1.0000 0.16163  0.91311  0.05790  Biso   1.000  C
  C1935    1.0000 0.18298  0.90222  0.06855  Biso   1.000  C
  H645     1.0000 0.19050  0.88760  0.06100  Biso   1.000  H
  C1936    1.0000 0.19348  0.91280  0.09057  Biso   1.000  C
  C1937    1.0000 0.18209  0.93363  0.10219  Biso   1.000  C
  H646     1.0000 0.18910  0.94040  0.11740  Biso   1.000  H
  C1938    1.0000 0.16066  0.94457  0.09170  Biso   1.000  C
  C1939    1.0000 0.15028  0.93445  0.06919  Biso   1.000  C
  H647     1.0000 0.13570  0.94200  0.06170  Biso   1.000  H
  C1940    1.0000 0.21555  0.89977  0.10312  Biso   1.000  C
  C1941    1.0000 0.14731  0.96592  0.10500  Biso   1.000  C
  C1942    1.0000 0.21616  0.85188  0.14933  Biso   1.000  C
  C1943    1.0000 0.19446  0.83886  0.16217  Biso   1.000  C
  C1944    1.0000 0.18387  0.81686  0.15094  Biso   1.000  C
  H648     1.0000 0.19160  0.80970  0.13630  Biso   1.000  H
  Cu163    1.0000 0.75030  0.39241  0.14280  Biso   1.000  Cu
  O1297    1.0000 0.62976  0.41115  0.02630  Biso   1.000  O
  O1298    1.0000 0.66002  0.38153  0.02655  Biso   1.000  O
  O1299    1.0000 0.72245  0.37888  0.09383  Biso   1.000  O
  O1300    1.0000 0.72550  0.41050  0.12206  Biso   1.000  O
  O1301    1.0000 0.65698  0.47397  0.12499  Biso   1.000  O
  O1302    1.0000 0.62726  0.47398  0.09464  Biso   1.000  O
  O1303    1.0000 0.72227  0.37291  0.15841  Biso   1.000  O
  O1304    1.0000 0.72531  0.34111  0.13051  Biso   1.000  O
  C1945    1.0000 0.64958  0.40100  0.03507  Biso   1.000  C
  C1946    1.0000 0.66163  0.41311  0.05790  Biso   1.000  C
  C1947    1.0000 0.68298  0.40222  0.06855  Biso   1.000  C
  H649     1.0000 0.69050  0.38760  0.06100  Biso   1.000  H
  C1948    1.0000 0.69348  0.41280  0.09057  Biso   1.000  C
  C1949    1.0000 0.68209  0.43363  0.10219  Biso   1.000  C
  H650     1.0000 0.68910  0.44040  0.11740  Biso   1.000  H
  C1950    1.0000 0.66066  0.44457  0.09170  Biso   1.000  C
  C1951    1.0000 0.65028  0.43445  0.06919  Biso   1.000  C
  H651     1.0000 0.63570  0.44200  0.06170  Biso   1.000  H
  C1952    1.0000 0.71555  0.39977  0.10312  Biso   1.000  C
  C1953    1.0000 0.64731  0.46592  0.10500  Biso   1.000  C
  C1954    1.0000 0.71616  0.35188  0.14933  Biso   1.000  C
  C1955    1.0000 0.69446  0.33886  0.16217  Biso   1.000  C
  C1956    1.0000 0.68387  0.31686  0.15094  Biso   1.000  C
  H652     1.0000 0.69160  0.30970  0.13630  Biso   1.000  H
  Cu164    1.0000 0.75030  0.89241  0.64280  Biso   1.000  Cu
  O1305    1.0000 0.62976  0.91115  0.52630  Biso   1.000  O
  O1306    1.0000 0.66002  0.88153  0.52655  Biso   1.000  O
  O1307    1.0000 0.72245  0.87888  0.59383  Biso   1.000  O
  O1308    1.0000 0.72550  0.91050  0.62206  Biso   1.000  O
  O1309    1.0000 0.65698  0.97397  0.62499  Biso   1.000  O
  O1310    1.0000 0.62726  0.97398  0.59464  Biso   1.000  O
  O1311    1.0000 0.72227  0.87291  0.65841  Biso   1.000  O
  O1312    1.0000 0.72531  0.84111  0.63051  Biso   1.000  O
  C1957    1.0000 0.64958  0.90100  0.53507  Biso   1.000  C
  C1958    1.0000 0.66163  0.91311  0.55790  Biso   1.000  C
  C1959    1.0000 0.68298  0.90222  0.56855  Biso   1.000  C
  H653     1.0000 0.69050  0.88760  0.56100  Biso   1.000  H
  C1960    1.0000 0.69348  0.91280  0.59057  Biso   1.000  C
  C1961    1.0000 0.68209  0.93363  0.60219  Biso   1.000  C
  H654     1.0000 0.68910  0.94040  0.61740  Biso   1.000  H
  C1962    1.0000 0.66066  0.94457  0.59170  Biso   1.000  C
  C1963    1.0000 0.65028  0.93445  0.56919  Biso   1.000  C
  H655     1.0000 0.63570  0.94200  0.56170  Biso   1.000  H
  C1964    1.0000 0.71555  0.89977  0.60312  Biso   1.000  C
  C1965    1.0000 0.64731  0.96592  0.60500  Biso   1.000  C
  C1966    1.0000 0.71616  0.85188  0.64933  Biso   1.000  C
  C1967    1.0000 0.69446  0.83886  0.66217  Biso   1.000  C
  C1968    1.0000 0.68387  0.81686  0.65094  Biso   1.000  C
  H656     1.0000 0.69160  0.80970  0.63630  Biso   1.000  H
  Cu165    1.0000 0.74970  0.39241  0.35720  Biso   1.000  Cu
  O1313    1.0000 0.87024  0.41115  0.47370  Biso   1.000  O
  O1314    1.0000 0.83998  0.38153  0.47345  Biso   1.000  O
  O1315    1.0000 0.77755  0.37888  0.40617  Biso   1.000  O
  O1316    1.0000 0.77450  0.41050  0.37794  Biso   1.000  O
  O1317    1.0000 0.84302  0.47397  0.37501  Biso   1.000  O
  O1318    1.0000 0.87274  0.47398  0.40536  Biso   1.000  O
  O1319    1.0000 0.77773  0.37291  0.34159  Biso   1.000  O
  O1320    1.0000 0.77469  0.34111  0.36949  Biso   1.000  O
  C1969    1.0000 0.85042  0.40100  0.46493  Biso   1.000  C
  C1970    1.0000 0.83837  0.41311  0.44210  Biso   1.000  C
  C1971    1.0000 0.81702  0.40222  0.43145  Biso   1.000  C
  H657     1.0000 0.80950  0.38760  0.43900  Biso   1.000  H
  C1972    1.0000 0.80652  0.41280  0.40943  Biso   1.000  C
  C1973    1.0000 0.81791  0.43363  0.39781  Biso   1.000  C
  H658     1.0000 0.81090  0.44040  0.38260  Biso   1.000  H
  C1974    1.0000 0.83934  0.44457  0.40830  Biso   1.000  C
  C1975    1.0000 0.84972  0.43445  0.43081  Biso   1.000  C
  H659     1.0000 0.86430  0.44200  0.43830  Biso   1.000  H
  C1976    1.0000 0.78445  0.39977  0.39688  Biso   1.000  C
  C1977    1.0000 0.85269  0.46592  0.39500  Biso   1.000  C
  C1978    1.0000 0.78384  0.35188  0.35067  Biso   1.000  C
  C1979    1.0000 0.80554  0.33886  0.33783  Biso   1.000  C
  C1980    1.0000 0.81613  0.31686  0.34906  Biso   1.000  C
  H660     1.0000 0.80840  0.30970  0.36370  Biso   1.000  H
  Cu166    1.0000 0.74970  0.89241  0.85720  Biso   1.000  Cu
  O1321    1.0000 0.87024  0.91115  0.97370  Biso   1.000  O
  O1322    1.0000 0.83998  0.88153  0.97345  Biso   1.000  O
  O1323    1.0000 0.77755  0.87888  0.90617  Biso   1.000  O
  O1324    1.0000 0.77450  0.91050  0.87794  Biso   1.000  O
  O1325    1.0000 0.84302  0.97397  0.87501  Biso   1.000  O
  O1326    1.0000 0.87274  0.97398  0.90536  Biso   1.000  O
  O1327    1.0000 0.77773  0.87291  0.84159  Biso   1.000  O
  O1328    1.0000 0.77469  0.84111  0.86949  Biso   1.000  O
  C1981    1.0000 0.85042  0.90100  0.96493  Biso   1.000  C
  C1982    1.0000 0.83837  0.91311  0.94210  Biso   1.000  C
  C1983    1.0000 0.81702  0.90222  0.93145  Biso   1.000  C
  H661     1.0000 0.80950  0.88760  0.93900  Biso   1.000  H
  C1984    1.0000 0.80652  0.91280  0.90943  Biso   1.000  C
  C1985    1.0000 0.81791  0.93363  0.89781  Biso   1.000  C
  H662     1.0000 0.81090  0.94040  0.88260  Biso   1.000  H
  C1986    1.0000 0.83934  0.94457  0.90830  Biso   1.000  C
  C1987    1.0000 0.84972  0.93445  0.93081  Biso   1.000  C
  H663     1.0000 0.86430  0.94200  0.93830  Biso   1.000  H
  C1988    1.0000 0.78445  0.89977  0.89688  Biso   1.000  C
  C1989    1.0000 0.85269  0.96592  0.89500  Biso   1.000  C
  C1990    1.0000 0.78384  0.85188  0.85067  Biso   1.000  C
  C1991    1.0000 0.80554  0.83886  0.83783  Biso   1.000  C
  C1992    1.0000 0.81613  0.81686  0.84906  Biso   1.000  C
  H664     1.0000 0.80840  0.80970  0.86370  Biso   1.000  H
  Cu167    1.0000 0.24970  0.39241  0.85720  Biso   1.000  Cu
  O1329    1.0000 0.37024  0.41115  0.97370  Biso   1.000  O
  O1330    1.0000 0.33998  0.38153  0.97345  Biso   1.000  O
  O1331    1.0000 0.27755  0.37888  0.90617  Biso   1.000  O
  O1332    1.0000 0.27450  0.41050  0.87794  Biso   1.000  O
  O1333    1.0000 0.34302  0.47397  0.87501  Biso   1.000  O
  O1334    1.0000 0.37274  0.47398  0.90536  Biso   1.000  O
  O1335    1.0000 0.27773  0.37291  0.84159  Biso   1.000  O
  O1336    1.0000 0.27469  0.34111  0.86949  Biso   1.000  O
  C1993    1.0000 0.35042  0.40100  0.96493  Biso   1.000  C
  C1994    1.0000 0.33837  0.41311  0.94210  Biso   1.000  C
  C1995    1.0000 0.31702  0.40222  0.93145  Biso   1.000  C
  H665     1.0000 0.30950  0.38760  0.93900  Biso   1.000  H
  C1996    1.0000 0.30652  0.41280  0.90943  Biso   1.000  C
  C1997    1.0000 0.31791  0.43363  0.89781  Biso   1.000  C
  H666     1.0000 0.31090  0.44040  0.88260  Biso   1.000  H
  C1998    1.0000 0.33934  0.44457  0.90830  Biso   1.000  C
  C1999    1.0000 0.34972  0.43445  0.93081  Biso   1.000  C
  H667     1.0000 0.36430  0.44200  0.93830  Biso   1.000  H
  C2000    1.0000 0.28445  0.39977  0.89688  Biso   1.000  C
  C2001    1.0000 0.35269  0.46592  0.89500  Biso   1.000  C
  C2002    1.0000 0.28384  0.35188  0.85067  Biso   1.000  C
  C2003    1.0000 0.30554  0.33886  0.83783  Biso   1.000  C
  C2004    1.0000 0.31613  0.31686  0.84906  Biso   1.000  C
  H668     1.0000 0.30840  0.30970  0.86370  Biso   1.000  H
  Cu168    1.0000 0.24970  0.89241  0.35720  Biso   1.000  Cu
  O1337    1.0000 0.37024  0.91115  0.47370  Biso   1.000  O
  O1338    1.0000 0.33998  0.88153  0.47345  Biso   1.000  O
  O1339    1.0000 0.27755  0.87888  0.40617  Biso   1.000  O
  O1340    1.0000 0.27450  0.91050  0.37794  Biso   1.000  O
  O1341    1.0000 0.34302  0.97397  0.37501  Biso   1.000  O
  O1342    1.0000 0.37274  0.97398  0.40536  Biso   1.000  O
  O1343    1.0000 0.27773  0.87291  0.34159  Biso   1.000  O
  O1344    1.0000 0.27469  0.84111  0.36949  Biso   1.000  O
  C2005    1.0000 0.35042  0.90100  0.46493  Biso   1.000  C
  C2006    1.0000 0.33837  0.91311  0.44210  Biso   1.000  C
  C2007    1.0000 0.31702  0.90222  0.43145  Biso   1.000  C
  H669     1.0000 0.30950  0.88760  0.43900  Biso   1.000  H
  C2008    1.0000 0.30652  0.91280  0.40943  Biso   1.000  C
  C2009    1.0000 0.31791  0.93363  0.39781  Biso   1.000  C
  H670     1.0000 0.31090  0.94040  0.38260  Biso   1.000  H
  C2010    1.0000 0.33934  0.94457  0.40830  Biso   1.000  C
  C2011    1.0000 0.34972  0.93445  0.43081  Biso   1.000  C
  H671     1.0000 0.36430  0.94200  0.43830  Biso   1.000  H
  C2012    1.0000 0.28445  0.89977  0.39688  Biso   1.000  C
  C2013    1.0000 0.35269  0.96592  0.39500  Biso   1.000  C
  C2014    1.0000 0.28384  0.85188  0.35067  Biso   1.000  C
  C2015    1.0000 0.30554  0.83886  0.33783  Biso   1.000  C
  C2016    1.0000 0.31613  0.81686  0.34906  Biso   1.000  C
  H672     1.0000 0.30840  0.80970  0.36370  Biso   1.000  H
  Cu169    1.0000 0.74970  0.60759  0.64280  Biso   1.000  Cu
  O1345    1.0000 0.87024  0.58885  0.52630  Biso   1.000  O
  O1346    1.0000 0.83998  0.61847  0.52655  Biso   1.000  O
  O1347    1.0000 0.77755  0.62112  0.59383  Biso   1.000  O
  O1348    1.0000 0.77450  0.58950  0.62206  Biso   1.000  O
  O1349    1.0000 0.84302  0.52603  0.62499  Biso   1.000  O
  O1350    1.0000 0.87274  0.52602  0.59464  Biso   1.000  O
  O1351    1.0000 0.77773  0.62709  0.65841  Biso   1.000  O
  O1352    1.0000 0.77469  0.65889  0.63051  Biso   1.000  O
  C2017    1.0000 0.85042  0.59900  0.53507  Biso   1.000  C
  C2018    1.0000 0.83837  0.58689  0.55790  Biso   1.000  C
  C2019    1.0000 0.81702  0.59778  0.56855  Biso   1.000  C
  H673     1.0000 0.80950  0.61240  0.56100  Biso   1.000  H
  C2020    1.0000 0.80652  0.58720  0.59057  Biso   1.000  C
  C2021    1.0000 0.81791  0.56637  0.60219  Biso   1.000  C
  H674     1.0000 0.81090  0.55960  0.61740  Biso   1.000  H
  C2022    1.0000 0.83934  0.55543  0.59170  Biso   1.000  C
  C2023    1.0000 0.84972  0.56555  0.56919  Biso   1.000  C
  H675     1.0000 0.86430  0.55800  0.56170  Biso   1.000  H
  C2024    1.0000 0.78445  0.60023  0.60312  Biso   1.000  C
  C2025    1.0000 0.85269  0.53408  0.60500  Biso   1.000  C
  C2026    1.0000 0.78384  0.64812  0.64933  Biso   1.000  C
  C2027    1.0000 0.80554  0.66114  0.66217  Biso   1.000  C
  C2028    1.0000 0.81613  0.68314  0.65094  Biso   1.000  C
  H676     1.0000 0.80840  0.69030  0.63630  Biso   1.000  H
  Cu170    1.0000 0.74970  0.10759  0.14280  Biso   1.000  Cu
  O1353    1.0000 0.87024  0.08885  0.02630  Biso   1.000  O
  O1354    1.0000 0.83998  0.11847  0.02655  Biso   1.000  O
  O1355    1.0000 0.77755  0.12112  0.09383  Biso   1.000  O
  O1356    1.0000 0.77450  0.08950  0.12206  Biso   1.000  O
  O1357    1.0000 0.84302  0.02603  0.12499  Biso   1.000  O
  O1358    1.0000 0.87274  0.02602  0.09464  Biso   1.000  O
  O1359    1.0000 0.77773  0.12709  0.15841  Biso   1.000  O
  O1360    1.0000 0.77469  0.15889  0.13051  Biso   1.000  O
  C2029    1.0000 0.85042  0.09900  0.03507  Biso   1.000  C
  C2030    1.0000 0.83837  0.08689  0.05790  Biso   1.000  C
  C2031    1.0000 0.81702  0.09778  0.06855  Biso   1.000  C
  H677     1.0000 0.80950  0.11240  0.06100  Biso   1.000  H
  C2032    1.0000 0.80652  0.08720  0.09057  Biso   1.000  C
  C2033    1.0000 0.81791  0.06637  0.10219  Biso   1.000  C
  H678     1.0000 0.81090  0.05960  0.11740  Biso   1.000  H
  C2034    1.0000 0.83934  0.05543  0.09170  Biso   1.000  C
  C2035    1.0000 0.84972  0.06555  0.06919  Biso   1.000  C
  H679     1.0000 0.86430  0.05800  0.06170  Biso   1.000  H
  C2036    1.0000 0.78445  0.10023  0.10312  Biso   1.000  C
  C2037    1.0000 0.85269  0.03408  0.10500  Biso   1.000  C
  C2038    1.0000 0.78384  0.14812  0.14933  Biso   1.000  C
  C2039    1.0000 0.80554  0.16114  0.16217  Biso   1.000  C
  C2040    1.0000 0.81613  0.18314  0.15094  Biso   1.000  C
  H680     1.0000 0.80840  0.19030  0.13630  Biso   1.000  H
  Cu171    1.0000 0.24970  0.60759  0.14280  Biso   1.000  Cu
  O1361    1.0000 0.37024  0.58885  0.02630  Biso   1.000  O
  O1362    1.0000 0.33998  0.61847  0.02655  Biso   1.000  O
  O1363    1.0000 0.27755  0.62112  0.09383  Biso   1.000  O
  O1364    1.0000 0.27450  0.58950  0.12206  Biso   1.000  O
  O1365    1.0000 0.34302  0.52603  0.12499  Biso   1.000  O
  O1366    1.0000 0.37274  0.52602  0.09464  Biso   1.000  O
  O1367    1.0000 0.27773  0.62709  0.15841  Biso   1.000  O
  O1368    1.0000 0.27469  0.65889  0.13051  Biso   1.000  O
  C2041    1.0000 0.35042  0.59900  0.03507  Biso   1.000  C
  C2042    1.0000 0.33837  0.58689  0.05790  Biso   1.000  C
  C2043    1.0000 0.31702  0.59778  0.06855  Biso   1.000  C
  H681     1.0000 0.30950  0.61240  0.06100  Biso   1.000  H
  C2044    1.0000 0.30652  0.58720  0.09057  Biso   1.000  C
  C2045    1.0000 0.31791  0.56637  0.10219  Biso   1.000  C
  H682     1.0000 0.31090  0.55960  0.11740  Biso   1.000  H
  C2046    1.0000 0.33934  0.55543  0.09170  Biso   1.000  C
  C2047    1.0000 0.34972  0.56555  0.06919  Biso   1.000  C
  H683     1.0000 0.36430  0.55800  0.06170  Biso   1.000  H
  C2048    1.0000 0.28445  0.60023  0.10312  Biso   1.000  C
  C2049    1.0000 0.35269  0.53408  0.10500  Biso   1.000  C
  C2050    1.0000 0.28384  0.64812  0.14933  Biso   1.000  C
  C2051    1.0000 0.30554  0.66114  0.16217  Biso   1.000  C
  C2052    1.0000 0.31613  0.68314  0.15094  Biso   1.000  C
  H684     1.0000 0.30840  0.69030  0.13630  Biso   1.000  H
  Cu172    1.0000 0.24970  0.10759  0.64280  Biso   1.000  Cu
  O1369    1.0000 0.37024  0.08885  0.52630  Biso   1.000  O
  O1370    1.0000 0.33998  0.11847  0.52655  Biso   1.000  O
  O1371    1.0000 0.27755  0.12112  0.59383  Biso   1.000  O
  O1372    1.0000 0.27450  0.08950  0.62206  Biso   1.000  O
  O1373    1.0000 0.34302  0.02603  0.62499  Biso   1.000  O
  O1374    1.0000 0.37274  0.02602  0.59464  Biso   1.000  O
  O1375    1.0000 0.27773  0.12709  0.65841  Biso   1.000  O
  O1376    1.0000 0.27469  0.15889  0.63051  Biso   1.000  O
  C2053    1.0000 0.35042  0.09900  0.53507  Biso   1.000  C
  C2054    1.0000 0.33837  0.08689  0.55790  Biso   1.000  C
  C2055    1.0000 0.31702  0.09778  0.56855  Biso   1.000  C
  H685     1.0000 0.30950  0.11240  0.56100  Biso   1.000  H
  C2056    1.0000 0.30652  0.08720  0.59057  Biso   1.000  C
  C2057    1.0000 0.31791  0.06637  0.60219  Biso   1.000  C
  H686     1.0000 0.31090  0.05960  0.61740  Biso   1.000  H
  C2058    1.0000 0.33934  0.05543  0.59170  Biso   1.000  C
  C2059    1.0000 0.34972  0.06555  0.56919  Biso   1.000  C
  H687     1.0000 0.36430  0.05800  0.56170  Biso   1.000  H
  C2060    1.0000 0.28445  0.10023  0.60312  Biso   1.000  C
  C2061    1.0000 0.35269  0.03408  0.60500  Biso   1.000  C
  C2062    1.0000 0.28384  0.14812  0.64933  Biso   1.000  C
  C2063    1.0000 0.30554  0.16114  0.66217  Biso   1.000  C
  C2064    1.0000 0.31613  0.18314  0.65094  Biso   1.000  C
  H688     1.0000 0.30840  0.19030  0.63630  Biso   1.000  H
  Cu173    1.0000 0.25030  0.60759  0.35720  Biso   1.000  Cu
  O1377    1.0000 0.12976  0.58885  0.47370  Biso   1.000  O
  O1378    1.0000 0.16002  0.61847  0.47345  Biso   1.000  O
  O1379    1.0000 0.22245  0.62112  0.40617  Biso   1.000  O
  O1380    1.0000 0.22550  0.58950  0.37794  Biso   1.000  O
  O1381    1.0000 0.15698  0.52603  0.37501  Biso   1.000  O
  O1382    1.0000 0.12726  0.52602  0.40536  Biso   1.000  O
  O1383    1.0000 0.22227  0.62709  0.34159  Biso   1.000  O
  O1384    1.0000 0.22531  0.65889  0.36949  Biso   1.000  O
  C2065    1.0000 0.14958  0.59900  0.46493  Biso   1.000  C
  C2066    1.0000 0.16163  0.58689  0.44210  Biso   1.000  C
  C2067    1.0000 0.18298  0.59778  0.43145  Biso   1.000  C
  H689     1.0000 0.19050  0.61240  0.43900  Biso   1.000  H
  C2068    1.0000 0.19348  0.58720  0.40943  Biso   1.000  C
  C2069    1.0000 0.18209  0.56637  0.39781  Biso   1.000  C
  H690     1.0000 0.18910  0.55960  0.38260  Biso   1.000  H
  C2070    1.0000 0.16066  0.55543  0.40830  Biso   1.000  C
  C2071    1.0000 0.15028  0.56555  0.43081  Biso   1.000  C
  H691     1.0000 0.13570  0.55800  0.43830  Biso   1.000  H
  C2072    1.0000 0.21555  0.60023  0.39688  Biso   1.000  C
  C2073    1.0000 0.14731  0.53408  0.39500  Biso   1.000  C
  C2074    1.0000 0.21616  0.64812  0.35067  Biso   1.000  C
  C2075    1.0000 0.19446  0.66114  0.33783  Biso   1.000  C
  C2076    1.0000 0.18387  0.68314  0.34906  Biso   1.000  C
  H692     1.0000 0.19160  0.69030  0.36370  Biso   1.000  H
  Cu174    1.0000 0.25030  0.10759  0.85720  Biso   1.000  Cu
  O1385    1.0000 0.12976  0.08885  0.97370  Biso   1.000  O
  O1386    1.0000 0.16002  0.11847  0.97345  Biso   1.000  O
  O1387    1.0000 0.22245  0.12112  0.90617  Biso   1.000  O
  O1388    1.0000 0.22550  0.08950  0.87794  Biso   1.000  O
  O1389    1.0000 0.15698  0.02603  0.87501  Biso   1.000  O
  O1390    1.0000 0.12726  0.02602  0.90536  Biso   1.000  O
  O1391    1.0000 0.22227  0.12709  0.84159  Biso   1.000  O
  O1392    1.0000 0.22531  0.15889  0.86949  Biso   1.000  O
  C2077    1.0000 0.14958  0.09900  0.96493  Biso   1.000  C
  C2078    1.0000 0.16163  0.08689  0.94210  Biso   1.000  C
  C2079    1.0000 0.18298  0.09778  0.93145  Biso   1.000  C
  H693     1.0000 0.19050  0.11240  0.93900  Biso   1.000  H
  C2080    1.0000 0.19348  0.08720  0.90943  Biso   1.000  C
  C2081    1.0000 0.18209  0.06637  0.89781  Biso   1.000  C
  H694     1.0000 0.18910  0.05960  0.88260  Biso   1.000  H
  C2082    1.0000 0.16066  0.05543  0.90830  Biso   1.000  C
  C2083    1.0000 0.15028  0.06555  0.93081  Biso   1.000  C
  H695     1.0000 0.13570  0.05800  0.93830  Biso   1.000  H
  C2084    1.0000 0.21555  0.10023  0.89688  Biso   1.000  C
  C2085    1.0000 0.14731  0.03408  0.89500  Biso   1.000  C
  C2086    1.0000 0.21616  0.14812  0.85067  Biso   1.000  C
  C2087    1.0000 0.19446  0.16114  0.83783  Biso   1.000  C
  C2088    1.0000 0.18387  0.18314  0.84906  Biso   1.000  C
  H696     1.0000 0.19160  0.19030  0.86370  Biso   1.000  H
  Cu175    1.0000 0.75030  0.60759  0.85720  Biso   1.000  Cu
  O1393    1.0000 0.62976  0.58885  0.97370  Biso   1.000  O
  O1394    1.0000 0.66002  0.61847  0.97345  Biso   1.000  O
  O1395    1.0000 0.72245  0.62112  0.90617  Biso   1.000  O
  O1396    1.0000 0.72550  0.58950  0.87794  Biso   1.000  O
  O1397    1.0000 0.65698  0.52603  0.87501  Biso   1.000  O
  O1398    1.0000 0.62726  0.52602  0.90536  Biso   1.000  O
  O1399    1.0000 0.72227  0.62709  0.84159  Biso   1.000  O
  O1400    1.0000 0.72531  0.65889  0.86949  Biso   1.000  O
  C2089    1.0000 0.64958  0.59900  0.96493  Biso   1.000  C
  C2090    1.0000 0.66163  0.58689  0.94210  Biso   1.000  C
  C2091    1.0000 0.68298  0.59778  0.93145  Biso   1.000  C
  H697     1.0000 0.69050  0.61240  0.93900  Biso   1.000  H
  C2092    1.0000 0.69348  0.58720  0.90943  Biso   1.000  C
  C2093    1.0000 0.68209  0.56637  0.89781  Biso   1.000  C
  H698     1.0000 0.68910  0.55960  0.88260  Biso   1.000  H
  C2094    1.0000 0.66066  0.55543  0.90830  Biso   1.000  C
  C2095    1.0000 0.65028  0.56555  0.93081  Biso   1.000  C
  H699     1.0000 0.63570  0.55800  0.93830  Biso   1.000  H
  C2096    1.0000 0.71555  0.60023  0.89688  Biso   1.000  C
  C2097    1.0000 0.64731  0.53408  0.89500  Biso   1.000  C
  C2098    1.0000 0.71616  0.64812  0.85067  Biso   1.000  C
  C2099    1.0000 0.69446  0.66114  0.83783  Biso   1.000  C
  C2100    1.0000 0.68387  0.68314  0.84906  Biso   1.000  C
  H700     1.0000 0.69160  0.69030  0.86370  Biso   1.000  H
  Cu176    1.0000 0.75030  0.10759  0.35720  Biso   1.000  Cu
  O1401    1.0000 0.62976  0.08885  0.47370  Biso   1.000  O
  O1402    1.0000 0.66002  0.11847  0.47345  Biso   1.000  O
  O1403    1.0000 0.72245  0.12112  0.40617  Biso   1.000  O
  O1404    1.0000 0.72550  0.08950  0.37794  Biso   1.000  O
  O1405    1.0000 0.65698  0.02603  0.37501  Biso   1.000  O
  O1406    1.0000 0.62726  0.02602  0.40536  Biso   1.000  O
  O1407    1.0000 0.72227  0.12709  0.34159  Biso   1.000  O
  O1408    1.0000 0.72531  0.15889  0.36949  Biso   1.000  O
  C2101    1.0000 0.64958  0.09900  0.46493  Biso   1.000  C
  C2102    1.0000 0.66163  0.08689  0.44210  Biso   1.000  C
  C2103    1.0000 0.68298  0.09778  0.43145  Biso   1.000  C
  H701     1.0000 0.69050  0.11240  0.43900  Biso   1.000  H
  C2104    1.0000 0.69348  0.08720  0.40943  Biso   1.000  C
  C2105    1.0000 0.68209  0.06637  0.39781  Biso   1.000  C
  H702     1.0000 0.68910  0.05960  0.38260  Biso   1.000  H
  C2106    1.0000 0.66066  0.05543  0.40830  Biso   1.000  C
  C2107    1.0000 0.65028  0.06555  0.43081  Biso   1.000  C
  H703     1.0000 0.63570  0.05800  0.43830  Biso   1.000  H
  C2108    1.0000 0.71555  0.10023  0.39688  Biso   1.000  C
  C2109    1.0000 0.64731  0.03408  0.39500  Biso   1.000  C
  C2110    1.0000 0.71616  0.14812  0.35067  Biso   1.000  C
  C2111    1.0000 0.69446  0.16114  0.33783  Biso   1.000  C
  C2112    1.0000 0.68387  0.18314  0.34906  Biso   1.000  C
  H704     1.0000 0.69160  0.19030  0.36370  Biso   1.000  H
  Cu177    1.0000 0.39241  0.35720  0.74970  Biso   1.000  Cu
  O1409    1.0000 0.41115  0.47370  0.87024  Biso   1.000  O
  O1410    1.0000 0.38153  0.47345  0.83998  Biso   1.000  O
  O1411    1.0000 0.37888  0.40617  0.77755  Biso   1.000  O
  O1412    1.0000 0.41050  0.37794  0.77450  Biso   1.000  O
  O1413    1.0000 0.47397  0.37501  0.84302  Biso   1.000  O
  O1414    1.0000 0.47398  0.40536  0.87274  Biso   1.000  O
  O1415    1.0000 0.37291  0.34159  0.77773  Biso   1.000  O
  O1416    1.0000 0.34111  0.36949  0.77469  Biso   1.000  O
  C2113    1.0000 0.40100  0.46493  0.85042  Biso   1.000  C
  C2114    1.0000 0.41311  0.44210  0.83837  Biso   1.000  C
  C2115    1.0000 0.40222  0.43145  0.81702  Biso   1.000  C
  H705     1.0000 0.38760  0.43900  0.80950  Biso   1.000  H
  C2116    1.0000 0.41280  0.40943  0.80652  Biso   1.000  C
  C2117    1.0000 0.43363  0.39781  0.81791  Biso   1.000  C
  H706     1.0000 0.44040  0.38260  0.81090  Biso   1.000  H
  C2118    1.0000 0.44457  0.40830  0.83934  Biso   1.000  C
  C2119    1.0000 0.43445  0.43081  0.84972  Biso   1.000  C
  H707     1.0000 0.44200  0.43830  0.86430  Biso   1.000  H
  C2120    1.0000 0.39977  0.39688  0.78445  Biso   1.000  C
  C2121    1.0000 0.46592  0.39500  0.85269  Biso   1.000  C
  C2122    1.0000 0.35188  0.35067  0.78384  Biso   1.000  C
  C2123    1.0000 0.33886  0.33783  0.80554  Biso   1.000  C
  C2124    1.0000 0.31686  0.34906  0.81613  Biso   1.000  C
  H708     1.0000 0.30970  0.36370  0.80840  Biso   1.000  H
  Cu178    1.0000 0.39241  0.85720  0.24970  Biso   1.000  Cu
  O1417    1.0000 0.41115  0.97370  0.37024  Biso   1.000  O
  O1418    1.0000 0.38153  0.97345  0.33998  Biso   1.000  O
  O1419    1.0000 0.37888  0.90617  0.27755  Biso   1.000  O
  O1420    1.0000 0.41050  0.87794  0.27450  Biso   1.000  O
  O1421    1.0000 0.47397  0.87501  0.34302  Biso   1.000  O
  O1422    1.0000 0.47398  0.90536  0.37274  Biso   1.000  O
  O1423    1.0000 0.37291  0.84159  0.27773  Biso   1.000  O
  O1424    1.0000 0.34111  0.86949  0.27469  Biso   1.000  O
  C2125    1.0000 0.40100  0.96493  0.35042  Biso   1.000  C
  C2126    1.0000 0.41311  0.94210  0.33837  Biso   1.000  C
  C2127    1.0000 0.40222  0.93145  0.31702  Biso   1.000  C
  H709     1.0000 0.38760  0.93900  0.30950  Biso   1.000  H
  C2128    1.0000 0.41280  0.90943  0.30652  Biso   1.000  C
  C2129    1.0000 0.43363  0.89781  0.31791  Biso   1.000  C
  H710     1.0000 0.44040  0.88260  0.31090  Biso   1.000  H
  C2130    1.0000 0.44457  0.90830  0.33934  Biso   1.000  C
  C2131    1.0000 0.43445  0.93081  0.34972  Biso   1.000  C
  H711     1.0000 0.44200  0.93830  0.36430  Biso   1.000  H
  C2132    1.0000 0.39977  0.89688  0.28445  Biso   1.000  C
  C2133    1.0000 0.46592  0.89500  0.35269  Biso   1.000  C
  C2134    1.0000 0.35188  0.85067  0.28384  Biso   1.000  C
  C2135    1.0000 0.33886  0.83783  0.30554  Biso   1.000  C
  C2136    1.0000 0.31686  0.84906  0.31613  Biso   1.000  C
  H712     1.0000 0.30970  0.86370  0.30840  Biso   1.000  H
  Cu179    1.0000 0.89241  0.35720  0.24970  Biso   1.000  Cu
  O1425    1.0000 0.91115  0.47370  0.37024  Biso   1.000  O
  O1426    1.0000 0.88153  0.47345  0.33998  Biso   1.000  O
  O1427    1.0000 0.87888  0.40617  0.27755  Biso   1.000  O
  O1428    1.0000 0.91050  0.37794  0.27450  Biso   1.000  O
  O1429    1.0000 0.97397  0.37501  0.34302  Biso   1.000  O
  O1430    1.0000 0.97398  0.40536  0.37274  Biso   1.000  O
  O1431    1.0000 0.87291  0.34159  0.27773  Biso   1.000  O
  O1432    1.0000 0.84111  0.36949  0.27469  Biso   1.000  O
  C2137    1.0000 0.90100  0.46493  0.35042  Biso   1.000  C
  C2138    1.0000 0.91311  0.44210  0.33837  Biso   1.000  C
  C2139    1.0000 0.90222  0.43145  0.31702  Biso   1.000  C
  H713     1.0000 0.88760  0.43900  0.30950  Biso   1.000  H
  C2140    1.0000 0.91280  0.40943  0.30652  Biso   1.000  C
  C2141    1.0000 0.93363  0.39781  0.31791  Biso   1.000  C
  H714     1.0000 0.94040  0.38260  0.31090  Biso   1.000  H
  C2142    1.0000 0.94457  0.40830  0.33934  Biso   1.000  C
  C2143    1.0000 0.93445  0.43081  0.34972  Biso   1.000  C
  H715     1.0000 0.94200  0.43830  0.36430  Biso   1.000  H
  C2144    1.0000 0.89977  0.39688  0.28445  Biso   1.000  C
  C2145    1.0000 0.96592  0.39500  0.35269  Biso   1.000  C
  C2146    1.0000 0.85188  0.35067  0.28384  Biso   1.000  C
  C2147    1.0000 0.83886  0.33783  0.30554  Biso   1.000  C
  C2148    1.0000 0.81686  0.34906  0.31613  Biso   1.000  C
  H716     1.0000 0.80970  0.36370  0.30840  Biso   1.000  H
  Cu180    1.0000 0.89241  0.85720  0.74970  Biso   1.000  Cu
  O1433    1.0000 0.91115  0.97370  0.87024  Biso   1.000  O
  O1434    1.0000 0.88153  0.97345  0.83998  Biso   1.000  O
  O1435    1.0000 0.87888  0.90617  0.77755  Biso   1.000  O
  O1436    1.0000 0.91050  0.87794  0.77450  Biso   1.000  O
  O1437    1.0000 0.97397  0.87501  0.84302  Biso   1.000  O
  O1438    1.0000 0.97398  0.90536  0.87274  Biso   1.000  O
  O1439    1.0000 0.87291  0.84159  0.77773  Biso   1.000  O
  O1440    1.0000 0.84111  0.86949  0.77469  Biso   1.000  O
  C2149    1.0000 0.90100  0.96493  0.85042  Biso   1.000  C
  C2150    1.0000 0.91311  0.94210  0.83837  Biso   1.000  C
  C2151    1.0000 0.90222  0.93145  0.81702  Biso   1.000  C
  H717     1.0000 0.88760  0.93900  0.80950  Biso   1.000  H
  C2152    1.0000 0.91280  0.90943  0.80652  Biso   1.000  C
  C2153    1.0000 0.93363  0.89781  0.81791  Biso   1.000  C
  H718     1.0000 0.94040  0.88260  0.81090  Biso   1.000  H
  C2154    1.0000 0.94457  0.90830  0.83934  Biso   1.000  C
  C2155    1.0000 0.93445  0.93081  0.84972  Biso   1.000  C
  H719     1.0000 0.94200  0.93830  0.86430  Biso   1.000  H
  C2156    1.0000 0.89977  0.89688  0.78445  Biso   1.000  C
  C2157    1.0000 0.96592  0.89500  0.85269  Biso   1.000  C
  C2158    1.0000 0.85188  0.85067  0.78384  Biso   1.000  C
  C2159    1.0000 0.83886  0.83783  0.80554  Biso   1.000  C
  C2160    1.0000 0.81686  0.84906  0.81613  Biso   1.000  C
  H720     1.0000 0.80970  0.86370  0.80840  Biso   1.000  H
  Cu181    1.0000 0.39241  0.64280  0.25030  Biso   1.000  Cu
  O1441    1.0000 0.41115  0.52630  0.12976  Biso   1.000  O
  O1442    1.0000 0.38153  0.52655  0.16002  Biso   1.000  O
  O1443    1.0000 0.37888  0.59383  0.22245  Biso   1.000  O
  O1444    1.0000 0.41050  0.62206  0.22550  Biso   1.000  O
  O1445    1.0000 0.47397  0.62499  0.15698  Biso   1.000  O
  O1446    1.0000 0.47398  0.59464  0.12726  Biso   1.000  O
  O1447    1.0000 0.37291  0.65841  0.22227  Biso   1.000  O
  O1448    1.0000 0.34111  0.63051  0.22531  Biso   1.000  O
  C2161    1.0000 0.40100  0.53507  0.14958  Biso   1.000  C
  C2162    1.0000 0.41311  0.55790  0.16163  Biso   1.000  C
  C2163    1.0000 0.40222  0.56855  0.18298  Biso   1.000  C
  H721     1.0000 0.38760  0.56100  0.19050  Biso   1.000  H
  C2164    1.0000 0.41280  0.59057  0.19348  Biso   1.000  C
  C2165    1.0000 0.43363  0.60219  0.18209  Biso   1.000  C
  H722     1.0000 0.44040  0.61740  0.18910  Biso   1.000  H
  C2166    1.0000 0.44457  0.59170  0.16066  Biso   1.000  C
  C2167    1.0000 0.43445  0.56919  0.15028  Biso   1.000  C
  H723     1.0000 0.44200  0.56170  0.13570  Biso   1.000  H
  C2168    1.0000 0.39977  0.60312  0.21555  Biso   1.000  C
  C2169    1.0000 0.46592  0.60500  0.14731  Biso   1.000  C
  C2170    1.0000 0.35188  0.64933  0.21616  Biso   1.000  C
  C2171    1.0000 0.33886  0.66217  0.19446  Biso   1.000  C
  C2172    1.0000 0.31686  0.65094  0.18387  Biso   1.000  C
  H724     1.0000 0.30970  0.63630  0.19160  Biso   1.000  H
  Cu182    1.0000 0.39241  0.14280  0.75030  Biso   1.000  Cu
  O1449    1.0000 0.41115  0.02630  0.62976  Biso   1.000  O
  O1450    1.0000 0.38153  0.02655  0.66002  Biso   1.000  O
  O1451    1.0000 0.37888  0.09383  0.72245  Biso   1.000  O
  O1452    1.0000 0.41050  0.12206  0.72550  Biso   1.000  O
  O1453    1.0000 0.47397  0.12499  0.65698  Biso   1.000  O
  O1454    1.0000 0.47398  0.09464  0.62726  Biso   1.000  O
  O1455    1.0000 0.37291  0.15841  0.72227  Biso   1.000  O
  O1456    1.0000 0.34111  0.13051  0.72531  Biso   1.000  O
  C2173    1.0000 0.40100  0.03507  0.64958  Biso   1.000  C
  C2174    1.0000 0.41311  0.05790  0.66163  Biso   1.000  C
  C2175    1.0000 0.40222  0.06855  0.68298  Biso   1.000  C
  H725     1.0000 0.38760  0.06100  0.69050  Biso   1.000  H
  C2176    1.0000 0.41280  0.09057  0.69348  Biso   1.000  C
  C2177    1.0000 0.43363  0.10219  0.68209  Biso   1.000  C
  H726     1.0000 0.44040  0.11740  0.68910  Biso   1.000  H
  C2178    1.0000 0.44457  0.09170  0.66066  Biso   1.000  C
  C2179    1.0000 0.43445  0.06919  0.65028  Biso   1.000  C
  H727     1.0000 0.44200  0.06170  0.63570  Biso   1.000  H
  C2180    1.0000 0.39977  0.10312  0.71555  Biso   1.000  C
  C2181    1.0000 0.46592  0.10500  0.64731  Biso   1.000  C
  C2182    1.0000 0.35188  0.14933  0.71616  Biso   1.000  C
  C2183    1.0000 0.33886  0.16217  0.69446  Biso   1.000  C
  C2184    1.0000 0.31686  0.15094  0.68387  Biso   1.000  C
  H728     1.0000 0.30970  0.13630  0.69160  Biso   1.000  H
  Cu183    1.0000 0.89241  0.64280  0.75030  Biso   1.000  Cu
  O1457    1.0000 0.91115  0.52630  0.62976  Biso   1.000  O
  O1458    1.0000 0.88153  0.52655  0.66002  Biso   1.000  O
  O1459    1.0000 0.87888  0.59383  0.72245  Biso   1.000  O
  O1460    1.0000 0.91050  0.62206  0.72550  Biso   1.000  O
  O1461    1.0000 0.97397  0.62499  0.65698  Biso   1.000  O
  O1462    1.0000 0.97398  0.59464  0.62726  Biso   1.000  O
  O1463    1.0000 0.87291  0.65841  0.72227  Biso   1.000  O
  O1464    1.0000 0.84111  0.63051  0.72531  Biso   1.000  O
  C2185    1.0000 0.90100  0.53507  0.64958  Biso   1.000  C
  C2186    1.0000 0.91311  0.55790  0.66163  Biso   1.000  C
  C2187    1.0000 0.90222  0.56855  0.68298  Biso   1.000  C
  H729     1.0000 0.88760  0.56100  0.69050  Biso   1.000  H
  C2188    1.0000 0.91280  0.59057  0.69348  Biso   1.000  C
  C2189    1.0000 0.93363  0.60219  0.68209  Biso   1.000  C
  H730     1.0000 0.94040  0.61740  0.68910  Biso   1.000  H
  C2190    1.0000 0.94457  0.59170  0.66066  Biso   1.000  C
  C2191    1.0000 0.93445  0.56919  0.65028  Biso   1.000  C
  H731     1.0000 0.94200  0.56170  0.63570  Biso   1.000  H
  C2192    1.0000 0.89977  0.60312  0.71555  Biso   1.000  C
  C2193    1.0000 0.96592  0.60500  0.64731  Biso   1.000  C
  C2194    1.0000 0.85188  0.64933  0.71616  Biso   1.000  C
  C2195    1.0000 0.83886  0.66217  0.69446  Biso   1.000  C
  C2196    1.0000 0.81686  0.65094  0.68387  Biso   1.000  C
  H732     1.0000 0.80970  0.63630  0.69160  Biso   1.000  H
  Cu184    1.0000 0.89241  0.14280  0.25030  Biso   1.000  Cu
  O1465    1.0000 0.91115  0.02630  0.12976  Biso   1.000  O
  O1466    1.0000 0.88153  0.02655  0.16002  Biso   1.000  O
  O1467    1.0000 0.87888  0.09383  0.22245  Biso   1.000  O
  O1468    1.0000 0.91050  0.12206  0.22550  Biso   1.000  O
  O1469    1.0000 0.97397  0.12499  0.15698  Biso   1.000  O
  O1470    1.0000 0.97398  0.09464  0.12726  Biso   1.000  O
  O1471    1.0000 0.87291  0.15841  0.22227  Biso   1.000  O
  O1472    1.0000 0.84111  0.13051  0.22531  Biso   1.000  O
  C2197    1.0000 0.90100  0.03507  0.14958  Biso   1.000  C
  C2198    1.0000 0.91311  0.05790  0.16163  Biso   1.000  C
  C2199    1.0000 0.90222  0.06855  0.18298  Biso   1.000  C
  H733     1.0000 0.88760  0.06100  0.19050  Biso   1.000  H
  C2200    1.0000 0.91280  0.09057  0.19348  Biso   1.000  C
  C2201    1.0000 0.93363  0.10219  0.18209  Biso   1.000  C
  H734     1.0000 0.94040  0.11740  0.18910  Biso   1.000  H
  C2202    1.0000 0.94457  0.09170  0.16066  Biso   1.000  C
  C2203    1.0000 0.93445  0.06919  0.15028  Biso   1.000  C
  H735     1.0000 0.94200  0.06170  0.13570  Biso   1.000  H
  C2204    1.0000 0.89977  0.10312  0.21555  Biso   1.000  C
  C2205    1.0000 0.96592  0.10500  0.14731  Biso   1.000  C
  C2206    1.0000 0.85188  0.14933  0.21616  Biso   1.000  C
  C2207    1.0000 0.83886  0.16217  0.19446  Biso   1.000  C
  C2208    1.0000 0.81686  0.15094  0.18387  Biso   1.000  C
  H736     1.0000 0.80970  0.13630  0.19160  Biso   1.000  H
  Cu185    1.0000 0.60759  0.35720  0.25030  Biso   1.000  Cu
  O1473    1.0000 0.58885  0.47370  0.12976  Biso   1.000  O
  O1474    1.0000 0.61847  0.47345  0.16002  Biso   1.000  O
  O1475    1.0000 0.62112  0.40617  0.22245  Biso   1.000  O
  O1476    1.0000 0.58950  0.37794  0.22550  Biso   1.000  O
  O1477    1.0000 0.52603  0.37501  0.15698  Biso   1.000  O
  O1478    1.0000 0.52602  0.40536  0.12726  Biso   1.000  O
  O1479    1.0000 0.62709  0.34159  0.22227  Biso   1.000  O
  O1480    1.0000 0.65889  0.36949  0.22531  Biso   1.000  O
  C2209    1.0000 0.59900  0.46493  0.14958  Biso   1.000  C
  C2210    1.0000 0.58689  0.44210  0.16163  Biso   1.000  C
  C2211    1.0000 0.59778  0.43145  0.18298  Biso   1.000  C
  H737     1.0000 0.61240  0.43900  0.19050  Biso   1.000  H
  C2212    1.0000 0.58720  0.40943  0.19348  Biso   1.000  C
  C2213    1.0000 0.56637  0.39781  0.18209  Biso   1.000  C
  H738     1.0000 0.55960  0.38260  0.18910  Biso   1.000  H
  C2214    1.0000 0.55543  0.40830  0.16066  Biso   1.000  C
  C2215    1.0000 0.56555  0.43081  0.15028  Biso   1.000  C
  H739     1.0000 0.55800  0.43830  0.13570  Biso   1.000  H
  C2216    1.0000 0.60023  0.39688  0.21555  Biso   1.000  C
  C2217    1.0000 0.53408  0.39500  0.14731  Biso   1.000  C
  C2218    1.0000 0.64812  0.35067  0.21616  Biso   1.000  C
  C2219    1.0000 0.66114  0.33783  0.19446  Biso   1.000  C
  C2220    1.0000 0.68314  0.34906  0.18387  Biso   1.000  C
  H740     1.0000 0.69030  0.36370  0.19160  Biso   1.000  H
  Cu186    1.0000 0.60759  0.85720  0.75030  Biso   1.000  Cu
  O1481    1.0000 0.58885  0.97370  0.62976  Biso   1.000  O
  O1482    1.0000 0.61847  0.97345  0.66002  Biso   1.000  O
  O1483    1.0000 0.62112  0.90617  0.72245  Biso   1.000  O
  O1484    1.0000 0.58950  0.87794  0.72550  Biso   1.000  O
  O1485    1.0000 0.52603  0.87501  0.65698  Biso   1.000  O
  O1486    1.0000 0.52602  0.90536  0.62726  Biso   1.000  O
  O1487    1.0000 0.62709  0.84159  0.72227  Biso   1.000  O
  O1488    1.0000 0.65889  0.86949  0.72531  Biso   1.000  O
  C2221    1.0000 0.59900  0.96493  0.64958  Biso   1.000  C
  C2222    1.0000 0.58689  0.94210  0.66163  Biso   1.000  C
  C2223    1.0000 0.59778  0.93145  0.68298  Biso   1.000  C
  H741     1.0000 0.61240  0.93900  0.69050  Biso   1.000  H
  C2224    1.0000 0.58720  0.90943  0.69348  Biso   1.000  C
  C2225    1.0000 0.56637  0.89781  0.68209  Biso   1.000  C
  H742     1.0000 0.55960  0.88260  0.68910  Biso   1.000  H
  C2226    1.0000 0.55543  0.90830  0.66066  Biso   1.000  C
  C2227    1.0000 0.56555  0.93081  0.65028  Biso   1.000  C
  H743     1.0000 0.55800  0.93830  0.63570  Biso   1.000  H
  C2228    1.0000 0.60023  0.89688  0.71555  Biso   1.000  C
  C2229    1.0000 0.53408  0.89500  0.64731  Biso   1.000  C
  C2230    1.0000 0.64812  0.85067  0.71616  Biso   1.000  C
  C2231    1.0000 0.66114  0.83783  0.69446  Biso   1.000  C
  C2232    1.0000 0.68314  0.84906  0.68387  Biso   1.000  C
  H744     1.0000 0.69030  0.86370  0.69160  Biso   1.000  H
  Cu187    1.0000 0.10759  0.35720  0.75030  Biso   1.000  Cu
  O1489    1.0000 0.08885  0.47370  0.62976  Biso   1.000  O
  O1490    1.0000 0.11847  0.47345  0.66002  Biso   1.000  O
  O1491    1.0000 0.12112  0.40617  0.72245  Biso   1.000  O
  O1492    1.0000 0.08950  0.37794  0.72550  Biso   1.000  O
  O1493    1.0000 0.02603  0.37501  0.65698  Biso   1.000  O
  O1494    1.0000 0.02602  0.40536  0.62726  Biso   1.000  O
  O1495    1.0000 0.12709  0.34159  0.72227  Biso   1.000  O
  O1496    1.0000 0.15889  0.36949  0.72531  Biso   1.000  O
  C2233    1.0000 0.09900  0.46493  0.64958  Biso   1.000  C
  C2234    1.0000 0.08689  0.44210  0.66163  Biso   1.000  C
  C2235    1.0000 0.09778  0.43145  0.68298  Biso   1.000  C
  H745     1.0000 0.11240  0.43900  0.69050  Biso   1.000  H
  C2236    1.0000 0.08720  0.40943  0.69348  Biso   1.000  C
  C2237    1.0000 0.06637  0.39781  0.68209  Biso   1.000  C
  H746     1.0000 0.05960  0.38260  0.68910  Biso   1.000  H
  C2238    1.0000 0.05543  0.40830  0.66066  Biso   1.000  C
  C2239    1.0000 0.06555  0.43081  0.65028  Biso   1.000  C
  H747     1.0000 0.05800  0.43830  0.63570  Biso   1.000  H
  C2240    1.0000 0.10023  0.39688  0.71555  Biso   1.000  C
  C2241    1.0000 0.03408  0.39500  0.64731  Biso   1.000  C
  C2242    1.0000 0.14812  0.35067  0.71616  Biso   1.000  C
  C2243    1.0000 0.16114  0.33783  0.69446  Biso   1.000  C
  C2244    1.0000 0.18314  0.34906  0.68387  Biso   1.000  C
  H748     1.0000 0.19030  0.36370  0.69160  Biso   1.000  H
  Cu188    1.0000 0.10759  0.85720  0.25030  Biso   1.000  Cu
  O1497    1.0000 0.08885  0.97370  0.12976  Biso   1.000  O
  O1498    1.0000 0.11847  0.97345  0.16002  Biso   1.000  O
  O1499    1.0000 0.12112  0.90617  0.22245  Biso   1.000  O
  O1500    1.0000 0.08950  0.87794  0.22550  Biso   1.000  O
  O1501    1.0000 0.02603  0.87501  0.15698  Biso   1.000  O
  O1502    1.0000 0.02602  0.90536  0.12726  Biso   1.000  O
  O1503    1.0000 0.12709  0.84159  0.22227  Biso   1.000  O
  O1504    1.0000 0.15889  0.86949  0.22531  Biso   1.000  O
  C2245    1.0000 0.09900  0.96493  0.14958  Biso   1.000  C
  C2246    1.0000 0.08689  0.94210  0.16163  Biso   1.000  C
  C2247    1.0000 0.09778  0.93145  0.18298  Biso   1.000  C
  H749     1.0000 0.11240  0.93900  0.19050  Biso   1.000  H
  C2248    1.0000 0.08720  0.90943  0.19348  Biso   1.000  C
  C2249    1.0000 0.06637  0.89781  0.18209  Biso   1.000  C
  H750     1.0000 0.05960  0.88260  0.18910  Biso   1.000  H
  C2250    1.0000 0.05543  0.90830  0.16066  Biso   1.000  C
  C2251    1.0000 0.06555  0.93081  0.15028  Biso   1.000  C
  H751     1.0000 0.05800  0.93830  0.13570  Biso   1.000  H
  C2252    1.0000 0.10023  0.89688  0.21555  Biso   1.000  C
  C2253    1.0000 0.03408  0.89500  0.14731  Biso   1.000  C
  C2254    1.0000 0.14812  0.85067  0.21616  Biso   1.000  C
  C2255    1.0000 0.16114  0.83783  0.19446  Biso   1.000  C
  C2256    1.0000 0.18314  0.84906  0.18387  Biso   1.000  C
  H752     1.0000 0.19030  0.86370  0.19160  Biso   1.000  H
  Cu189    1.0000 0.60759  0.64280  0.74970  Biso   1.000  Cu
  O1505    1.0000 0.58885  0.52630  0.87024  Biso   1.000  O
  O1506    1.0000 0.61847  0.52655  0.83998  Biso   1.000  O
  O1507    1.0000 0.62112  0.59383  0.77755  Biso   1.000  O
  O1508    1.0000 0.58950  0.62206  0.77450  Biso   1.000  O
  O1509    1.0000 0.52603  0.62499  0.84302  Biso   1.000  O
  O1510    1.0000 0.52602  0.59464  0.87274  Biso   1.000  O
  O1511    1.0000 0.62709  0.65841  0.77773  Biso   1.000  O
  O1512    1.0000 0.65889  0.63051  0.77469  Biso   1.000  O
  C2257    1.0000 0.59900  0.53507  0.85042  Biso   1.000  C
  C2258    1.0000 0.58689  0.55790  0.83837  Biso   1.000  C
  C2259    1.0000 0.59778  0.56855  0.81702  Biso   1.000  C
  H753     1.0000 0.61240  0.56100  0.80950  Biso   1.000  H
  C2260    1.0000 0.58720  0.59057  0.80652  Biso   1.000  C
  C2261    1.0000 0.56637  0.60219  0.81791  Biso   1.000  C
  H754     1.0000 0.55960  0.61740  0.81090  Biso   1.000  H
  C2262    1.0000 0.55543  0.59170  0.83934  Biso   1.000  C
  C2263    1.0000 0.56555  0.56919  0.84972  Biso   1.000  C
  H755     1.0000 0.55800  0.56170  0.86430  Biso   1.000  H
  C2264    1.0000 0.60023  0.60312  0.78445  Biso   1.000  C
  C2265    1.0000 0.53408  0.60500  0.85269  Biso   1.000  C
  C2266    1.0000 0.64812  0.64933  0.78384  Biso   1.000  C
  C2267    1.0000 0.66114  0.66217  0.80554  Biso   1.000  C
  C2268    1.0000 0.68314  0.65094  0.81613  Biso   1.000  C
  H756     1.0000 0.69030  0.63630  0.80840  Biso   1.000  H
  Cu190    1.0000 0.60759  0.14280  0.24970  Biso   1.000  Cu
  O1513    1.0000 0.58885  0.02630  0.37024  Biso   1.000  O
  O1514    1.0000 0.61847  0.02655  0.33998  Biso   1.000  O
  O1515    1.0000 0.62112  0.09383  0.27755  Biso   1.000  O
  O1516    1.0000 0.58950  0.12206  0.27450  Biso   1.000  O
  O1517    1.0000 0.52603  0.12499  0.34302  Biso   1.000  O
  O1518    1.0000 0.52602  0.09464  0.37274  Biso   1.000  O
  O1519    1.0000 0.62709  0.15841  0.27773  Biso   1.000  O
  O1520    1.0000 0.65889  0.13051  0.27469  Biso   1.000  O
  C2269    1.0000 0.59900  0.03507  0.35042  Biso   1.000  C
  C2270    1.0000 0.58689  0.05790  0.33837  Biso   1.000  C
  C2271    1.0000 0.59778  0.06855  0.31702  Biso   1.000  C
  H757     1.0000 0.61240  0.06100  0.30950  Biso   1.000  H
  C2272    1.0000 0.58720  0.09057  0.30652  Biso   1.000  C
  C2273    1.0000 0.56637  0.10219  0.31791  Biso   1.000  C
  H758     1.0000 0.55960  0.11740  0.31090  Biso   1.000  H
  C2274    1.0000 0.55543  0.09170  0.33934  Biso   1.000  C
  C2275    1.0000 0.56555  0.06919  0.34972  Biso   1.000  C
  H759     1.0000 0.55800  0.06170  0.36430  Biso   1.000  H
  C2276    1.0000 0.60023  0.10312  0.28445  Biso   1.000  C
  C2277    1.0000 0.53408  0.10500  0.35269  Biso   1.000  C
  C2278    1.0000 0.64812  0.14933  0.28384  Biso   1.000  C
  C2279    1.0000 0.66114  0.16217  0.30554  Biso   1.000  C
  C2280    1.0000 0.68314  0.15094  0.31613  Biso   1.000  C
  H760     1.0000 0.69030  0.13630  0.30840  Biso   1.000  H
  Cu191    1.0000 0.10759  0.64280  0.24970  Biso   1.000  Cu
  O1521    1.0000 0.08885  0.52630  0.37024  Biso   1.000  O
  O1522    1.0000 0.11847  0.52655  0.33998  Biso   1.000  O
  O1523    1.0000 0.12112  0.59383  0.27755  Biso   1.000  O
  O1524    1.0000 0.08950  0.62206  0.27450  Biso   1.000  O
  O1525    1.0000 0.02603  0.62499  0.34302  Biso   1.000  O
  O1526    1.0000 0.02602  0.59464  0.37274  Biso   1.000  O
  O1527    1.0000 0.12709  0.65841  0.27773  Biso   1.000  O
  O1528    1.0000 0.15889  0.63051  0.27469  Biso   1.000  O
  C2281    1.0000 0.09900  0.53507  0.35042  Biso   1.000  C
  C2282    1.0000 0.08689  0.55790  0.33837  Biso   1.000  C
  C2283    1.0000 0.09778  0.56855  0.31702  Biso   1.000  C
  H761     1.0000 0.11240  0.56100  0.30950  Biso   1.000  H
  C2284    1.0000 0.08720  0.59057  0.30652  Biso   1.000  C
  C2285    1.0000 0.06637  0.60219  0.31791  Biso   1.000  C
  H762     1.0000 0.05960  0.61740  0.31090  Biso   1.000  H
  C2286    1.0000 0.05543  0.59170  0.33934  Biso   1.000  C
  C2287    1.0000 0.06555  0.56919  0.34972  Biso   1.000  C
  H763     1.0000 0.05800  0.56170  0.36430  Biso   1.000  H
  C2288    1.0000 0.10023  0.60312  0.28445  Biso   1.000  C
  C2289    1.0000 0.03408  0.60500  0.35269  Biso   1.000  C
  C2290    1.0000 0.14812  0.64933  0.28384  Biso   1.000  C
  C2291    1.0000 0.16114  0.66217  0.30554  Biso   1.000  C
  C2292    1.0000 0.18314  0.65094  0.31613  Biso   1.000  C
  H764     1.0000 0.19030  0.63630  0.30840  Biso   1.000  H
  Cu192    1.0000 0.10759  0.14280  0.74970  Biso   1.000  Cu
  O1529    1.0000 0.08885  0.02630  0.87024  Biso   1.000  O
  O1530    1.0000 0.11847  0.02655  0.83998  Biso   1.000  O
  O1531    1.0000 0.12112  0.09383  0.77755  Biso   1.000  O
  O1532    1.0000 0.08950  0.12206  0.77450  Biso   1.000  O
  O1533    1.0000 0.02603  0.12499  0.84302  Biso   1.000  O
  O1534    1.0000 0.02602  0.09464  0.87274  Biso   1.000  O
  O1535    1.0000 0.12709  0.15841  0.77773  Biso   1.000  O
  O1536    1.0000 0.15889  0.13051  0.77469  Biso   1.000  O
  C2293    1.0000 0.09900  0.03507  0.85042  Biso   1.000  C
  C2294    1.0000 0.08689  0.05790  0.83837  Biso   1.000  C
  C2295    1.0000 0.09778  0.06855  0.81702  Biso   1.000  C
  H765     1.0000 0.11240  0.06100  0.80950  Biso   1.000  H
  C2296    1.0000 0.08720  0.09057  0.80652  Biso   1.000  C
  C2297    1.0000 0.06637  0.10219  0.81791  Biso   1.000  C
  H766     1.0000 0.05960  0.11740  0.81090  Biso   1.000  H
  C2298    1.0000 0.05543  0.09170  0.83934  Biso   1.000  C
  C2299    1.0000 0.06555  0.06919  0.84972  Biso   1.000  C
  H767     1.0000 0.05800  0.06170  0.86430  Biso   1.000  H
  C2300    1.0000 0.10023  0.10312  0.78445  Biso   1.000  C
  C2301    1.0000 0.03408  0.10500  0.85269  Biso   1.000  C
  C2302    1.0000 0.14812  0.14933  0.78384  Biso   1.000  C
  C2303    1.0000 0.16114  0.16217  0.80554  Biso   1.000  C
  C2304    1.0000 0.18314  0.15094  0.81613  Biso   1.000  C
  H768     1.0000 0.19030  0.13630  0.80840  Biso   1.000  H
  Cu193    1.0000 0.39054  0.00000  0.10535  Biso   1.000  Cu
  Cu194    1.0000 0.35466  0.00000  0.14009  Biso   1.000  Cu
  Cu195    1.0000 0.39054  0.50000  0.60535  Biso   1.000  Cu
  Cu196    1.0000 0.35466  0.50000  0.64009  Biso   1.000  Cu
  Cu197    1.0000 0.89054  0.00000  0.60535  Biso   1.000  Cu
  Cu198    1.0000 0.85466  0.00000  0.64009  Biso   1.000  Cu
  Cu199    1.0000 0.89054  0.50000  0.10535  Biso   1.000  Cu
  Cu200    1.0000 0.85466  0.50000  0.14009  Biso   1.000  Cu
  Cu201    1.0000 0.60946  0.00000  0.10535  Biso   1.000  Cu
  Cu202    1.0000 0.64534  0.00000  0.14009  Biso   1.000  Cu
  Cu203    1.0000 0.60946  0.50000  0.60535  Biso   1.000  Cu
  Cu204    1.0000 0.64534  0.50000  0.64009  Biso   1.000  Cu
  Cu205    1.0000 0.10946  0.00000  0.60535  Biso   1.000  Cu
  Cu206    1.0000 0.14534  0.00000  0.64009  Biso   1.000  Cu
  Cu207    1.0000 0.10946  0.50000  0.10535  Biso   1.000  Cu
  Cu208    1.0000 0.14534  0.50000  0.14009  Biso   1.000  Cu
  Cu209    1.0000 0.60946  0.00000  0.89465  Biso   1.000  Cu
  Cu210    1.0000 0.64534  0.00000  0.85991  Biso   1.000  Cu
  Cu211    1.0000 0.60946  0.50000  0.39465  Biso   1.000  Cu
  Cu212    1.0000 0.64534  0.50000  0.35991  Biso   1.000  Cu
  Cu213    1.0000 0.10946  0.00000  0.39465  Biso   1.000  Cu
  Cu214    1.0000 0.14534  0.00000  0.35991  Biso   1.000  Cu
  Cu215    1.0000 0.10946  0.50000  0.89465  Biso   1.000  Cu
  Cu216    1.0000 0.14534  0.50000  0.85991  Biso   1.000  Cu
  Cu217    1.0000 0.39054  0.00000  0.89465  Biso   1.000  Cu
  Cu218    1.0000 0.35466  0.00000  0.85991  Biso   1.000  Cu
  Cu219    1.0000 0.39054  0.50000  0.39465  Biso   1.000  Cu
  Cu220    1.0000 0.35466  0.50000  0.35991  Biso   1.000  Cu
  Cu221    1.0000 0.89054  0.00000  0.39465  Biso   1.000  Cu
  Cu222    1.0000 0.85466  0.00000  0.35991  Biso   1.000  Cu
  Cu223    1.0000 0.89054  0.50000  0.89465  Biso   1.000  Cu
  Cu224    1.0000 0.85466  0.50000  0.85991  Biso   1.000  Cu
  Cu225    1.0000 0.10535  0.39054  0.00000  Biso   1.000  Cu
  Cu226    1.0000 0.14009  0.35466  0.00000  Biso   1.000  Cu
  Cu227    1.0000 0.10535  0.89054  0.50000  Biso   1.000  Cu
  Cu228    1.0000 0.14009  0.85466  0.50000  Biso   1.000  Cu
  Cu229    1.0000 0.60535  0.39054  0.50000  Biso   1.000  Cu
  Cu230    1.0000 0.64009  0.35466  0.50000  Biso   1.000  Cu
  Cu231    1.0000 0.60535  0.89054  0.00000  Biso   1.000  Cu
  Cu232    1.0000 0.64009  0.85466  0.00000  Biso   1.000  Cu
  Cu233    1.0000 0.10535  0.60946  0.00000  Biso   1.000  Cu
  Cu234    1.0000 0.14009  0.64534  0.00000  Biso   1.000  Cu
  Cu235    1.0000 0.10535  0.10946  0.50000  Biso   1.000  Cu
  Cu236    1.0000 0.14009  0.14534  0.50000  Biso   1.000  Cu
  Cu237    1.0000 0.60535  0.60946  0.50000  Biso   1.000  Cu
  Cu238    1.0000 0.64009  0.64534  0.50000  Biso   1.000  Cu
  Cu239    1.0000 0.60535  0.10946  0.00000  Biso   1.000  Cu
  Cu240    1.0000 0.64009  0.14534  0.00000  Biso   1.000  Cu
  Cu241    1.0000 0.89465  0.60946  0.00000  Biso   1.000  Cu
  Cu242    1.0000 0.85991  0.64534  0.00000  Biso   1.000  Cu
  Cu243    1.0000 0.89465  0.10946  0.50000  Biso   1.000  Cu
  Cu244    1.0000 0.85991  0.14534  0.50000  Biso   1.000  Cu
  Cu245    1.0000 0.39465  0.60946  0.50000  Biso   1.000  Cu
  Cu246    1.0000 0.35991  0.64534  0.50000  Biso   1.000  Cu
  Cu247    1.0000 0.39465  0.10946  0.00000  Biso   1.000  Cu
  Cu248    1.0000 0.35991  0.14534  0.00000  Biso   1.000  Cu
  Cu249    1.0000 0.89465  0.39054  0.00000  Biso   1.000  Cu
  Cu250    1.0000 0.85991  0.35466  0.00000  Biso   1.000  Cu
  Cu251    1.0000 0.89465  0.89054  0.50000  Biso   1.000  Cu
  Cu252    1.0000 0.85991  0.85466  0.50000  Biso   1.000  Cu
  Cu253    1.0000 0.39465  0.39054  0.50000  Biso   1.000  Cu
  Cu254    1.0000 0.35991  0.35466  0.50000  Biso   1.000  Cu
  Cu255    1.0000 0.39465  0.89054  0.00000  Biso   1.000  Cu
  Cu256    1.0000 0.35991  0.85466  0.00000  Biso   1.000  Cu
  Cu257    1.0000 0.00000  0.10535  0.39054  Biso   1.000  Cu
  Cu258    1.0000 0.00000  0.14009  0.35466  Biso   1.000  Cu
  Cu259    1.0000 0.00000  0.60535  0.89054  Biso   1.000  Cu
  Cu260    1.0000 0.00000  0.64009  0.85466  Biso   1.000  Cu
  Cu261    1.0000 0.50000  0.10535  0.89054  Biso   1.000  Cu
  Cu262    1.0000 0.50000  0.14009  0.85466  Biso   1.000  Cu
  Cu263    1.0000 0.50000  0.60535  0.39054  Biso   1.000  Cu
  Cu264    1.0000 0.50000  0.64009  0.35466  Biso   1.000  Cu
  Cu265    1.0000 0.00000  0.10535  0.60946  Biso   1.000  Cu
  Cu266    1.0000 0.00000  0.14009  0.64534  Biso   1.000  Cu
  Cu267    1.0000 0.00000  0.60535  0.10946  Biso   1.000  Cu
  Cu268    1.0000 0.00000  0.64009  0.14534  Biso   1.000  Cu
  Cu269    1.0000 0.50000  0.10535  0.10946  Biso   1.000  Cu
  Cu270    1.0000 0.50000  0.14009  0.14534  Biso   1.000  Cu
  Cu271    1.0000 0.50000  0.60535  0.60946  Biso   1.000  Cu
  Cu272    1.0000 0.50000  0.64009  0.64534  Biso   1.000  Cu
  Cu273    1.0000 0.00000  0.89465  0.60946  Biso   1.000  Cu
  Cu274    1.0000 0.00000  0.85991  0.64534  Biso   1.000  Cu
  Cu275    1.0000 0.00000  0.39465  0.10946  Biso   1.000  Cu
  Cu276    1.0000 0.00000  0.35991  0.14534  Biso   1.000  Cu
  Cu277    1.0000 0.50000  0.89465  0.10946  Biso   1.000  Cu
  Cu278    1.0000 0.50000  0.85991  0.14534  Biso   1.000  Cu
  Cu279    1.0000 0.50000  0.39465  0.60946  Biso   1.000  Cu
  Cu280    1.0000 0.50000  0.35991  0.64534  Biso   1.000  Cu
  Cu281    1.0000 0.00000  0.89465  0.39054  Biso   1.000  Cu
  Cu282    1.0000 0.00000  0.85991  0.35466  Biso   1.000  Cu
  Cu283    1.0000 0.00000  0.39465  0.89054  Biso   1.000  Cu
  Cu284    1.0000 0.00000  0.35991  0.85466  Biso   1.000  Cu
  Cu285    1.0000 0.50000  0.89465  0.89054  Biso   1.000  Cu
  Cu286    1.0000 0.50000  0.85991  0.85466  Biso   1.000  Cu
  Cu287    1.0000 0.50000  0.39465  0.39054  Biso   1.000  Cu
  Cu288    1.0000 0.50000  0.35991  0.35466  Biso   1.000  Cu
  Cu289    1.0000 0.50000  0.89054  0.39465  Biso   1.000  Cu
  Cu290    1.0000 0.50000  0.85466  0.35991  Biso   1.000  Cu
  Cu291    1.0000 0.50000  0.39054  0.89465  Biso   1.000  Cu
  Cu292    1.0000 0.50000  0.35466  0.85991  Biso   1.000  Cu
  Cu293    1.0000 0.00000  0.89054  0.89465  Biso   1.000  Cu
  Cu294    1.0000 0.00000  0.85466  0.85991  Biso   1.000  Cu
  Cu295    1.0000 0.00000  0.39054  0.39465  Biso   1.000  Cu
  Cu296    1.0000 0.00000  0.35466  0.35991  Biso   1.000  Cu
  Cu297    1.0000 0.50000  0.10946  0.39465  Biso   1.000  Cu
  Cu298    1.0000 0.50000  0.14534  0.35991  Biso   1.000  Cu
  Cu299    1.0000 0.50000  0.60946  0.89465  Biso   1.000  Cu
  Cu300    1.0000 0.50000  0.64534  0.85991  Biso   1.000  Cu
  Cu301    1.0000 0.00000  0.10946  0.89465  Biso   1.000  Cu
  Cu302    1.0000 0.00000  0.14534  0.85991  Biso   1.000  Cu
  Cu303    1.0000 0.00000  0.60946  0.39465  Biso   1.000  Cu
  Cu304    1.0000 0.00000  0.64534  0.35991  Biso   1.000  Cu
  Cu305    1.0000 0.50000  0.10946  0.60535  Biso   1.000  Cu
  Cu306    1.0000 0.50000  0.14534  0.64009  Biso   1.000  Cu
  Cu307    1.0000 0.50000  0.60946  0.10535  Biso   1.000  Cu
  Cu308    1.0000 0.50000  0.64534  0.14009  Biso   1.000  Cu
  Cu309    1.0000 0.00000  0.10946  0.10535  Biso   1.000  Cu
  Cu310    1.0000 0.00000  0.14534  0.14009  Biso   1.000  Cu
  Cu311    1.0000 0.00000  0.60946  0.60535  Biso   1.000  Cu
  Cu312    1.0000 0.00000  0.64534  0.64009  Biso   1.000  Cu
  Cu313    1.0000 0.50000  0.89054  0.60535  Biso   1.000  Cu
  Cu314    1.0000 0.50000  0.85466  0.64009  Biso   1.000  Cu
  Cu315    1.0000 0.50000  0.39054  0.10535  Biso   1.000  Cu
  Cu316    1.0000 0.50000  0.35466  0.14009  Biso   1.000  Cu
  Cu317    1.0000 0.00000  0.89054  0.10535  Biso   1.000  Cu
  Cu318    1.0000 0.00000  0.85466  0.14009  Biso   1.000  Cu
  Cu319    1.0000 0.00000  0.39054  0.60535  Biso   1.000  Cu
  Cu320    1.0000 0.00000  0.35466  0.64009  Biso   1.000  Cu
  Cu321    1.0000 0.89054  0.60535  0.50000  Biso   1.000  Cu
  Cu322    1.0000 0.85466  0.64009  0.50000  Biso   1.000  Cu
  Cu323    1.0000 0.89054  0.10535  0.00000  Biso   1.000  Cu
  Cu324    1.0000 0.85466  0.14009  0.00000  Biso   1.000  Cu
  Cu325    1.0000 0.39054  0.60535  0.00000  Biso   1.000  Cu
  Cu326    1.0000 0.35466  0.64009  0.00000  Biso   1.000  Cu
  Cu327    1.0000 0.39054  0.10535  0.50000  Biso   1.000  Cu
  Cu328    1.0000 0.35466  0.14009  0.50000  Biso   1.000  Cu
  Cu329    1.0000 0.10946  0.60535  0.50000  Biso   1.000  Cu
  Cu330    1.0000 0.14534  0.64009  0.50000  Biso   1.000  Cu
  Cu331    1.0000 0.10946  0.10535  0.00000  Biso   1.000  Cu
  Cu332    1.0000 0.14534  0.14009  0.00000  Biso   1.000  Cu
  Cu333    1.0000 0.60946  0.60535  0.00000  Biso   1.000  Cu
  Cu334    1.0000 0.64534  0.64009  0.00000  Biso   1.000  Cu
  Cu335    1.0000 0.60946  0.10535  0.50000  Biso   1.000  Cu
  Cu336    1.0000 0.64534  0.14009  0.50000  Biso   1.000  Cu
  Cu337    1.0000 0.10946  0.39465  0.50000  Biso   1.000  Cu
  Cu338    1.0000 0.14534  0.35991  0.50000  Biso   1.000  Cu
  Cu339    1.0000 0.10946  0.89465  0.00000  Biso   1.000  Cu
  Cu340    1.0000 0.14534  0.85991  0.00000  Biso   1.000  Cu
  Cu341    1.0000 0.60946  0.39465  0.00000  Biso   1.000  Cu
  Cu342    1.0000 0.64534  0.35991  0.00000  Biso   1.000  Cu
  Cu343    1.0000 0.60946  0.89465  0.50000  Biso   1.000  Cu
  Cu344    1.0000 0.64534  0.85991  0.50000  Biso   1.000  Cu
  Cu345    1.0000 0.89054  0.39465  0.50000  Biso   1.000  Cu
  Cu346    1.0000 0.85466  0.35991  0.50000  Biso   1.000  Cu
  Cu347    1.0000 0.89054  0.89465  0.00000  Biso   1.000  Cu
  Cu348    1.0000 0.85466  0.85991  0.00000  Biso   1.000  Cu
  Cu349    1.0000 0.39054  0.39465  0.00000  Biso   1.000  Cu
  Cu350    1.0000 0.35466  0.35991  0.00000  Biso   1.000  Cu
  Cu351    1.0000 0.39054  0.89465  0.50000  Biso   1.000  Cu
  Cu352    1.0000 0.35466  0.85991  0.50000  Biso   1.000  Cu
  Cu353    1.0000 0.60535  0.50000  0.10946  Biso   1.000  Cu
  Cu354    1.0000 0.64009  0.50000  0.14534  Biso   1.000  Cu
  Cu355    1.0000 0.60535  0.00000  0.60946  Biso   1.000  Cu
  Cu356    1.0000 0.64009  0.00000  0.64534  Biso   1.000  Cu
  Cu357    1.0000 0.10535  0.50000  0.60946  Biso   1.000  Cu
  Cu358    1.0000 0.14009  0.50000  0.64534  Biso   1.000  Cu
  Cu359    1.0000 0.10535  0.00000  0.10946  Biso   1.000  Cu
  Cu360    1.0000 0.14009  0.00000  0.14534  Biso   1.000  Cu
  Cu361    1.0000 0.60535  0.50000  0.89054  Biso   1.000  Cu
  Cu362    1.0000 0.64009  0.50000  0.85466  Biso   1.000  Cu
  Cu363    1.0000 0.60535  0.00000  0.39054  Biso   1.000  Cu
  Cu364    1.0000 0.64009  0.00000  0.35466  Biso   1.000  Cu
  Cu365    1.0000 0.10535  0.50000  0.39054  Biso   1.000  Cu
  Cu366    1.0000 0.14009  0.50000  0.35466  Biso   1.000  Cu
  Cu367    1.0000 0.10535  0.00000  0.89054  Biso   1.000  Cu
  Cu368    1.0000 0.14009  0.00000  0.85466  Biso   1.000  Cu
  Cu369    1.0000 0.39465  0.50000  0.89054  Biso   1.000  Cu
  Cu370    1.0000 0.35991  0.50000  0.85466  Biso   1.000  Cu
  Cu371    1.0000 0.39465  0.00000  0.39054  Biso   1.000  Cu
  Cu372    1.0000 0.35991  0.00000  0.35466  Biso   1.000  Cu
  Cu373    1.0000 0.89465  0.50000  0.39054  Biso   1.000  Cu
  Cu374    1.0000 0.85991  0.50000  0.35466  Biso   1.000  Cu
  Cu375    1.0000 0.89465  0.00000  0.89054  Biso   1.000  Cu
  Cu376    1.0000 0.85991  0.00000  0.85466  Biso   1.000  Cu
  Cu377    1.0000 0.39465  0.50000  0.10946  Biso   1.000  Cu
  Cu378    1.0000 0.35991  0.50000  0.14534  Biso   1.000  Cu
  Cu379    1.0000 0.39465  0.00000  0.60946  Biso   1.000  Cu
  Cu380    1.0000 0.35991  0.00000  0.64534  Biso   1.000  Cu
  Cu381    1.0000 0.89465  0.50000  0.60946  Biso   1.000  Cu
  Cu382    1.0000 0.85991  0.50000  0.64534  Biso   1.000  Cu
  Cu383    1.0000 0.89465  0.00000  0.10946  Biso   1.000  Cu
  Cu384    1.0000 0.85991  0.00000  0.14534  Biso   1.000  Cu
