data_BOLPAU_clean
_audit_creation_date              2014-07-02
_audit_creation_method            'Materials Studio'
_symmetry_space_group_name_H-M    'P1'
_symmetry_Int_Tables_number       1
_symmetry_cell_setting            triclinic
loop_
_symmetry_equiv_pos_as_xyz
  x,y,z
_cell_length_a                    22.5756
_cell_length_b                    29.6302
_cell_length_c                    28.2080
_cell_angle_alpha                 90.0000
_cell_angle_beta                  90.0000
_cell_angle_gamma                 90.0000
loop_
_atom_site_label
_atom_site_type_symbol
_atom_site_fract_x
_atom_site_fract_y
_atom_site_fract_z
_atom_site_U_iso_or_equiv
_atom_site_adp_type
_atom_site_occupancy
Zn1    Zn    0.35714   0.12640   0.65802   0.01267  Uiso   1.00
Zn2    Zn    0.42135   0.12495   0.77307   0.01267  Uiso   1.00
Zn3    Zn    0.85414   0.37189   0.86128   0.01267  Uiso   1.00
Zn4    Zn    0.76101   0.45867   0.90002   0.01267  Uiso   1.00
Zn5    Zn    0.85714   0.87360   0.84198   0.01267  Uiso   1.00
Zn6    Zn    0.92135   0.87505   0.72693   0.01267  Uiso   1.00
Zn7    Zn    0.35414   0.62811   0.63872   0.01267  Uiso   1.00
Zn8    Zn    0.26101   0.54133   0.59998   0.01267  Uiso   1.00
Zn9    Zn    0.64286   0.87360   0.34198   0.01267  Uiso   1.00
Zn10   Zn    0.57865   0.87505   0.22693   0.01267  Uiso   1.00
Zn11   Zn    0.14586   0.62811   0.13872   0.01267  Uiso   1.00
Zn12   Zn    0.23899   0.54133   0.09998   0.01267  Uiso   1.00
Zn13   Zn    0.14286   0.12640   0.15802   0.01267  Uiso   1.00
Zn14   Zn    0.07865   0.12495   0.27307   0.01267  Uiso   1.00
Zn15   Zn    0.64586   0.37189   0.36128   0.01267  Uiso   1.00
Zn16   Zn    0.73899   0.45867   0.40002   0.01267  Uiso   1.00
Si1    Si    0.56181   0.37765   0.66004   0.01267  Uiso   1.00
Si2    Si    0.06176   0.12215   0.85771   0.01267  Uiso   1.00
Si3    Si    0.06181   0.62235   0.83996   0.01267  Uiso   1.00
Si4    Si    0.56176   0.87785   0.64229   0.01267  Uiso   1.00
Si5    Si    0.43819   0.62235   0.33996   0.01267  Uiso   1.00
Si6    Si    0.93824   0.87785   0.14229   0.01267  Uiso   1.00
Si7    Si    0.93819   0.37765   0.16004   0.01267  Uiso   1.00
Si8    Si    0.43824   0.12215   0.35771   0.01267  Uiso   1.00
H1     H     0.47500   0.32010   0.60950   0.01267  Uiso   1.00
H2     H     0.42520   0.25370   0.62540   0.01267  Uiso   1.00
H3     H     0.50820   0.24460   0.75100   0.01267  Uiso   1.00
H4     H     0.55770   0.31070   0.73510   0.01267  Uiso   1.00
H5     H     0.56570   0.41210   0.75380   0.01267  Uiso   1.00
H6     H     0.63480   0.41530   0.81550   0.01267  Uiso   1.00
H7     H     0.75840   0.35840   0.73020   0.01267  Uiso   1.00
H8     H     0.68930   0.35520   0.66840   0.01267  Uiso   1.00
H9     H     0.62800   0.44280   0.61000   0.01267  Uiso   1.00
H10    H     0.66920   0.45120   0.53440   0.01267  Uiso   1.00
H11    H     0.61310   0.32570   0.49940   0.01267  Uiso   1.00
H12    H     0.57190   0.31730   0.57500   0.01267  Uiso   1.00
H13    H     0.56850   0.47600   0.66110   0.01267  Uiso   1.00
H14    H     0.50330   0.53500   0.65400   0.01267  Uiso   1.00
H15    H     0.36660   0.44830   0.66140   0.01267  Uiso   1.00
H16    H     0.43300   0.38890   0.66820   0.01267  Uiso   1.00
H17    H     0.18970   0.11730   0.87050   0.01267  Uiso   1.00
H18    H     0.27350   0.11720   0.82330   0.01267  Uiso   1.00
H19    H     0.16980   0.14500   0.71050   0.01267  Uiso   1.00
H20    H     0.08840   0.14480   0.75800   0.01267  Uiso   1.00
H21    H     0.07460   0.22040   0.85080   0.01267  Uiso   1.00
H22    H     0.01030   0.28240   0.85090   0.01267  Uiso   1.00
H23    H     0.87110   0.19920   0.85070   0.01267  Uiso   1.00
H24    H     0.93330   0.13720   0.85040   0.01267  Uiso   1.00
H25    H     0.06730   0.05670   0.77870   0.01267  Uiso   1.00
H26    H     0.01890   0.99040   0.75870   0.01267  Uiso   1.00
H27    H     0.91920   0.99990   0.87710   0.01267  Uiso   1.00
H28    H     0.96670   0.06670   0.89630   0.01267  Uiso   1.00
H29    H     0.10340   0.04690   0.91610   0.01267  Uiso   1.00
H30    H     0.14030   0.03750   0.99140   0.01267  Uiso   1.00
H31    H     0.11240   0.16690   0.02090   0.01267  Uiso   1.00
H32    H     0.07530   0.17870   0.94360   0.01267  Uiso   1.00
H33    H     0.97500   0.67990   0.89050   0.01267  Uiso   1.00
H34    H     0.92520   0.74630   0.87460   0.01267  Uiso   1.00
H35    H     0.00820   0.75540   0.74900   0.01267  Uiso   1.00
H36    H     0.05770   0.68930   0.76490   0.01267  Uiso   1.00
H37    H     0.06570   0.58790   0.74620   0.01267  Uiso   1.00
H38    H     0.13480   0.58470   0.68450   0.01267  Uiso   1.00
H39    H     0.25840   0.64160   0.76980   0.01267  Uiso   1.00
H40    H     0.18930   0.64480   0.83160   0.01267  Uiso   1.00
H41    H     0.12800   0.55720   0.89000   0.01267  Uiso   1.00
H42    H     0.16920   0.54880   0.96560   0.01267  Uiso   1.00
H43    H     0.11310   0.67430   0.00060   0.01267  Uiso   1.00
H44    H     0.07190   0.68270   0.92500   0.01267  Uiso   1.00
H45    H     0.06850   0.52400   0.83890   0.01267  Uiso   1.00
H46    H     0.00330   0.46500   0.84600   0.01267  Uiso   1.00
H47    H     0.86660   0.55170   0.83860   0.01267  Uiso   1.00
H48    H     0.93300   0.61110   0.83180   0.01267  Uiso   1.00
H49    H     0.68970   0.88270   0.62950   0.01267  Uiso   1.00
H50    H     0.77350   0.88280   0.67670   0.01267  Uiso   1.00
H51    H     0.66980   0.85500   0.78950   0.01267  Uiso   1.00
H52    H     0.58840   0.85520   0.74200   0.01267  Uiso   1.00
H53    H     0.57460   0.77960   0.64920   0.01267  Uiso   1.00
H54    H     0.51030   0.71760   0.64910   0.01267  Uiso   1.00
H55    H     0.37110   0.80080   0.64930   0.01267  Uiso   1.00
H56    H     0.43330   0.86280   0.64960   0.01267  Uiso   1.00
H57    H     0.56730   0.94330   0.72130   0.01267  Uiso   1.00
H58    H     0.51890   0.00960   0.74130   0.01267  Uiso   1.00
H59    H     0.41920   0.00010   0.62290   0.01267  Uiso   1.00
H60    H     0.46670   0.93330   0.60370   0.01267  Uiso   1.00
H61    H     0.60340   0.95310   0.58390   0.01267  Uiso   1.00
H62    H     0.64030   0.96250   0.50860   0.01267  Uiso   1.00
H63    H     0.61240   0.83310   0.47910   0.01267  Uiso   1.00
H64    H     0.57530   0.82130   0.55640   0.01267  Uiso   1.00
H65    H     0.52500   0.67990   0.39050   0.01267  Uiso   1.00
H66    H     0.57480   0.74630   0.37460   0.01267  Uiso   1.00
H67    H     0.49180   0.75540   0.24900   0.01267  Uiso   1.00
H68    H     0.44230   0.68930   0.26490   0.01267  Uiso   1.00
H69    H     0.43430   0.58790   0.24620   0.01267  Uiso   1.00
H70    H     0.36520   0.58470   0.18450   0.01267  Uiso   1.00
H71    H     0.24160   0.64160   0.26980   0.01267  Uiso   1.00
H72    H     0.31070   0.64480   0.33160   0.01267  Uiso   1.00
H73    H     0.37200   0.55720   0.39000   0.01267  Uiso   1.00
H74    H     0.33080   0.54880   0.46560   0.01267  Uiso   1.00
H75    H     0.38690   0.67430   0.50060   0.01267  Uiso   1.00
H76    H     0.42810   0.68270   0.42500   0.01267  Uiso   1.00
H77    H     0.43150   0.52400   0.33890   0.01267  Uiso   1.00
H78    H     0.49670   0.46500   0.34600   0.01267  Uiso   1.00
H79    H     0.63340   0.55170   0.33860   0.01267  Uiso   1.00
H80    H     0.56700   0.61110   0.33180   0.01267  Uiso   1.00
H81    H     0.81030   0.88270   0.12950   0.01267  Uiso   1.00
H82    H     0.72650   0.88280   0.17670   0.01267  Uiso   1.00
H83    H     0.83020   0.85500   0.28950   0.01267  Uiso   1.00
H84    H     0.91160   0.85520   0.24200   0.01267  Uiso   1.00
H85    H     0.92540   0.77960   0.14920   0.01267  Uiso   1.00
H86    H     0.98970   0.71760   0.14910   0.01267  Uiso   1.00
H87    H     0.12890   0.80080   0.14930   0.01267  Uiso   1.00
H88    H     0.06670   0.86280   0.14960   0.01267  Uiso   1.00
H89    H     0.93270   0.94330   0.22130   0.01267  Uiso   1.00
H90    H     0.98110   0.00960   0.24130   0.01267  Uiso   1.00
H91    H     0.08080   0.00010   0.12290   0.01267  Uiso   1.00
H92    H     0.03330   0.93330   0.10370   0.01267  Uiso   1.00
H93    H     0.89660   0.95310   0.08390   0.01267  Uiso   1.00
H94    H     0.85970   0.96250   0.00860   0.01267  Uiso   1.00
H95    H     0.88760   0.83310   0.97910   0.01267  Uiso   1.00
H96    H     0.92470   0.82130   0.05640   0.01267  Uiso   1.00
H97    H     0.02500   0.32010   0.10950   0.01267  Uiso   1.00
H98    H     0.07480   0.25370   0.12540   0.01267  Uiso   1.00
H99    H     0.99180   0.24460   0.25100   0.01267  Uiso   1.00
H100   H     0.94230   0.31070   0.23510   0.01267  Uiso   1.00
H101   H     0.93430   0.41210   0.25380   0.01267  Uiso   1.00
H102   H     0.86520   0.41530   0.31550   0.01267  Uiso   1.00
H103   H     0.74160   0.35840   0.23020   0.01267  Uiso   1.00
H104   H     0.81070   0.35520   0.16840   0.01267  Uiso   1.00
H105   H     0.87200   0.44280   0.11000   0.01267  Uiso   1.00
H106   H     0.83080   0.45120   0.03440   0.01267  Uiso   1.00
H107   H     0.88690   0.32570   0.99940   0.01267  Uiso   1.00
H108   H     0.92810   0.31730   0.07500   0.01267  Uiso   1.00
H109   H     0.93150   0.47600   0.16110   0.01267  Uiso   1.00
H110   H     0.99670   0.53500   0.15400   0.01267  Uiso   1.00
H111   H     0.13340   0.44830   0.16140   0.01267  Uiso   1.00
H112   H     0.06700   0.38890   0.16820   0.01267  Uiso   1.00
H113   H     0.31030   0.11730   0.37050   0.01267  Uiso   1.00
H114   H     0.22650   0.11720   0.32330   0.01267  Uiso   1.00
H115   H     0.33020   0.14500   0.21050   0.01267  Uiso   1.00
H116   H     0.41160   0.14480   0.25800   0.01267  Uiso   1.00
H117   H     0.42540   0.22040   0.35080   0.01267  Uiso   1.00
H118   H     0.48970   0.28240   0.35090   0.01267  Uiso   1.00
H119   H     0.62890   0.19920   0.35070   0.01267  Uiso   1.00
H120   H     0.56670   0.13720   0.35040   0.01267  Uiso   1.00
H121   H     0.43270   0.05670   0.27870   0.01267  Uiso   1.00
H122   H     0.48110   0.99040   0.25870   0.01267  Uiso   1.00
H123   H     0.58080   0.99990   0.37710   0.01267  Uiso   1.00
H124   H     0.53330   0.06670   0.39630   0.01267  Uiso   1.00
H125   H     0.39660   0.04690   0.41610   0.01267  Uiso   1.00
H126   H     0.35970   0.03750   0.49140   0.01267  Uiso   1.00
H127   H     0.38760   0.16690   0.52090   0.01267  Uiso   1.00
H128   H     0.42470   0.17870   0.44360   0.01267  Uiso   1.00
C1     C     0.52233   0.32325   0.67128   0.01267  Uiso   1.00
C2     C     0.48220   0.30473   0.63855   0.01267  Uiso   1.00
C3     C     0.45320   0.26495   0.64760   0.01267  Uiso   1.00
C4     C     0.46440   0.24109   0.68876   0.01267  Uiso   1.00
C5     C     0.50200   0.25951   0.72153   0.01267  Uiso   1.00
C6     C     0.53070   0.29929   0.71219   0.01267  Uiso   1.00
C7     C     0.43510   0.19689   0.69770   0.01267  Uiso   1.00
C8     C     0.62100   0.38338   0.70529   0.01267  Uiso   1.00
C9     C     0.60480   0.40120   0.74900   0.01267  Uiso   1.00
C10    C     0.64590   0.40310   0.78566   0.01267  Uiso   1.00
C11    C     0.70310   0.38720   0.77864   0.01267  Uiso   1.00
C12    C     0.71930   0.36930   0.73500   0.01267  Uiso   1.00
C13    C     0.67830   0.36740   0.69828   0.01267  Uiso   1.00
C14    C     0.74600   0.39020   0.81900   0.01267  Uiso   1.00
C15    C     0.59605   0.37927   0.59959   0.01267  Uiso   1.00
C16    C     0.62500   0.41906   0.58753   0.01267  Uiso   1.00
C17    C     0.64950   0.42404   0.54263   0.01267  Uiso   1.00
C18    C     0.64510   0.38923   0.50979   0.01267  Uiso   1.00
C19    C     0.61610   0.34944   0.52184   0.01267  Uiso   1.00
C20    C     0.59160   0.34446   0.56674   0.01267  Uiso   1.00
C21    C     0.67090   0.39480   0.46110   0.01267  Uiso   1.00
C22    C     0.50726   0.42589   0.66273   0.01267  Uiso   1.00
C23    C     0.52720   0.47007   0.66026   0.01267  Uiso   1.00
C24    C     0.48840   0.50512   0.65661   0.01267  Uiso   1.00
C25    C     0.42750   0.49826   0.65660   0.01267  Uiso   1.00
C26    C     0.40792   0.45425   0.66089   0.01267  Uiso   1.00
C27    C     0.44760   0.41875   0.66446   0.01267  Uiso   1.00
C28    C     0.38580   0.53601   0.64990   0.01267  Uiso   1.00
C29    C     0.12918   0.12925   0.81941   0.01267  Uiso   1.00
C30    C     0.18550   0.12233   0.83744   0.01267  Uiso   1.00
C31    C     0.23560   0.12241   0.80972   0.01267  Uiso   1.00
C32    C     0.22951   0.13026   0.76164   0.01267  Uiso   1.00
C33    C     0.17410   0.13877   0.74336   0.01267  Uiso   1.00
C34    C     0.12600   0.13843   0.77162   0.01267  Uiso   1.00
C35    C     0.28460   0.12966   0.73187   0.01267  Uiso   1.00
C36    C     0.01187   0.17158   0.85260   0.01267  Uiso   1.00
C37    C     0.03307   0.21538   0.85156   0.01267  Uiso   1.00
C38    C     0.99460   0.25266   0.85160   0.01267  Uiso   1.00
C39    C     0.93492   0.24631   0.85258   0.01267  Uiso   1.00
C40    C     0.91278   0.20362   0.85145   0.01267  Uiso   1.00
C41    C     0.94990   0.16665   0.85135   0.01267  Uiso   1.00
C42    C     0.89180   0.28630   0.85594   0.01267  Uiso   1.00
C43    C     0.02202   0.06922   0.84034   0.01267  Uiso   1.00
C44    C     0.03699   0.04539   0.79876   0.01267  Uiso   1.00
C45    C     0.00844   0.00599   0.78685   0.01267  Uiso   1.00
C46    C     0.96463   0.98929   0.81591   0.01267  Uiso   1.00
C47    C     0.94914   0.01162   0.85694   0.01267  Uiso   1.00
C48    C     0.97784   0.05117   0.86818   0.01267  Uiso   1.00
C49    C     0.93469   0.94599   0.80249   0.01267  Uiso   1.00
C50    C     0.08680   0.11459   0.92077   0.01267  Uiso   1.00
C51    C     0.10560   0.07219   0.93682   0.01267  Uiso   1.00
C52    C     0.12730   0.06650   0.98171   0.01267  Uiso   1.00
C53    C     0.13040   0.10040   0.01167   0.01267  Uiso   1.00
C54    C     0.11090   0.14270   0.99889   0.01267  Uiso   1.00
C55    C     0.08890   0.14960   0.95273   0.01267  Uiso   1.00
C56    C     0.15320   0.09580   0.06280   0.01267  Uiso   1.00
C57    C     0.02233   0.67675   0.82872   0.01267  Uiso   1.00
C58    C     0.98220   0.69527   0.86145   0.01267  Uiso   1.00
C59    C     0.95320   0.73505   0.85240   0.01267  Uiso   1.00
C60    C     0.96440   0.75891   0.81124   0.01267  Uiso   1.00
C61    C     0.00200   0.74049   0.77847   0.01267  Uiso   1.00
C62    C     0.03070   0.70071   0.78781   0.01267  Uiso   1.00
C63    C     0.93510   0.80311   0.80230   0.01267  Uiso   1.00
C64    C     0.12100   0.61662   0.79471   0.01267  Uiso   1.00
C65    C     0.10480   0.59880   0.75100   0.01267  Uiso   1.00
C66    C     0.14590   0.59690   0.71434   0.01267  Uiso   1.00
C67    C     0.20310   0.61280   0.72136   0.01267  Uiso   1.00
C68    C     0.21930   0.63070   0.76500   0.01267  Uiso   1.00
C69    C     0.17830   0.63260   0.80172   0.01267  Uiso   1.00
C70    C     0.24600   0.60980   0.68100   0.01267  Uiso   1.00
C71    C     0.09605   0.62073   0.90041   0.01267  Uiso   1.00
C72    C     0.12500   0.58094   0.91247   0.01267  Uiso   1.00
C73    C     0.14950   0.57596   0.95737   0.01267  Uiso   1.00
C74    C     0.14510   0.61077   0.99021   0.01267  Uiso   1.00
C75    C     0.11610   0.65056   0.97816   0.01267  Uiso   1.00
C76    C     0.09160   0.65554   0.93326   0.01267  Uiso   1.00
C77    C     0.17090   0.60520   0.03890   0.01267  Uiso   1.00
C78    C     0.00726   0.57411   0.83727   0.01267  Uiso   1.00
C79    C     0.02720   0.52993   0.83974   0.01267  Uiso   1.00
C80    C     0.98840   0.49488   0.84339   0.01267  Uiso   1.00
C81    C     0.92750   0.50174   0.84340   0.01267  Uiso   1.00
C82    C     0.90792   0.54575   0.83911   0.01267  Uiso   1.00
C83    C     0.94760   0.58125   0.83554   0.01267  Uiso   1.00
C84    C     0.88580   0.46399   0.85010   0.01267  Uiso   1.00
C85    C     0.62918   0.87075   0.68059   0.01267  Uiso   1.00
C86    C     0.68550   0.87767   0.66256   0.01267  Uiso   1.00
C87    C     0.73560   0.87759   0.69028   0.01267  Uiso   1.00
C88    C     0.72951   0.86974   0.73836   0.01267  Uiso   1.00
C89    C     0.67410   0.86123   0.75664   0.01267  Uiso   1.00
C90    C     0.62600   0.86157   0.72838   0.01267  Uiso   1.00
C91    C     0.78460   0.87034   0.76813   0.01267  Uiso   1.00
C92    C     0.51187   0.82842   0.64740   0.01267  Uiso   1.00
C93    C     0.53307   0.78462   0.64844   0.01267  Uiso   1.00
C94    C     0.49460   0.74734   0.64840   0.01267  Uiso   1.00
C95    C     0.43492   0.75369   0.64742   0.01267  Uiso   1.00
C96    C     0.41278   0.79638   0.64855   0.01267  Uiso   1.00
C97    C     0.44990   0.83335   0.64865   0.01267  Uiso   1.00
C98    C     0.39180   0.71370   0.64406   0.01267  Uiso   1.00
C99    C     0.52202   0.93078   0.65966   0.01267  Uiso   1.00
C100   C     0.53699   0.95461   0.70124   0.01267  Uiso   1.00
C101   C     0.50844   0.99401   0.71315   0.01267  Uiso   1.00
C102   C     0.46463   0.01071   0.68409   0.01267  Uiso   1.00
C103   C     0.44914   0.98838   0.64306   0.01267  Uiso   1.00
C104   C     0.47784   0.94883   0.63182   0.01267  Uiso   1.00
C105   C     0.43469   0.05401   0.69751   0.01267  Uiso   1.00
C106   C     0.58680   0.88541   0.57923   0.01267  Uiso   1.00
C107   C     0.60560   0.92781   0.56318   0.01267  Uiso   1.00
C108   C     0.62730   0.93350   0.51829   0.01267  Uiso   1.00
C109   C     0.63040   0.89960   0.48833   0.01267  Uiso   1.00
C110   C     0.61090   0.85730   0.50111   0.01267  Uiso   1.00
C111   C     0.58890   0.85040   0.54727   0.01267  Uiso   1.00
C112   C     0.65320   0.90420   0.43720   0.01267  Uiso   1.00
C113   C     0.47767   0.67675   0.32872   0.01267  Uiso   1.00
C114   C     0.51780   0.69527   0.36145   0.01267  Uiso   1.00
C115   C     0.54680   0.73505   0.35240   0.01267  Uiso   1.00
C116   C     0.53560   0.75891   0.31124   0.01267  Uiso   1.00
C117   C     0.49800   0.74049   0.27847   0.01267  Uiso   1.00
C118   C     0.46930   0.70071   0.28781   0.01267  Uiso   1.00
C119   C     0.56490   0.80311   0.30230   0.01267  Uiso   1.00
C120   C     0.37900   0.61662   0.29471   0.01267  Uiso   1.00
C121   C     0.39520   0.59880   0.25100   0.01267  Uiso   1.00
C122   C     0.35410   0.59690   0.21434   0.01267  Uiso   1.00
C123   C     0.29690   0.61280   0.22136   0.01267  Uiso   1.00
C124   C     0.28070   0.63070   0.26500   0.01267  Uiso   1.00
C125   C     0.32170   0.63260   0.30172   0.01267  Uiso   1.00
C126   C     0.25400   0.60980   0.18100   0.01267  Uiso   1.00
C127   C     0.40395   0.62073   0.40041   0.01267  Uiso   1.00
C128   C     0.37500   0.58094   0.41247   0.01267  Uiso   1.00
C129   C     0.35050   0.57596   0.45737   0.01267  Uiso   1.00
C130   C     0.35490   0.61077   0.49021   0.01267  Uiso   1.00
C131   C     0.38390   0.65056   0.47816   0.01267  Uiso   1.00
C132   C     0.40840   0.65554   0.43326   0.01267  Uiso   1.00
C133   C     0.32910   0.60520   0.53890   0.01267  Uiso   1.00
C134   C     0.49274   0.57411   0.33727   0.01267  Uiso   1.00
C135   C     0.47280   0.52993   0.33974   0.01267  Uiso   1.00
C136   C     0.51160   0.49488   0.34339   0.01267  Uiso   1.00
C137   C     0.57250   0.50174   0.34340   0.01267  Uiso   1.00
C138   C     0.59208   0.54575   0.33911   0.01267  Uiso   1.00
C139   C     0.55240   0.58125   0.33554   0.01267  Uiso   1.00
C140   C     0.61420   0.46399   0.35010   0.01267  Uiso   1.00
C141   C     0.87082   0.87075   0.18059   0.01267  Uiso   1.00
C142   C     0.81450   0.87767   0.16256   0.01267  Uiso   1.00
C143   C     0.76440   0.87759   0.19028   0.01267  Uiso   1.00
C144   C     0.77049   0.86974   0.23836   0.01267  Uiso   1.00
C145   C     0.82590   0.86123   0.25664   0.01267  Uiso   1.00
C146   C     0.87400   0.86157   0.22838   0.01267  Uiso   1.00
C147   C     0.71540   0.87034   0.26813   0.01267  Uiso   1.00
C148   C     0.98813   0.82842   0.14740   0.01267  Uiso   1.00
C149   C     0.96693   0.78462   0.14844   0.01267  Uiso   1.00
C150   C     0.00540   0.74734   0.14840   0.01267  Uiso   1.00
C151   C     0.06508   0.75369   0.14742   0.01267  Uiso   1.00
C152   C     0.08722   0.79638   0.14855   0.01267  Uiso   1.00
C153   C     0.05010   0.83335   0.14865   0.01267  Uiso   1.00
C154   C     0.10820   0.71370   0.14406   0.01267  Uiso   1.00
C155   C     0.97798   0.93078   0.15966   0.01267  Uiso   1.00
C156   C     0.96301   0.95461   0.20124   0.01267  Uiso   1.00
C157   C     0.99156   0.99401   0.21315   0.01267  Uiso   1.00
C158   C     0.03537   0.01071   0.18409   0.01267  Uiso   1.00
C159   C     0.05086   0.98838   0.14306   0.01267  Uiso   1.00
C160   C     0.02216   0.94883   0.13182   0.01267  Uiso   1.00
C161   C     0.06531   0.05401   0.19751   0.01267  Uiso   1.00
C162   C     0.91320   0.88541   0.07923   0.01267  Uiso   1.00
C163   C     0.89440   0.92781   0.06318   0.01267  Uiso   1.00
C164   C     0.87270   0.93350   0.01829   0.01267  Uiso   1.00
C165   C     0.86960   0.89960   0.98833   0.01267  Uiso   1.00
C166   C     0.88910   0.85730   0.00111   0.01267  Uiso   1.00
C167   C     0.91110   0.85040   0.04727   0.01267  Uiso   1.00
C168   C     0.84680   0.90420   0.93720   0.01267  Uiso   1.00
C169   C     0.97767   0.32325   0.17128   0.01267  Uiso   1.00
C170   C     0.01780   0.30473   0.13855   0.01267  Uiso   1.00
C171   C     0.04680   0.26495   0.14760   0.01267  Uiso   1.00
C172   C     0.03560   0.24109   0.18876   0.01267  Uiso   1.00
C173   C     0.99800   0.25951   0.22153   0.01267  Uiso   1.00
C174   C     0.96930   0.29929   0.21219   0.01267  Uiso   1.00
C175   C     0.06490   0.19689   0.19770   0.01267  Uiso   1.00
C176   C     0.87900   0.38338   0.20529   0.01267  Uiso   1.00
C177   C     0.89520   0.40120   0.24900   0.01267  Uiso   1.00
C178   C     0.85410   0.40310   0.28566   0.01267  Uiso   1.00
C179   C     0.79690   0.38720   0.27864   0.01267  Uiso   1.00
C180   C     0.78070   0.36930   0.23500   0.01267  Uiso   1.00
C181   C     0.82170   0.36740   0.19828   0.01267  Uiso   1.00
C182   C     0.75400   0.39020   0.31900   0.01267  Uiso   1.00
C183   C     0.90395   0.37927   0.09959   0.01267  Uiso   1.00
C184   C     0.87500   0.41906   0.08753   0.01267  Uiso   1.00
C185   C     0.85050   0.42404   0.04263   0.01267  Uiso   1.00
C186   C     0.85490   0.38923   0.00979   0.01267  Uiso   1.00
C187   C     0.88390   0.34944   0.02184   0.01267  Uiso   1.00
C188   C     0.90840   0.34446   0.06674   0.01267  Uiso   1.00
C189   C     0.82910   0.39480   0.96110   0.01267  Uiso   1.00
C190   C     0.99274   0.42589   0.16273   0.01267  Uiso   1.00
C191   C     0.97280   0.47007   0.16026   0.01267  Uiso   1.00
C192   C     0.01160   0.50512   0.15661   0.01267  Uiso   1.00
C193   C     0.07250   0.49826   0.15660   0.01267  Uiso   1.00
C194   C     0.09208   0.45425   0.16089   0.01267  Uiso   1.00
C195   C     0.05240   0.41875   0.16446   0.01267  Uiso   1.00
C196   C     0.11420   0.53601   0.14990   0.01267  Uiso   1.00
C197   C     0.37082   0.12925   0.31941   0.01267  Uiso   1.00
C198   C     0.31450   0.12233   0.33744   0.01267  Uiso   1.00
C199   C     0.26440   0.12241   0.30972   0.01267  Uiso   1.00
C200   C     0.27049   0.13026   0.26164   0.01267  Uiso   1.00
C201   C     0.32590   0.13877   0.24336   0.01267  Uiso   1.00
C202   C     0.37400   0.13843   0.27162   0.01267  Uiso   1.00
C203   C     0.21540   0.12966   0.23187   0.01267  Uiso   1.00
C204   C     0.48813   0.17158   0.35260   0.01267  Uiso   1.00
C205   C     0.46693   0.21538   0.35156   0.01267  Uiso   1.00
C206   C     0.50540   0.25266   0.35160   0.01267  Uiso   1.00
C207   C     0.56508   0.24631   0.35258   0.01267  Uiso   1.00
C208   C     0.58722   0.20362   0.35145   0.01267  Uiso   1.00
C209   C     0.55010   0.16665   0.35135   0.01267  Uiso   1.00
C210   C     0.60820   0.28630   0.35594   0.01267  Uiso   1.00
C211   C     0.47798   0.06922   0.34034   0.01267  Uiso   1.00
C212   C     0.46301   0.04539   0.29876   0.01267  Uiso   1.00
C213   C     0.49156   0.00599   0.28685   0.01267  Uiso   1.00
C214   C     0.53537   0.98929   0.31591   0.01267  Uiso   1.00
C215   C     0.55086   0.01162   0.35694   0.01267  Uiso   1.00
C216   C     0.52216   0.05117   0.36818   0.01267  Uiso   1.00
C217   C     0.56531   0.94599   0.30249   0.01267  Uiso   1.00
C218   C     0.41320   0.11459   0.42077   0.01267  Uiso   1.00
C219   C     0.39440   0.07219   0.43682   0.01267  Uiso   1.00
C220   C     0.37270   0.06650   0.48171   0.01267  Uiso   1.00
C221   C     0.36960   0.10040   0.51167   0.01267  Uiso   1.00
C222   C     0.38910   0.14270   0.49889   0.01267  Uiso   1.00
C223   C     0.41110   0.14960   0.45273   0.01267  Uiso   1.00
C224   C     0.34680   0.09580   0.56280   0.01267  Uiso   1.00
O1     O     0.40396   0.18142   0.66554   0.01267  Uiso   1.00
O2     O     0.44382   0.17872   0.73695   0.01267  Uiso   1.00
O3     O     0.72970   0.41000   0.85648   0.01267  Uiso   1.00
O4     O     0.79460   0.37030   0.81300   0.01267  Uiso   1.00
O5     O     0.69140   0.43360   0.45180   0.01267  Uiso   1.00
O6     O     0.65870   0.36520   0.43070   0.01267  Uiso   1.00
O7     O     0.40575   0.57559   0.64954   0.01267  Uiso   1.00
O8     O     0.33222   0.52757   0.64587   0.01267  Uiso   1.00
O9     O     0.33270   0.12598   0.75154   0.01267  Uiso   1.00
O10    O     0.27809   0.13100   0.68703   0.01267  Uiso   1.00
O11    O     0.91499   0.32514   0.84932   0.01267  Uiso   1.00
O12    O     0.84003   0.28089   0.86509   0.01267  Uiso   1.00
O13    O     0.94319   0.93037   0.76199   0.01267  Uiso   1.00
O14    O     0.90143   0.92913   0.83399   0.01267  Uiso   1.00
O15    O     0.16840   0.05480   0.07390   0.01267  Uiso   1.00
O16    O     0.14980   0.12893   0.08926   0.01267  Uiso   1.00
O17    O     0.90396   0.81858   0.83446   0.01267  Uiso   1.00
O18    O     0.94382   0.82128   0.76305   0.01267  Uiso   1.00
O19    O     0.22970   0.59000   0.64352   0.01267  Uiso   1.00
O20    O     0.29460   0.62970   0.68700   0.01267  Uiso   1.00
O21    O     0.19140   0.56640   0.04820   0.01267  Uiso   1.00
O22    O     0.15870   0.63480   0.06930   0.01267  Uiso   1.00
O23    O     0.90575   0.42441   0.85046   0.01267  Uiso   1.00
O24    O     0.83222   0.47243   0.85413   0.01267  Uiso   1.00
O25    O     0.83270   0.87402   0.74846   0.01267  Uiso   1.00
O26    O     0.77809   0.86900   0.81297   0.01267  Uiso   1.00
O27    O     0.41499   0.67486   0.65068   0.01267  Uiso   1.00
O28    O     0.34003   0.71911   0.63491   0.01267  Uiso   1.00
O29    O     0.44319   0.06963   0.73801   0.01267  Uiso   1.00
O30    O     0.40143   0.07087   0.66601   0.01267  Uiso   1.00
O31    O     0.66840   0.94520   0.42610   0.01267  Uiso   1.00
O32    O     0.64980   0.87107   0.41074   0.01267  Uiso   1.00
O33    O     0.59604   0.81858   0.33446   0.01267  Uiso   1.00
O34    O     0.55618   0.82128   0.26305   0.01267  Uiso   1.00
O35    O     0.27030   0.59000   0.14352   0.01267  Uiso   1.00
O36    O     0.20540   0.62970   0.18700   0.01267  Uiso   1.00
O37    O     0.30860   0.56640   0.54820   0.01267  Uiso   1.00
O38    O     0.34130   0.63480   0.56930   0.01267  Uiso   1.00
O39    O     0.59425   0.42441   0.35046   0.01267  Uiso   1.00
O40    O     0.66778   0.47243   0.35413   0.01267  Uiso   1.00
O41    O     0.66730   0.87402   0.24846   0.01267  Uiso   1.00
O42    O     0.72191   0.86900   0.31297   0.01267  Uiso   1.00
O43    O     0.08501   0.67486   0.15068   0.01267  Uiso   1.00
O44    O     0.15997   0.71911   0.13491   0.01267  Uiso   1.00
O45    O     0.05681   0.06963   0.23801   0.01267  Uiso   1.00
O46    O     0.09857   0.07087   0.16601   0.01267  Uiso   1.00
O47    O     0.83160   0.94520   0.92610   0.01267  Uiso   1.00
O48    O     0.85020   0.87107   0.91074   0.01267  Uiso   1.00
O49    O     0.09604   0.18142   0.16554   0.01267  Uiso   1.00
O50    O     0.05618   0.17872   0.23695   0.01267  Uiso   1.00
O51    O     0.77030   0.41000   0.35648   0.01267  Uiso   1.00
O52    O     0.70540   0.37030   0.31300   0.01267  Uiso   1.00
O53    O     0.80860   0.43360   0.95180   0.01267  Uiso   1.00
O54    O     0.84130   0.36520   0.93070   0.01267  Uiso   1.00
O55    O     0.09425   0.57559   0.14954   0.01267  Uiso   1.00
O56    O     0.16778   0.52757   0.14587   0.01267  Uiso   1.00
O57    O     0.16730   0.12598   0.25154   0.01267  Uiso   1.00
O58    O     0.22191   0.13100   0.18703   0.01267  Uiso   1.00
O59    O     0.58501   0.32514   0.34932   0.01267  Uiso   1.00
O60    O     0.65997   0.28089   0.36509   0.01267  Uiso   1.00
O61    O     0.55681   0.93037   0.26199   0.01267  Uiso   1.00
O62    O     0.59857   0.92913   0.33399   0.01267  Uiso   1.00
O63    O     0.33160   0.05480   0.57390   0.01267  Uiso   1.00
O64    O     0.35020   0.12893   0.58926   0.01267  Uiso   1.00
Zn17   Zn    0.14286   0.37360   0.65802   0.01267  Uiso   1.00
Zn18   Zn    0.07865   0.37505   0.77307   0.01267  Uiso   1.00
Zn19   Zn    0.64586   0.12811   0.86128   0.01267  Uiso   1.00
Zn20   Zn    0.73899   0.04133   0.90002   0.01267  Uiso   1.00
Zn21   Zn    0.64286   0.62640   0.84198   0.01267  Uiso   1.00
Zn22   Zn    0.57865   0.62495   0.72693   0.01267  Uiso   1.00
Zn23   Zn    0.14586   0.87189   0.63872   0.01267  Uiso   1.00
Zn24   Zn    0.23899   0.95867   0.59998   0.01267  Uiso   1.00
Zn25   Zn    0.85714   0.62640   0.34198   0.01267  Uiso   1.00
Zn26   Zn    0.92135   0.62495   0.22693   0.01267  Uiso   1.00
Zn27   Zn    0.35414   0.87189   0.13872   0.01267  Uiso   1.00
Zn28   Zn    0.26101   0.95867   0.09998   0.01267  Uiso   1.00
Zn29   Zn    0.35714   0.37360   0.15802   0.01267  Uiso   1.00
Zn30   Zn    0.42135   0.37505   0.27307   0.01267  Uiso   1.00
Zn31   Zn    0.85414   0.12811   0.36128   0.01267  Uiso   1.00
Zn32   Zn    0.76101   0.04133   0.40002   0.01267  Uiso   1.00
Si9    Si    0.93819   0.12235   0.66004   0.01267  Uiso   1.00
Si10   Si    0.43824   0.37785   0.85771   0.01267  Uiso   1.00
Si11   Si    0.43819   0.87765   0.83996   0.01267  Uiso   1.00
Si12   Si    0.93824   0.62215   0.64229   0.01267  Uiso   1.00
Si13   Si    0.06181   0.87765   0.33996   0.01267  Uiso   1.00
Si14   Si    0.56176   0.62215   0.14229   0.01267  Uiso   1.00
Si15   Si    0.56181   0.12235   0.16004   0.01267  Uiso   1.00
Si16   Si    0.06176   0.37785   0.35771   0.01267  Uiso   1.00
H129   H     0.02500   0.17990   0.60950   0.01267  Uiso   1.00
H130   H     0.07480   0.24630   0.62540   0.01267  Uiso   1.00
H131   H     0.99180   0.25540   0.75100   0.01267  Uiso   1.00
H132   H     0.94230   0.18930   0.73510   0.01267  Uiso   1.00
H133   H     0.93430   0.08790   0.75380   0.01267  Uiso   1.00
H134   H     0.86520   0.08470   0.81550   0.01267  Uiso   1.00
H135   H     0.74160   0.14160   0.73020   0.01267  Uiso   1.00
H136   H     0.81070   0.14480   0.66840   0.01267  Uiso   1.00
H137   H     0.87200   0.05720   0.61000   0.01267  Uiso   1.00
H138   H     0.83080   0.04880   0.53440   0.01267  Uiso   1.00
H139   H     0.88690   0.17430   0.49940   0.01267  Uiso   1.00
H140   H     0.92810   0.18270   0.57500   0.01267  Uiso   1.00
H141   H     0.93150   0.02400   0.66110   0.01267  Uiso   1.00
H142   H     0.99670   0.96500   0.65400   0.01267  Uiso   1.00
H143   H     0.13340   0.05170   0.66140   0.01267  Uiso   1.00
H144   H     0.06700   0.11110   0.66820   0.01267  Uiso   1.00
H145   H     0.31030   0.38270   0.87050   0.01267  Uiso   1.00
H146   H     0.22650   0.38280   0.82330   0.01267  Uiso   1.00
H147   H     0.33020   0.35500   0.71050   0.01267  Uiso   1.00
H148   H     0.41160   0.35520   0.75800   0.01267  Uiso   1.00
H149   H     0.42540   0.27960   0.85080   0.01267  Uiso   1.00
H150   H     0.48970   0.21760   0.85090   0.01267  Uiso   1.00
H151   H     0.62890   0.30080   0.85070   0.01267  Uiso   1.00
H152   H     0.56670   0.36280   0.85040   0.01267  Uiso   1.00
H153   H     0.43270   0.44330   0.77870   0.01267  Uiso   1.00
H154   H     0.48110   0.50960   0.75870   0.01267  Uiso   1.00
H155   H     0.58080   0.50010   0.87710   0.01267  Uiso   1.00
H156   H     0.53330   0.43330   0.89630   0.01267  Uiso   1.00
H157   H     0.39660   0.45310   0.91610   0.01267  Uiso   1.00
H158   H     0.35970   0.46250   0.99140   0.01267  Uiso   1.00
H159   H     0.38760   0.33310   0.02090   0.01267  Uiso   1.00
H160   H     0.42470   0.32130   0.94360   0.01267  Uiso   1.00
H161   H     0.52500   0.82010   0.89050   0.01267  Uiso   1.00
H162   H     0.57480   0.75370   0.87460   0.01267  Uiso   1.00
H163   H     0.49180   0.74460   0.74900   0.01267  Uiso   1.00
H164   H     0.44230   0.81070   0.76490   0.01267  Uiso   1.00
H165   H     0.43430   0.91210   0.74620   0.01267  Uiso   1.00
H166   H     0.36520   0.91530   0.68450   0.01267  Uiso   1.00
H167   H     0.24160   0.85840   0.76980   0.01267  Uiso   1.00
H168   H     0.31070   0.85520   0.83160   0.01267  Uiso   1.00
H169   H     0.37200   0.94280   0.89000   0.01267  Uiso   1.00
H170   H     0.33080   0.95120   0.96560   0.01267  Uiso   1.00
H171   H     0.38690   0.82570   0.00060   0.01267  Uiso   1.00
H172   H     0.42810   0.81730   0.92500   0.01267  Uiso   1.00
H173   H     0.43150   0.97600   0.83890   0.01267  Uiso   1.00
H174   H     0.49670   0.03500   0.84600   0.01267  Uiso   1.00
H175   H     0.63340   0.94830   0.83860   0.01267  Uiso   1.00
H176   H     0.56700   0.88890   0.83180   0.01267  Uiso   1.00
H177   H     0.81030   0.61730   0.62950   0.01267  Uiso   1.00
H178   H     0.72650   0.61720   0.67670   0.01267  Uiso   1.00
H179   H     0.83020   0.64500   0.78950   0.01267  Uiso   1.00
H180   H     0.91160   0.64480   0.74200   0.01267  Uiso   1.00
H181   H     0.92540   0.72040   0.64920   0.01267  Uiso   1.00
H182   H     0.98970   0.78240   0.64910   0.01267  Uiso   1.00
H183   H     0.12890   0.69920   0.64930   0.01267  Uiso   1.00
H184   H     0.06670   0.63720   0.64960   0.01267  Uiso   1.00
H185   H     0.93270   0.55670   0.72130   0.01267  Uiso   1.00
H186   H     0.98110   0.49040   0.74130   0.01267  Uiso   1.00
H187   H     0.08080   0.49990   0.62290   0.01267  Uiso   1.00
H188   H     0.03330   0.56670   0.60370   0.01267  Uiso   1.00
H189   H     0.89660   0.54690   0.58390   0.01267  Uiso   1.00
H190   H     0.85970   0.53750   0.50860   0.01267  Uiso   1.00
H191   H     0.88760   0.66690   0.47910   0.01267  Uiso   1.00
H192   H     0.92470   0.67870   0.55640   0.01267  Uiso   1.00
H193   H     0.97500   0.82010   0.39050   0.01267  Uiso   1.00
H194   H     0.92520   0.75370   0.37460   0.01267  Uiso   1.00
H195   H     0.00820   0.74460   0.24900   0.01267  Uiso   1.00
H196   H     0.05770   0.81070   0.26490   0.01267  Uiso   1.00
H197   H     0.06570   0.91210   0.24620   0.01267  Uiso   1.00
H198   H     0.13480   0.91530   0.18450   0.01267  Uiso   1.00
H199   H     0.25840   0.85840   0.26980   0.01267  Uiso   1.00
H200   H     0.18930   0.85520   0.33160   0.01267  Uiso   1.00
H201   H     0.12800   0.94280   0.39000   0.01267  Uiso   1.00
H202   H     0.16920   0.95120   0.46560   0.01267  Uiso   1.00
H203   H     0.11310   0.82570   0.50060   0.01267  Uiso   1.00
H204   H     0.07190   0.81730   0.42500   0.01267  Uiso   1.00
H205   H     0.06850   0.97600   0.33890   0.01267  Uiso   1.00
H206   H     0.00330   0.03500   0.34600   0.01267  Uiso   1.00
H207   H     0.86660   0.94830   0.33860   0.01267  Uiso   1.00
H208   H     0.93300   0.88890   0.33180   0.01267  Uiso   1.00
H209   H     0.68970   0.61730   0.12950   0.01267  Uiso   1.00
H210   H     0.77350   0.61720   0.17670   0.01267  Uiso   1.00
H211   H     0.66980   0.64500   0.28950   0.01267  Uiso   1.00
H212   H     0.58840   0.64480   0.24200   0.01267  Uiso   1.00
H213   H     0.57460   0.72040   0.14920   0.01267  Uiso   1.00
H214   H     0.51030   0.78240   0.14910   0.01267  Uiso   1.00
H215   H     0.37110   0.69920   0.14930   0.01267  Uiso   1.00
H216   H     0.43330   0.63720   0.14960   0.01267  Uiso   1.00
H217   H     0.56730   0.55670   0.22130   0.01267  Uiso   1.00
H218   H     0.51890   0.49040   0.24130   0.01267  Uiso   1.00
H219   H     0.41920   0.49990   0.12290   0.01267  Uiso   1.00
H220   H     0.46670   0.56670   0.10370   0.01267  Uiso   1.00
H221   H     0.60340   0.54690   0.08390   0.01267  Uiso   1.00
H222   H     0.64030   0.53750   0.00860   0.01267  Uiso   1.00
H223   H     0.61240   0.66690   0.97910   0.01267  Uiso   1.00
H224   H     0.57530   0.67870   0.05640   0.01267  Uiso   1.00
H225   H     0.47500   0.17990   0.10950   0.01267  Uiso   1.00
H226   H     0.42520   0.24630   0.12540   0.01267  Uiso   1.00
H227   H     0.50820   0.25540   0.25100   0.01267  Uiso   1.00
H228   H     0.55770   0.18930   0.23510   0.01267  Uiso   1.00
H229   H     0.56570   0.08790   0.25380   0.01267  Uiso   1.00
H230   H     0.63480   0.08470   0.31550   0.01267  Uiso   1.00
H231   H     0.75840   0.14160   0.23020   0.01267  Uiso   1.00
H232   H     0.68930   0.14480   0.16840   0.01267  Uiso   1.00
H233   H     0.62800   0.05720   0.11000   0.01267  Uiso   1.00
H234   H     0.66920   0.04880   0.03440   0.01267  Uiso   1.00
H235   H     0.61310   0.17430   0.99940   0.01267  Uiso   1.00
H236   H     0.57190   0.18270   0.07500   0.01267  Uiso   1.00
H237   H     0.56850   0.02400   0.16110   0.01267  Uiso   1.00
H238   H     0.50330   0.96500   0.15400   0.01267  Uiso   1.00
H239   H     0.36660   0.05170   0.16140   0.01267  Uiso   1.00
H240   H     0.43300   0.11110   0.16820   0.01267  Uiso   1.00
H241   H     0.18970   0.38270   0.37050   0.01267  Uiso   1.00
H242   H     0.27350   0.38280   0.32330   0.01267  Uiso   1.00
H243   H     0.16980   0.35500   0.21050   0.01267  Uiso   1.00
H244   H     0.08840   0.35520   0.25800   0.01267  Uiso   1.00
H245   H     0.07460   0.27960   0.35080   0.01267  Uiso   1.00
H246   H     0.01030   0.21760   0.35090   0.01267  Uiso   1.00
H247   H     0.87110   0.30080   0.35070   0.01267  Uiso   1.00
H248   H     0.93330   0.36280   0.35040   0.01267  Uiso   1.00
H249   H     0.06730   0.44330   0.27870   0.01267  Uiso   1.00
H250   H     0.01890   0.50960   0.25870   0.01267  Uiso   1.00
H251   H     0.91920   0.50010   0.37710   0.01267  Uiso   1.00
H252   H     0.96670   0.43330   0.39630   0.01267  Uiso   1.00
H253   H     0.10340   0.45310   0.41610   0.01267  Uiso   1.00
H254   H     0.14030   0.46250   0.49140   0.01267  Uiso   1.00
H255   H     0.11240   0.33310   0.52090   0.01267  Uiso   1.00
H256   H     0.07530   0.32130   0.44360   0.01267  Uiso   1.00
C225   C     0.97767   0.17675   0.67128   0.01267  Uiso   1.00
C226   C     0.01780   0.19527   0.63855   0.01267  Uiso   1.00
C227   C     0.04680   0.23505   0.64760   0.01267  Uiso   1.00
C228   C     0.03560   0.25891   0.68876   0.01267  Uiso   1.00
C229   C     0.99800   0.24049   0.72153   0.01267  Uiso   1.00
C230   C     0.96930   0.20071   0.71219   0.01267  Uiso   1.00
C231   C     0.06490   0.30311   0.69770   0.01267  Uiso   1.00
C232   C     0.87900   0.11662   0.70529   0.01267  Uiso   1.00
C233   C     0.89520   0.09880   0.74900   0.01267  Uiso   1.00
C234   C     0.85410   0.09690   0.78566   0.01267  Uiso   1.00
C235   C     0.79690   0.11280   0.77864   0.01267  Uiso   1.00
C236   C     0.78070   0.13070   0.73500   0.01267  Uiso   1.00
C237   C     0.82170   0.13260   0.69828   0.01267  Uiso   1.00
C238   C     0.75400   0.10980   0.81900   0.01267  Uiso   1.00
C239   C     0.90395   0.12073   0.59959   0.01267  Uiso   1.00
C240   C     0.87500   0.08094   0.58753   0.01267  Uiso   1.00
C241   C     0.85050   0.07596   0.54263   0.01267  Uiso   1.00
C242   C     0.85490   0.11077   0.50979   0.01267  Uiso   1.00
C243   C     0.88390   0.15056   0.52184   0.01267  Uiso   1.00
C244   C     0.90840   0.15554   0.56674   0.01267  Uiso   1.00
C245   C     0.82910   0.10520   0.46110   0.01267  Uiso   1.00
C246   C     0.99274   0.07411   0.66273   0.01267  Uiso   1.00
C247   C     0.97280   0.02993   0.66026   0.01267  Uiso   1.00
C248   C     0.01160   0.99488   0.65661   0.01267  Uiso   1.00
C249   C     0.07250   0.00174   0.65660   0.01267  Uiso   1.00
C250   C     0.09208   0.04575   0.66089   0.01267  Uiso   1.00
C251   C     0.05240   0.08125   0.66446   0.01267  Uiso   1.00
C252   C     0.11420   0.96399   0.64990   0.01267  Uiso   1.00
C253   C     0.37082   0.37075   0.81941   0.01267  Uiso   1.00
C254   C     0.31450   0.37767   0.83744   0.01267  Uiso   1.00
C255   C     0.26440   0.37759   0.80972   0.01267  Uiso   1.00
C256   C     0.27049   0.36974   0.76164   0.01267  Uiso   1.00
C257   C     0.32590   0.36123   0.74336   0.01267  Uiso   1.00
C258   C     0.37400   0.36157   0.77162   0.01267  Uiso   1.00
C259   C     0.21540   0.37034   0.73187   0.01267  Uiso   1.00
C260   C     0.48813   0.32842   0.85260   0.01267  Uiso   1.00
C261   C     0.46693   0.28462   0.85156   0.01267  Uiso   1.00
C262   C     0.50540   0.24734   0.85160   0.01267  Uiso   1.00
C263   C     0.56508   0.25369   0.85258   0.01267  Uiso   1.00
C264   C     0.58722   0.29638   0.85145   0.01267  Uiso   1.00
C265   C     0.55010   0.33335   0.85135   0.01267  Uiso   1.00
C266   C     0.60820   0.21370   0.85594   0.01267  Uiso   1.00
C267   C     0.47798   0.43078   0.84034   0.01267  Uiso   1.00
C268   C     0.46301   0.45461   0.79876   0.01267  Uiso   1.00
C269   C     0.49156   0.49401   0.78685   0.01267  Uiso   1.00
C270   C     0.53537   0.51071   0.81591   0.01267  Uiso   1.00
C271   C     0.55086   0.48838   0.85694   0.01267  Uiso   1.00
C272   C     0.52216   0.44883   0.86818   0.01267  Uiso   1.00
C273   C     0.56531   0.55401   0.80249   0.01267  Uiso   1.00
C274   C     0.41320   0.38541   0.92077   0.01267  Uiso   1.00
C275   C     0.39440   0.42781   0.93682   0.01267  Uiso   1.00
C276   C     0.37270   0.43350   0.98171   0.01267  Uiso   1.00
C277   C     0.36960   0.39960   0.01167   0.01267  Uiso   1.00
C278   C     0.38910   0.35730   0.99889   0.01267  Uiso   1.00
C279   C     0.41110   0.35040   0.95273   0.01267  Uiso   1.00
C280   C     0.34680   0.40420   0.06280   0.01267  Uiso   1.00
C281   C     0.47767   0.82325   0.82872   0.01267  Uiso   1.00
C282   C     0.51780   0.80473   0.86145   0.01267  Uiso   1.00
C283   C     0.54680   0.76495   0.85240   0.01267  Uiso   1.00
C284   C     0.53560   0.74109   0.81124   0.01267  Uiso   1.00
C285   C     0.49800   0.75951   0.77847   0.01267  Uiso   1.00
C286   C     0.46930   0.79929   0.78781   0.01267  Uiso   1.00
C287   C     0.56490   0.69689   0.80230   0.01267  Uiso   1.00
C288   C     0.37900   0.88338   0.79471   0.01267  Uiso   1.00
C289   C     0.39520   0.90120   0.75100   0.01267  Uiso   1.00
C290   C     0.35410   0.90310   0.71434   0.01267  Uiso   1.00
C291   C     0.29690   0.88720   0.72136   0.01267  Uiso   1.00
C292   C     0.28070   0.86930   0.76500   0.01267  Uiso   1.00
C293   C     0.32170   0.86740   0.80172   0.01267  Uiso   1.00
C294   C     0.25400   0.89020   0.68100   0.01267  Uiso   1.00
C295   C     0.40395   0.87927   0.90041   0.01267  Uiso   1.00
C296   C     0.37500   0.91906   0.91247   0.01267  Uiso   1.00
C297   C     0.35050   0.92404   0.95737   0.01267  Uiso   1.00
C298   C     0.35490   0.88923   0.99021   0.01267  Uiso   1.00
C299   C     0.38390   0.84944   0.97816   0.01267  Uiso   1.00
C300   C     0.40840   0.84446   0.93326   0.01267  Uiso   1.00
C301   C     0.32910   0.89480   0.03890   0.01267  Uiso   1.00
C302   C     0.49274   0.92589   0.83727   0.01267  Uiso   1.00
C303   C     0.47280   0.97007   0.83974   0.01267  Uiso   1.00
C304   C     0.51160   0.00512   0.84339   0.01267  Uiso   1.00
C305   C     0.57250   0.99826   0.84340   0.01267  Uiso   1.00
C306   C     0.59208   0.95425   0.83911   0.01267  Uiso   1.00
C307   C     0.55240   0.91875   0.83554   0.01267  Uiso   1.00
C308   C     0.61420   0.03601   0.85010   0.01267  Uiso   1.00
C309   C     0.87082   0.62925   0.68059   0.01267  Uiso   1.00
C310   C     0.81450   0.62233   0.66256   0.01267  Uiso   1.00
C311   C     0.76440   0.62241   0.69028   0.01267  Uiso   1.00
C312   C     0.77049   0.63026   0.73836   0.01267  Uiso   1.00
C313   C     0.82590   0.63877   0.75664   0.01267  Uiso   1.00
C314   C     0.87400   0.63843   0.72838   0.01267  Uiso   1.00
C315   C     0.71540   0.62966   0.76813   0.01267  Uiso   1.00
C316   C     0.98813   0.67158   0.64740   0.01267  Uiso   1.00
C317   C     0.96693   0.71538   0.64844   0.01267  Uiso   1.00
C318   C     0.00540   0.75266   0.64840   0.01267  Uiso   1.00
C319   C     0.06508   0.74631   0.64742   0.01267  Uiso   1.00
C320   C     0.08722   0.70362   0.64855   0.01267  Uiso   1.00
C321   C     0.05010   0.66665   0.64865   0.01267  Uiso   1.00
C322   C     0.10820   0.78630   0.64406   0.01267  Uiso   1.00
C323   C     0.97798   0.56922   0.65966   0.01267  Uiso   1.00
C324   C     0.96301   0.54539   0.70124   0.01267  Uiso   1.00
C325   C     0.99156   0.50599   0.71315   0.01267  Uiso   1.00
C326   C     0.03537   0.48929   0.68409   0.01267  Uiso   1.00
C327   C     0.05086   0.51162   0.64306   0.01267  Uiso   1.00
C328   C     0.02216   0.55117   0.63182   0.01267  Uiso   1.00
C329   C     0.06531   0.44599   0.69751   0.01267  Uiso   1.00
C330   C     0.91320   0.61459   0.57923   0.01267  Uiso   1.00
C331   C     0.89440   0.57219   0.56318   0.01267  Uiso   1.00
C332   C     0.87270   0.56650   0.51829   0.01267  Uiso   1.00
C333   C     0.86960   0.60040   0.48833   0.01267  Uiso   1.00
C334   C     0.88910   0.64270   0.50111   0.01267  Uiso   1.00
C335   C     0.91110   0.64960   0.54727   0.01267  Uiso   1.00
C336   C     0.84680   0.59580   0.43720   0.01267  Uiso   1.00
C337   C     0.02233   0.82325   0.32872   0.01267  Uiso   1.00
C338   C     0.98220   0.80473   0.36145   0.01267  Uiso   1.00
C339   C     0.95320   0.76495   0.35240   0.01267  Uiso   1.00
C340   C     0.96440   0.74109   0.31124   0.01267  Uiso   1.00
C341   C     0.00200   0.75951   0.27847   0.01267  Uiso   1.00
C342   C     0.03070   0.79929   0.28781   0.01267  Uiso   1.00
C343   C     0.93510   0.69689   0.30230   0.01267  Uiso   1.00
C344   C     0.12100   0.88338   0.29471   0.01267  Uiso   1.00
C345   C     0.10480   0.90120   0.25100   0.01267  Uiso   1.00
C346   C     0.14590   0.90310   0.21434   0.01267  Uiso   1.00
C347   C     0.20310   0.88720   0.22136   0.01267  Uiso   1.00
C348   C     0.21930   0.86930   0.26500   0.01267  Uiso   1.00
C349   C     0.17830   0.86740   0.30172   0.01267  Uiso   1.00
C350   C     0.24600   0.89020   0.18100   0.01267  Uiso   1.00
C351   C     0.09605   0.87927   0.40041   0.01267  Uiso   1.00
C352   C     0.12500   0.91906   0.41247   0.01267  Uiso   1.00
C353   C     0.14950   0.92404   0.45737   0.01267  Uiso   1.00
C354   C     0.14510   0.88923   0.49021   0.01267  Uiso   1.00
C355   C     0.11610   0.84944   0.47816   0.01267  Uiso   1.00
C356   C     0.09160   0.84446   0.43326   0.01267  Uiso   1.00
C357   C     0.17090   0.89480   0.53890   0.01267  Uiso   1.00
C358   C     0.00726   0.92589   0.33727   0.01267  Uiso   1.00
C359   C     0.02720   0.97007   0.33974   0.01267  Uiso   1.00
C360   C     0.98840   0.00512   0.34339   0.01267  Uiso   1.00
C361   C     0.92750   0.99826   0.34340   0.01267  Uiso   1.00
C362   C     0.90792   0.95425   0.33911   0.01267  Uiso   1.00
C363   C     0.94760   0.91875   0.33554   0.01267  Uiso   1.00
C364   C     0.88580   0.03601   0.35010   0.01267  Uiso   1.00
C365   C     0.62918   0.62925   0.18059   0.01267  Uiso   1.00
C366   C     0.68550   0.62233   0.16256   0.01267  Uiso   1.00
C367   C     0.73560   0.62241   0.19028   0.01267  Uiso   1.00
C368   C     0.72951   0.63026   0.23836   0.01267  Uiso   1.00
C369   C     0.67410   0.63877   0.25664   0.01267  Uiso   1.00
C370   C     0.62600   0.63843   0.22838   0.01267  Uiso   1.00
C371   C     0.78460   0.62966   0.26813   0.01267  Uiso   1.00
C372   C     0.51187   0.67158   0.14740   0.01267  Uiso   1.00
C373   C     0.53307   0.71538   0.14844   0.01267  Uiso   1.00
C374   C     0.49460   0.75266   0.14840   0.01267  Uiso   1.00
C375   C     0.43492   0.74631   0.14742   0.01267  Uiso   1.00
C376   C     0.41278   0.70362   0.14855   0.01267  Uiso   1.00
C377   C     0.44990   0.66665   0.14865   0.01267  Uiso   1.00
C378   C     0.39180   0.78630   0.14406   0.01267  Uiso   1.00
C379   C     0.52202   0.56922   0.15966   0.01267  Uiso   1.00
C380   C     0.53699   0.54539   0.20124   0.01267  Uiso   1.00
C381   C     0.50844   0.50599   0.21315   0.01267  Uiso   1.00
C382   C     0.46463   0.48929   0.18409   0.01267  Uiso   1.00
C383   C     0.44914   0.51162   0.14306   0.01267  Uiso   1.00
C384   C     0.47784   0.55117   0.13182   0.01267  Uiso   1.00
C385   C     0.43469   0.44599   0.19751   0.01267  Uiso   1.00
C386   C     0.58680   0.61459   0.07923   0.01267  Uiso   1.00
C387   C     0.60560   0.57219   0.06318   0.01267  Uiso   1.00
C388   C     0.62730   0.56650   0.01829   0.01267  Uiso   1.00
C389   C     0.63040   0.60040   0.98833   0.01267  Uiso   1.00
C390   C     0.61090   0.64270   0.00111   0.01267  Uiso   1.00
C391   C     0.58890   0.64960   0.04727   0.01267  Uiso   1.00
C392   C     0.65320   0.59580   0.93720   0.01267  Uiso   1.00
C393   C     0.52233   0.17675   0.17128   0.01267  Uiso   1.00
C394   C     0.48220   0.19527   0.13855   0.01267  Uiso   1.00
C395   C     0.45320   0.23505   0.14760   0.01267  Uiso   1.00
C396   C     0.46440   0.25891   0.18876   0.01267  Uiso   1.00
C397   C     0.50200   0.24049   0.22153   0.01267  Uiso   1.00
C398   C     0.53070   0.20071   0.21219   0.01267  Uiso   1.00
C399   C     0.43510   0.30311   0.19770   0.01267  Uiso   1.00
C400   C     0.62100   0.11662   0.20529   0.01267  Uiso   1.00
C401   C     0.60480   0.09880   0.24900   0.01267  Uiso   1.00
C402   C     0.64590   0.09690   0.28566   0.01267  Uiso   1.00
C403   C     0.70310   0.11280   0.27864   0.01267  Uiso   1.00
C404   C     0.71930   0.13070   0.23500   0.01267  Uiso   1.00
C405   C     0.67830   0.13260   0.19828   0.01267  Uiso   1.00
C406   C     0.74600   0.10980   0.31900   0.01267  Uiso   1.00
C407   C     0.59605   0.12073   0.09959   0.01267  Uiso   1.00
C408   C     0.62500   0.08094   0.08753   0.01267  Uiso   1.00
C409   C     0.64950   0.07596   0.04263   0.01267  Uiso   1.00
C410   C     0.64510   0.11077   0.00979   0.01267  Uiso   1.00
C411   C     0.61610   0.15056   0.02184   0.01267  Uiso   1.00
C412   C     0.59160   0.15554   0.06674   0.01267  Uiso   1.00
C413   C     0.67090   0.10520   0.96110   0.01267  Uiso   1.00
C414   C     0.50726   0.07411   0.16273   0.01267  Uiso   1.00
C415   C     0.52720   0.02993   0.16026   0.01267  Uiso   1.00
C416   C     0.48840   0.99488   0.15661   0.01267  Uiso   1.00
C417   C     0.42750   0.00174   0.15660   0.01267  Uiso   1.00
C418   C     0.40792   0.04575   0.16089   0.01267  Uiso   1.00
C419   C     0.44760   0.08125   0.16446   0.01267  Uiso   1.00
C420   C     0.38580   0.96399   0.14990   0.01267  Uiso   1.00
C421   C     0.12918   0.37075   0.31941   0.01267  Uiso   1.00
C422   C     0.18550   0.37767   0.33744   0.01267  Uiso   1.00
C423   C     0.23560   0.37759   0.30972   0.01267  Uiso   1.00
C424   C     0.22951   0.36974   0.26164   0.01267  Uiso   1.00
C425   C     0.17410   0.36123   0.24336   0.01267  Uiso   1.00
C426   C     0.12600   0.36157   0.27162   0.01267  Uiso   1.00
C427   C     0.28460   0.37034   0.23187   0.01267  Uiso   1.00
C428   C     0.01187   0.32842   0.35260   0.01267  Uiso   1.00
C429   C     0.03307   0.28462   0.35156   0.01267  Uiso   1.00
C430   C     0.99460   0.24734   0.35160   0.01267  Uiso   1.00
C431   C     0.93492   0.25369   0.35258   0.01267  Uiso   1.00
C432   C     0.91278   0.29638   0.35145   0.01267  Uiso   1.00
C433   C     0.94990   0.33335   0.35135   0.01267  Uiso   1.00
C434   C     0.89180   0.21370   0.35594   0.01267  Uiso   1.00
C435   C     0.02202   0.43078   0.34034   0.01267  Uiso   1.00
C436   C     0.03699   0.45461   0.29876   0.01267  Uiso   1.00
C437   C     0.00844   0.49401   0.28685   0.01267  Uiso   1.00
C438   C     0.96463   0.51071   0.31591   0.01267  Uiso   1.00
C439   C     0.94914   0.48838   0.35694   0.01267  Uiso   1.00
C440   C     0.97784   0.44883   0.36818   0.01267  Uiso   1.00
C441   C     0.93469   0.55401   0.30249   0.01267  Uiso   1.00
C442   C     0.08680   0.38541   0.42077   0.01267  Uiso   1.00
C443   C     0.10560   0.42781   0.43682   0.01267  Uiso   1.00
C444   C     0.12730   0.43350   0.48171   0.01267  Uiso   1.00
C445   C     0.13040   0.39960   0.51167   0.01267  Uiso   1.00
C446   C     0.11090   0.35730   0.49889   0.01267  Uiso   1.00
C447   C     0.08890   0.35040   0.45273   0.01267  Uiso   1.00
C448   C     0.15320   0.40420   0.56280   0.01267  Uiso   1.00
O65    O     0.09604   0.31858   0.66554   0.01267  Uiso   1.00
O66    O     0.05618   0.32128   0.73695   0.01267  Uiso   1.00
O67    O     0.77030   0.09000   0.85648   0.01267  Uiso   1.00
O68    O     0.70540   0.12970   0.81300   0.01267  Uiso   1.00
O69    O     0.80860   0.06640   0.45180   0.01267  Uiso   1.00
O70    O     0.84130   0.13480   0.43070   0.01267  Uiso   1.00
O71    O     0.09425   0.92441   0.64954   0.01267  Uiso   1.00
O72    O     0.16778   0.97243   0.64587   0.01267  Uiso   1.00
O73    O     0.16730   0.37402   0.75154   0.01267  Uiso   1.00
O74    O     0.22191   0.36900   0.68703   0.01267  Uiso   1.00
O75    O     0.58501   0.17486   0.84932   0.01267  Uiso   1.00
O76    O     0.65997   0.21911   0.86509   0.01267  Uiso   1.00
O77    O     0.55681   0.56963   0.76199   0.01267  Uiso   1.00
O78    O     0.59857   0.57087   0.83399   0.01267  Uiso   1.00
O79    O     0.33160   0.44520   0.07390   0.01267  Uiso   1.00
O80    O     0.35020   0.37107   0.08926   0.01267  Uiso   1.00
O81    O     0.59604   0.68142   0.83446   0.01267  Uiso   1.00
O82    O     0.55618   0.67872   0.76305   0.01267  Uiso   1.00
O83    O     0.27030   0.91000   0.64352   0.01267  Uiso   1.00
O84    O     0.20540   0.87030   0.68700   0.01267  Uiso   1.00
O85    O     0.30860   0.93360   0.04820   0.01267  Uiso   1.00
O86    O     0.34130   0.86520   0.06930   0.01267  Uiso   1.00
O87    O     0.59425   0.07559   0.85046   0.01267  Uiso   1.00
O88    O     0.66778   0.02757   0.85413   0.01267  Uiso   1.00
O89    O     0.66730   0.62598   0.74846   0.01267  Uiso   1.00
O90    O     0.72191   0.63100   0.81297   0.01267  Uiso   1.00
O91    O     0.08501   0.82514   0.65068   0.01267  Uiso   1.00
O92    O     0.15997   0.78089   0.63491   0.01267  Uiso   1.00
O93    O     0.05681   0.43037   0.73801   0.01267  Uiso   1.00
O94    O     0.09857   0.42913   0.66601   0.01267  Uiso   1.00
O95    O     0.83160   0.55480   0.42610   0.01267  Uiso   1.00
O96    O     0.85020   0.62893   0.41074   0.01267  Uiso   1.00
O97    O     0.90396   0.68142   0.33446   0.01267  Uiso   1.00
O98    O     0.94382   0.67872   0.26305   0.01267  Uiso   1.00
O99    O     0.22970   0.91000   0.14352   0.01267  Uiso   1.00
O100   O     0.29460   0.87030   0.18700   0.01267  Uiso   1.00
O101   O     0.19140   0.93360   0.54820   0.01267  Uiso   1.00
O102   O     0.15870   0.86520   0.56930   0.01267  Uiso   1.00
O103   O     0.90575   0.07559   0.35046   0.01267  Uiso   1.00
O104   O     0.83222   0.02757   0.35413   0.01267  Uiso   1.00
O105   O     0.83270   0.62598   0.24846   0.01267  Uiso   1.00
O106   O     0.77809   0.63100   0.31297   0.01267  Uiso   1.00
O107   O     0.41499   0.82514   0.15068   0.01267  Uiso   1.00
O108   O     0.34003   0.78089   0.13491   0.01267  Uiso   1.00
O109   O     0.44319   0.43037   0.23801   0.01267  Uiso   1.00
O110   O     0.40143   0.42913   0.16601   0.01267  Uiso   1.00
O111   O     0.66840   0.55480   0.92610   0.01267  Uiso   1.00
O112   O     0.64980   0.62893   0.91074   0.01267  Uiso   1.00
O113   O     0.40396   0.31858   0.16554   0.01267  Uiso   1.00
O114   O     0.44382   0.32128   0.23695   0.01267  Uiso   1.00
O115   O     0.72970   0.09000   0.35648   0.01267  Uiso   1.00
O116   O     0.79460   0.12970   0.31300   0.01267  Uiso   1.00
O117   O     0.69140   0.06640   0.95180   0.01267  Uiso   1.00
O118   O     0.65870   0.13480   0.93070   0.01267  Uiso   1.00
O119   O     0.40575   0.92441   0.14954   0.01267  Uiso   1.00
O120   O     0.33222   0.97243   0.14587   0.01267  Uiso   1.00
O121   O     0.33270   0.37402   0.25154   0.01267  Uiso   1.00
O122   O     0.27809   0.36900   0.18703   0.01267  Uiso   1.00
O123   O     0.91499   0.17486   0.34932   0.01267  Uiso   1.00
O124   O     0.84003   0.21911   0.36509   0.01267  Uiso   1.00
O125   O     0.94319   0.56963   0.26199   0.01267  Uiso   1.00
O126   O     0.90143   0.57087   0.33399   0.01267  Uiso   1.00
O127   O     0.16840   0.44520   0.57390   0.01267  Uiso   1.00
O128   O     0.14980   0.37107   0.58926   0.01267  Uiso   1.00
