data_BOXFOK_clean
_audit_creation_date              2014-07-02
_audit_creation_method            'Materials Studio'
_symmetry_space_group_name_H-M    'P1'
_symmetry_Int_Tables_number       1
_symmetry_cell_setting            triclinic
loop_
_symmetry_equiv_pos_as_xyz
  x,y,z
_cell_length_a                    34.8370
_cell_length_b                    34.8370
_cell_length_c                    34.8370
_cell_angle_alpha                 60.0000
_cell_angle_beta                  60.0000
_cell_angle_gamma                 60.0000
loop_
_atom_site_label
_atom_site_type_symbol
_atom_site_fract_x
_atom_site_fract_y
_atom_site_fract_z
_atom_site_U_iso_or_equiv
_atom_site_adp_type
_atom_site_occupancy
Dy1    Dy    0.52276   0.05858   0.94142   0.01267  Uiso   1.00
Dy2    Dy    0.05858   0.52276   0.47724   0.01267  Uiso   1.00
Dy3    Dy    0.94142   0.47724   0.52276   0.01267  Uiso   1.00
Dy4    Dy    0.47724   0.94142   0.05858   0.01267  Uiso   1.00
Dy5    Dy    0.52276   0.94142   0.47724   0.01267  Uiso   1.00
Dy6    Dy    0.05858   0.47724   0.94142   0.01267  Uiso   1.00
Dy7    Dy    0.94142   0.52276   0.05858   0.01267  Uiso   1.00
Dy8    Dy    0.47724   0.05858   0.52276   0.01267  Uiso   1.00
Dy9    Dy    0.52276   0.47724   0.05858   0.01267  Uiso   1.00
Dy10   Dy    0.05858   0.94142   0.52276   0.01267  Uiso   1.00
Dy11   Dy    0.94142   0.05858   0.47724   0.01267  Uiso   1.00
Dy12   Dy    0.47724   0.52276   0.94142   0.01267  Uiso   1.00
Dy13   Dy    0.44142   0.97724   0.55858   0.01267  Uiso   1.00
Dy14   Dy    0.97724   0.44142   0.02276   0.01267  Uiso   1.00
Dy15   Dy    0.02276   0.55858   0.97724   0.01267  Uiso   1.00
Dy16   Dy    0.55858   0.02276   0.44142   0.01267  Uiso   1.00
Dy17   Dy    0.55858   0.97724   0.02276   0.01267  Uiso   1.00
Dy18   Dy    0.02276   0.44142   0.55858   0.01267  Uiso   1.00
Dy19   Dy    0.97724   0.55858   0.44142   0.01267  Uiso   1.00
Dy20   Dy    0.44142   0.02276   0.97724   0.01267  Uiso   1.00
Dy21   Dy    0.02276   0.97724   0.44142   0.01267  Uiso   1.00
Dy22   Dy    0.55858   0.44142   0.97724   0.01267  Uiso   1.00
Dy23   Dy    0.44142   0.55858   0.02276   0.01267  Uiso   1.00
Dy24   Dy    0.97724   0.02276   0.55858   0.01267  Uiso   1.00
H1     H     0.54170   0.05230   0.07470   0.01267  Uiso   1.00
H2     H     0.55490   0.20190   0.00990   0.01267  Uiso   1.00
H3     H     0.55030   0.17310   0.96570   0.01267  Uiso   1.00
H4     H     0.59330   0.01010   0.17010   0.01267  Uiso   1.00
H5     H     0.58900   0.00840   0.12740   0.01267  Uiso   1.00
H6     H     0.63840   0.05640   0.07320   0.01267  Uiso   1.00
H7     H     0.66520   0.00740   0.10500   0.01267  Uiso   1.00
H8     H     0.64460   0.05440   0.11680   0.01267  Uiso   1.00
H9     H     0.49950   0.04330   0.15910   0.01267  Uiso   1.00
H10    H     0.50320   0.04460   0.20240   0.01267  Uiso   1.00
H11    H     0.45760   0.12300   0.18740   0.01267  Uiso   1.00
H12    H     0.43050   0.09630   0.18870   0.01267  Uiso   1.00
H13    H     0.45860   0.12640   0.13940   0.01267  Uiso   1.00
H14    H     0.05230   0.54170   0.33130   0.01267  Uiso   1.00
H15    H     0.20190   0.55490   0.23330   0.01267  Uiso   1.00
H16    H     0.17310   0.55030   0.31090   0.01267  Uiso   1.00
H17    H     0.01010   0.59330   0.22650   0.01267  Uiso   1.00
H18    H     0.00840   0.58900   0.27520   0.01267  Uiso   1.00
H19    H     0.05640   0.63840   0.23200   0.01267  Uiso   1.00
H20    H     0.00740   0.66520   0.22240   0.01267  Uiso   1.00
H21    H     0.05440   0.64460   0.18420   0.01267  Uiso   1.00
H22    H     0.04330   0.49950   0.29810   0.01267  Uiso   1.00
H23    H     0.04460   0.50320   0.24980   0.01267  Uiso   1.00
H24    H     0.12300   0.45760   0.23200   0.01267  Uiso   1.00
H25    H     0.09630   0.43050   0.28450   0.01267  Uiso   1.00
H26    H     0.12640   0.45860   0.27560   0.01267  Uiso   1.00
H27    H     0.07470   0.33130   0.54170   0.01267  Uiso   1.00
H28    H     0.00990   0.23330   0.55490   0.01267  Uiso   1.00
H29    H     0.96570   0.31090   0.55030   0.01267  Uiso   1.00
H30    H     0.17010   0.22650   0.59330   0.01267  Uiso   1.00
H31    H     0.12740   0.27520   0.58900   0.01267  Uiso   1.00
H32    H     0.07320   0.23200   0.63840   0.01267  Uiso   1.00
H33    H     0.10500   0.22240   0.66520   0.01267  Uiso   1.00
H34    H     0.11680   0.18420   0.64460   0.01267  Uiso   1.00
H35    H     0.15910   0.29810   0.49950   0.01267  Uiso   1.00
H36    H     0.20240   0.24980   0.50320   0.01267  Uiso   1.00
H37    H     0.18740   0.23200   0.45760   0.01267  Uiso   1.00
H38    H     0.18870   0.28450   0.43050   0.01267  Uiso   1.00
H39    H     0.13940   0.27560   0.45860   0.01267  Uiso   1.00
H40    H     0.33130   0.07470   0.05230   0.01267  Uiso   1.00
H41    H     0.23330   0.00990   0.20190   0.01267  Uiso   1.00
H42    H     0.31090   0.96570   0.17310   0.01267  Uiso   1.00
H43    H     0.22650   0.17010   0.01010   0.01267  Uiso   1.00
H44    H     0.27520   0.12740   0.00840   0.01267  Uiso   1.00
H45    H     0.23200   0.07320   0.05640   0.01267  Uiso   1.00
H46    H     0.22240   0.10500   0.00740   0.01267  Uiso   1.00
H47    H     0.18420   0.11680   0.05440   0.01267  Uiso   1.00
H48    H     0.29810   0.15910   0.04330   0.01267  Uiso   1.00
H49    H     0.24980   0.20240   0.04460   0.01267  Uiso   1.00
H50    H     0.23200   0.18740   0.12300   0.01267  Uiso   1.00
H51    H     0.28450   0.18870   0.09630   0.01267  Uiso   1.00
H52    H     0.27560   0.13940   0.12640   0.01267  Uiso   1.00
H53    H     0.54170   0.07470   0.33130   0.01267  Uiso   1.00
H54    H     0.55490   0.00990   0.23330   0.01267  Uiso   1.00
H55    H     0.55030   0.96570   0.31090   0.01267  Uiso   1.00
H56    H     0.59330   0.17010   0.22650   0.01267  Uiso   1.00
H57    H     0.58900   0.12740   0.27520   0.01267  Uiso   1.00
H58    H     0.63840   0.07320   0.23200   0.01267  Uiso   1.00
H59    H     0.66520   0.10500   0.22240   0.01267  Uiso   1.00
H60    H     0.64460   0.11680   0.18420   0.01267  Uiso   1.00
H61    H     0.49950   0.15910   0.29810   0.01267  Uiso   1.00
H62    H     0.50320   0.20240   0.24980   0.01267  Uiso   1.00
H63    H     0.45760   0.18740   0.23200   0.01267  Uiso   1.00
H64    H     0.43050   0.18870   0.28450   0.01267  Uiso   1.00
H65    H     0.45860   0.13940   0.27560   0.01267  Uiso   1.00
H66    H     0.05230   0.33130   0.07470   0.01267  Uiso   1.00
H67    H     0.20190   0.23330   0.00990   0.01267  Uiso   1.00
H68    H     0.17310   0.31090   0.96570   0.01267  Uiso   1.00
H69    H     0.01010   0.22650   0.17010   0.01267  Uiso   1.00
H70    H     0.00840   0.27520   0.12740   0.01267  Uiso   1.00
H71    H     0.05640   0.23200   0.07320   0.01267  Uiso   1.00
H72    H     0.00740   0.22240   0.10500   0.01267  Uiso   1.00
H73    H     0.05440   0.18420   0.11680   0.01267  Uiso   1.00
H74    H     0.04330   0.29810   0.15910   0.01267  Uiso   1.00
H75    H     0.04460   0.24980   0.20240   0.01267  Uiso   1.00
H76    H     0.12300   0.23200   0.18740   0.01267  Uiso   1.00
H77    H     0.09630   0.28450   0.18870   0.01267  Uiso   1.00
H78    H     0.12640   0.27560   0.13940   0.01267  Uiso   1.00
H79    H     0.07470   0.54170   0.05230   0.01267  Uiso   1.00
H80    H     0.00990   0.55490   0.20190   0.01267  Uiso   1.00
H81    H     0.96570   0.55030   0.17310   0.01267  Uiso   1.00
H82    H     0.17010   0.59330   0.01010   0.01267  Uiso   1.00
H83    H     0.12740   0.58900   0.00840   0.01267  Uiso   1.00
H84    H     0.07320   0.63840   0.05640   0.01267  Uiso   1.00
H85    H     0.10500   0.66520   0.00740   0.01267  Uiso   1.00
H86    H     0.11680   0.64460   0.05440   0.01267  Uiso   1.00
H87    H     0.15910   0.49950   0.04330   0.01267  Uiso   1.00
H88    H     0.20240   0.50320   0.04460   0.01267  Uiso   1.00
H89    H     0.18740   0.45760   0.12300   0.01267  Uiso   1.00
H90    H     0.18870   0.43050   0.09630   0.01267  Uiso   1.00
H91    H     0.13940   0.45860   0.12640   0.01267  Uiso   1.00
H92    H     0.33130   0.05230   0.54170   0.01267  Uiso   1.00
H93    H     0.23330   0.20190   0.55490   0.01267  Uiso   1.00
H94    H     0.31090   0.17310   0.55030   0.01267  Uiso   1.00
H95    H     0.22650   0.01010   0.59330   0.01267  Uiso   1.00
H96    H     0.27520   0.00840   0.58900   0.01267  Uiso   1.00
H97    H     0.23200   0.05640   0.63840   0.01267  Uiso   1.00
H98    H     0.22240   0.00740   0.66520   0.01267  Uiso   1.00
H99    H     0.18420   0.05440   0.64460   0.01267  Uiso   1.00
H100   H     0.29810   0.04330   0.49950   0.01267  Uiso   1.00
H101   H     0.24980   0.04460   0.50320   0.01267  Uiso   1.00
H102   H     0.23200   0.12300   0.45760   0.01267  Uiso   1.00
H103   H     0.28450   0.09630   0.43050   0.01267  Uiso   1.00
H104   H     0.27560   0.12640   0.45860   0.01267  Uiso   1.00
H105   H     0.54170   0.33130   0.05230   0.01267  Uiso   1.00
H106   H     0.55490   0.23330   0.20190   0.01267  Uiso   1.00
H107   H     0.55030   0.31090   0.17310   0.01267  Uiso   1.00
H108   H     0.59330   0.22650   0.01010   0.01267  Uiso   1.00
H109   H     0.58900   0.27520   0.00840   0.01267  Uiso   1.00
H110   H     0.63840   0.23200   0.05640   0.01267  Uiso   1.00
H111   H     0.66520   0.22240   0.00740   0.01267  Uiso   1.00
H112   H     0.64460   0.18420   0.05440   0.01267  Uiso   1.00
H113   H     0.49950   0.29810   0.04330   0.01267  Uiso   1.00
H114   H     0.50320   0.24980   0.04460   0.01267  Uiso   1.00
H115   H     0.45760   0.23200   0.12300   0.01267  Uiso   1.00
H116   H     0.43050   0.28450   0.09630   0.01267  Uiso   1.00
H117   H     0.45860   0.27560   0.12640   0.01267  Uiso   1.00
H118   H     0.05230   0.07470   0.54170   0.01267  Uiso   1.00
H119   H     0.20190   0.00990   0.55490   0.01267  Uiso   1.00
H120   H     0.17310   0.96570   0.55030   0.01267  Uiso   1.00
H121   H     0.01010   0.17010   0.59330   0.01267  Uiso   1.00
H122   H     0.00840   0.12740   0.58900   0.01267  Uiso   1.00
H123   H     0.05640   0.07320   0.63840   0.01267  Uiso   1.00
H124   H     0.00740   0.10500   0.66520   0.01267  Uiso   1.00
H125   H     0.05440   0.11680   0.64460   0.01267  Uiso   1.00
H126   H     0.04330   0.15910   0.49950   0.01267  Uiso   1.00
H127   H     0.04460   0.20240   0.50320   0.01267  Uiso   1.00
H128   H     0.12300   0.18740   0.45760   0.01267  Uiso   1.00
H129   H     0.09630   0.18870   0.43050   0.01267  Uiso   1.00
H130   H     0.12640   0.13940   0.45860   0.01267  Uiso   1.00
H131   H     0.07470   0.05230   0.33130   0.01267  Uiso   1.00
H132   H     0.00990   0.20190   0.23330   0.01267  Uiso   1.00
H133   H     0.96570   0.17310   0.31090   0.01267  Uiso   1.00
H134   H     0.17010   0.01010   0.22650   0.01267  Uiso   1.00
H135   H     0.12740   0.00840   0.27520   0.01267  Uiso   1.00
H136   H     0.07320   0.05640   0.23200   0.01267  Uiso   1.00
H137   H     0.10500   0.00740   0.22240   0.01267  Uiso   1.00
H138   H     0.11680   0.05440   0.18420   0.01267  Uiso   1.00
H139   H     0.15910   0.04330   0.29810   0.01267  Uiso   1.00
H140   H     0.20240   0.04460   0.24980   0.01267  Uiso   1.00
H141   H     0.18740   0.12300   0.23200   0.01267  Uiso   1.00
H142   H     0.18870   0.09630   0.28450   0.01267  Uiso   1.00
H143   H     0.13940   0.12640   0.27560   0.01267  Uiso   1.00
H144   H     0.33130   0.54170   0.07470   0.01267  Uiso   1.00
H145   H     0.23330   0.55490   0.00990   0.01267  Uiso   1.00
H146   H     0.31090   0.55030   0.96570   0.01267  Uiso   1.00
H147   H     0.22650   0.59330   0.17010   0.01267  Uiso   1.00
H148   H     0.27520   0.58900   0.12740   0.01267  Uiso   1.00
H149   H     0.23200   0.63840   0.07320   0.01267  Uiso   1.00
H150   H     0.22240   0.66520   0.10500   0.01267  Uiso   1.00
H151   H     0.18420   0.64460   0.11680   0.01267  Uiso   1.00
H152   H     0.29810   0.49950   0.15910   0.01267  Uiso   1.00
H153   H     0.24980   0.50320   0.20240   0.01267  Uiso   1.00
H154   H     0.23200   0.45760   0.18740   0.01267  Uiso   1.00
H155   H     0.28450   0.43050   0.18870   0.01267  Uiso   1.00
H156   H     0.27560   0.45860   0.13940   0.01267  Uiso   1.00
H157   H     0.44770   0.95830   0.42530   0.01267  Uiso   1.00
H158   H     0.29810   0.94510   0.49010   0.01267  Uiso   1.00
H159   H     0.32690   0.94970   0.53430   0.01267  Uiso   1.00
H160   H     0.48990   0.90670   0.32990   0.01267  Uiso   1.00
H161   H     0.49160   0.91100   0.37260   0.01267  Uiso   1.00
H162   H     0.44360   0.86160   0.42680   0.01267  Uiso   1.00
H163   H     0.49260   0.83480   0.39500   0.01267  Uiso   1.00
H164   H     0.44560   0.85540   0.38320   0.01267  Uiso   1.00
H165   H     0.45670   0.00050   0.34090   0.01267  Uiso   1.00
H166   H     0.45540   0.99680   0.29760   0.01267  Uiso   1.00
H167   H     0.37700   0.04240   0.31260   0.01267  Uiso   1.00
H168   H     0.40370   0.06950   0.31130   0.01267  Uiso   1.00
H169   H     0.37360   0.04140   0.36060   0.01267  Uiso   1.00
H170   H     0.95830   0.44770   0.16870   0.01267  Uiso   1.00
H171   H     0.94510   0.29810   0.26670   0.01267  Uiso   1.00
H172   H     0.94970   0.32690   0.18910   0.01267  Uiso   1.00
H173   H     0.90670   0.48990   0.27350   0.01267  Uiso   1.00
H174   H     0.91100   0.49160   0.22480   0.01267  Uiso   1.00
H175   H     0.86160   0.44360   0.26800   0.01267  Uiso   1.00
H176   H     0.83480   0.49260   0.27760   0.01267  Uiso   1.00
H177   H     0.85540   0.44560   0.31580   0.01267  Uiso   1.00
H178   H     0.00050   0.45670   0.20190   0.01267  Uiso   1.00
H179   H     0.99680   0.45540   0.25020   0.01267  Uiso   1.00
H180   H     0.04240   0.37700   0.26800   0.01267  Uiso   1.00
H181   H     0.06950   0.40370   0.21550   0.01267  Uiso   1.00
H182   H     0.04140   0.37360   0.22440   0.01267  Uiso   1.00
H183   H     0.16870   0.42530   0.95830   0.01267  Uiso   1.00
H184   H     0.26670   0.49010   0.94510   0.01267  Uiso   1.00
H185   H     0.18910   0.53430   0.94970   0.01267  Uiso   1.00
H186   H     0.27350   0.32990   0.90670   0.01267  Uiso   1.00
H187   H     0.22480   0.37260   0.91100   0.01267  Uiso   1.00
H188   H     0.26800   0.42680   0.86160   0.01267  Uiso   1.00
H189   H     0.27760   0.39500   0.83480   0.01267  Uiso   1.00
H190   H     0.31580   0.38320   0.85540   0.01267  Uiso   1.00
H191   H     0.20190   0.34090   0.00050   0.01267  Uiso   1.00
H192   H     0.25020   0.29760   0.99680   0.01267  Uiso   1.00
H193   H     0.26800   0.31260   0.04240   0.01267  Uiso   1.00
H194   H     0.21550   0.31130   0.06950   0.01267  Uiso   1.00
H195   H     0.22440   0.36060   0.04140   0.01267  Uiso   1.00
H196   H     0.42530   0.16870   0.44770   0.01267  Uiso   1.00
H197   H     0.49010   0.26670   0.29810   0.01267  Uiso   1.00
H198   H     0.53430   0.18910   0.32690   0.01267  Uiso   1.00
H199   H     0.32990   0.27350   0.48990   0.01267  Uiso   1.00
H200   H     0.37260   0.22480   0.49160   0.01267  Uiso   1.00
H201   H     0.42680   0.26800   0.44360   0.01267  Uiso   1.00
H202   H     0.39500   0.27760   0.49260   0.01267  Uiso   1.00
H203   H     0.38320   0.31580   0.44560   0.01267  Uiso   1.00
H204   H     0.34090   0.20190   0.45670   0.01267  Uiso   1.00
H205   H     0.29760   0.25020   0.45540   0.01267  Uiso   1.00
H206   H     0.31260   0.26800   0.37700   0.01267  Uiso   1.00
H207   H     0.31130   0.21550   0.40370   0.01267  Uiso   1.00
H208   H     0.36060   0.22440   0.37360   0.01267  Uiso   1.00
H209   H     0.42530   0.95830   0.16870   0.01267  Uiso   1.00
H210   H     0.49010   0.94510   0.26670   0.01267  Uiso   1.00
H211   H     0.53430   0.94970   0.18910   0.01267  Uiso   1.00
H212   H     0.32990   0.90670   0.27350   0.01267  Uiso   1.00
H213   H     0.37260   0.91100   0.22480   0.01267  Uiso   1.00
H214   H     0.42680   0.86160   0.26800   0.01267  Uiso   1.00
H215   H     0.39500   0.83480   0.27760   0.01267  Uiso   1.00
H216   H     0.38320   0.85540   0.31580   0.01267  Uiso   1.00
H217   H     0.34090   0.00050   0.20190   0.01267  Uiso   1.00
H218   H     0.29760   0.99680   0.25020   0.01267  Uiso   1.00
H219   H     0.31260   0.04240   0.26800   0.01267  Uiso   1.00
H220   H     0.31130   0.06950   0.21550   0.01267  Uiso   1.00
H221   H     0.36060   0.04140   0.22440   0.01267  Uiso   1.00
H222   H     0.16870   0.44770   0.42530   0.01267  Uiso   1.00
H223   H     0.26670   0.29810   0.49010   0.01267  Uiso   1.00
H224   H     0.18910   0.32690   0.53430   0.01267  Uiso   1.00
H225   H     0.27350   0.48990   0.32990   0.01267  Uiso   1.00
H226   H     0.22480   0.49160   0.37260   0.01267  Uiso   1.00
H227   H     0.26800   0.44360   0.42680   0.01267  Uiso   1.00
H228   H     0.27760   0.49260   0.39500   0.01267  Uiso   1.00
H229   H     0.31580   0.44560   0.38320   0.01267  Uiso   1.00
H230   H     0.20190   0.45670   0.34090   0.01267  Uiso   1.00
H231   H     0.25020   0.45540   0.29760   0.01267  Uiso   1.00
H232   H     0.26800   0.37700   0.31260   0.01267  Uiso   1.00
H233   H     0.21550   0.40370   0.31130   0.01267  Uiso   1.00
H234   H     0.22440   0.37360   0.36060   0.01267  Uiso   1.00
H235   H     0.95830   0.42530   0.44770   0.01267  Uiso   1.00
H236   H     0.94510   0.49010   0.29810   0.01267  Uiso   1.00
H237   H     0.94970   0.53430   0.32690   0.01267  Uiso   1.00
H238   H     0.90670   0.32990   0.48990   0.01267  Uiso   1.00
H239   H     0.91100   0.37260   0.49160   0.01267  Uiso   1.00
H240   H     0.86160   0.42680   0.44360   0.01267  Uiso   1.00
H241   H     0.83480   0.39500   0.49260   0.01267  Uiso   1.00
H242   H     0.85540   0.38320   0.44560   0.01267  Uiso   1.00
H243   H     0.00050   0.34090   0.45670   0.01267  Uiso   1.00
H244   H     0.99680   0.29760   0.45540   0.01267  Uiso   1.00
H245   H     0.04240   0.31260   0.37700   0.01267  Uiso   1.00
H246   H     0.06950   0.31130   0.40370   0.01267  Uiso   1.00
H247   H     0.04140   0.36060   0.37360   0.01267  Uiso   1.00
H248   H     0.44770   0.16870   0.95830   0.01267  Uiso   1.00
H249   H     0.29810   0.26670   0.94510   0.01267  Uiso   1.00
H250   H     0.32690   0.18910   0.94970   0.01267  Uiso   1.00
H251   H     0.48990   0.27350   0.90670   0.01267  Uiso   1.00
H252   H     0.49160   0.22480   0.91100   0.01267  Uiso   1.00
H253   H     0.44360   0.26800   0.86160   0.01267  Uiso   1.00
H254   H     0.49260   0.27760   0.83480   0.01267  Uiso   1.00
H255   H     0.44560   0.31580   0.85540   0.01267  Uiso   1.00
H256   H     0.45670   0.20190   0.00050   0.01267  Uiso   1.00
H257   H     0.45540   0.25020   0.99680   0.01267  Uiso   1.00
H258   H     0.37700   0.26800   0.04240   0.01267  Uiso   1.00
H259   H     0.40370   0.21550   0.06950   0.01267  Uiso   1.00
H260   H     0.37360   0.22440   0.04140   0.01267  Uiso   1.00
H261   H     0.16870   0.95830   0.44770   0.01267  Uiso   1.00
H262   H     0.26670   0.94510   0.29810   0.01267  Uiso   1.00
H263   H     0.18910   0.94970   0.32690   0.01267  Uiso   1.00
H264   H     0.27350   0.90670   0.48990   0.01267  Uiso   1.00
H265   H     0.22480   0.91100   0.49160   0.01267  Uiso   1.00
H266   H     0.26800   0.86160   0.44360   0.01267  Uiso   1.00
H267   H     0.27760   0.83480   0.49260   0.01267  Uiso   1.00
H268   H     0.31580   0.85540   0.44560   0.01267  Uiso   1.00
H269   H     0.20190   0.00050   0.45670   0.01267  Uiso   1.00
H270   H     0.25020   0.99680   0.45540   0.01267  Uiso   1.00
H271   H     0.26800   0.04240   0.37700   0.01267  Uiso   1.00
H272   H     0.21550   0.06950   0.40370   0.01267  Uiso   1.00
H273   H     0.22440   0.04140   0.37360   0.01267  Uiso   1.00
H274   H     0.42530   0.44770   0.95830   0.01267  Uiso   1.00
H275   H     0.49010   0.29810   0.94510   0.01267  Uiso   1.00
H276   H     0.53430   0.32690   0.94970   0.01267  Uiso   1.00
H277   H     0.32990   0.48990   0.90670   0.01267  Uiso   1.00
H278   H     0.37260   0.49160   0.91100   0.01267  Uiso   1.00
H279   H     0.42680   0.44360   0.86160   0.01267  Uiso   1.00
H280   H     0.39500   0.49260   0.83480   0.01267  Uiso   1.00
H281   H     0.38320   0.44560   0.85540   0.01267  Uiso   1.00
H282   H     0.34090   0.45670   0.00050   0.01267  Uiso   1.00
H283   H     0.29760   0.45540   0.99680   0.01267  Uiso   1.00
H284   H     0.31260   0.37700   0.04240   0.01267  Uiso   1.00
H285   H     0.31130   0.40370   0.06950   0.01267  Uiso   1.00
H286   H     0.36060   0.37360   0.04140   0.01267  Uiso   1.00
H287   H     0.44770   0.42530   0.16870   0.01267  Uiso   1.00
H288   H     0.29810   0.49010   0.26670   0.01267  Uiso   1.00
H289   H     0.32690   0.53430   0.18910   0.01267  Uiso   1.00
H290   H     0.48990   0.32990   0.27350   0.01267  Uiso   1.00
H291   H     0.49160   0.37260   0.22480   0.01267  Uiso   1.00
H292   H     0.44360   0.42680   0.26800   0.01267  Uiso   1.00
H293   H     0.49260   0.39500   0.27760   0.01267  Uiso   1.00
H294   H     0.44560   0.38320   0.31580   0.01267  Uiso   1.00
H295   H     0.45670   0.34090   0.20190   0.01267  Uiso   1.00
H296   H     0.45540   0.29760   0.25020   0.01267  Uiso   1.00
H297   H     0.37700   0.31260   0.26800   0.01267  Uiso   1.00
H298   H     0.40370   0.31130   0.21550   0.01267  Uiso   1.00
H299   H     0.37360   0.36060   0.22440   0.01267  Uiso   1.00
H300   H     0.95830   0.16870   0.42530   0.01267  Uiso   1.00
H301   H     0.94510   0.26670   0.49010   0.01267  Uiso   1.00
H302   H     0.94970   0.18910   0.53430   0.01267  Uiso   1.00
H303   H     0.90670   0.27350   0.32990   0.01267  Uiso   1.00
H304   H     0.91100   0.22480   0.37260   0.01267  Uiso   1.00
H305   H     0.86160   0.26800   0.42680   0.01267  Uiso   1.00
H306   H     0.83480   0.27760   0.39500   0.01267  Uiso   1.00
H307   H     0.85540   0.31580   0.38320   0.01267  Uiso   1.00
H308   H     0.00050   0.20190   0.34090   0.01267  Uiso   1.00
H309   H     0.99680   0.25020   0.29760   0.01267  Uiso   1.00
H310   H     0.04240   0.26800   0.31260   0.01267  Uiso   1.00
H311   H     0.06950   0.21550   0.31130   0.01267  Uiso   1.00
H312   H     0.04140   0.22440   0.36060   0.01267  Uiso   1.00
H313   H     0.45830   0.94770   0.92530   0.01267  Uiso   1.00
H314   H     0.44510   0.79810   0.99010   0.01267  Uiso   1.00
H315   H     0.44970   0.82690   0.03430   0.01267  Uiso   1.00
H316   H     0.40670   0.98990   0.82990   0.01267  Uiso   1.00
H317   H     0.41100   0.99160   0.87260   0.01267  Uiso   1.00
H318   H     0.36160   0.94360   0.92680   0.01267  Uiso   1.00
H319   H     0.33480   0.99260   0.89500   0.01267  Uiso   1.00
H320   H     0.35540   0.94560   0.88320   0.01267  Uiso   1.00
H321   H     0.50050   0.95670   0.84090   0.01267  Uiso   1.00
H322   H     0.49680   0.95540   0.79760   0.01267  Uiso   1.00
H323   H     0.54240   0.87700   0.81260   0.01267  Uiso   1.00
H324   H     0.56950   0.90370   0.81130   0.01267  Uiso   1.00
H325   H     0.54140   0.87360   0.86060   0.01267  Uiso   1.00
H326   H     0.94770   0.45830   0.66870   0.01267  Uiso   1.00
H327   H     0.79810   0.44510   0.76670   0.01267  Uiso   1.00
H328   H     0.82690   0.44970   0.68910   0.01267  Uiso   1.00
H329   H     0.98990   0.40670   0.77350   0.01267  Uiso   1.00
H330   H     0.99160   0.41100   0.72480   0.01267  Uiso   1.00
H331   H     0.94360   0.36160   0.76800   0.01267  Uiso   1.00
H332   H     0.99260   0.33480   0.77760   0.01267  Uiso   1.00
H333   H     0.94560   0.35540   0.81580   0.01267  Uiso   1.00
H334   H     0.95670   0.50050   0.70190   0.01267  Uiso   1.00
H335   H     0.95540   0.49680   0.75020   0.01267  Uiso   1.00
H336   H     0.87700   0.54240   0.76800   0.01267  Uiso   1.00
H337   H     0.90370   0.56950   0.71550   0.01267  Uiso   1.00
H338   H     0.87360   0.54140   0.72440   0.01267  Uiso   1.00
H339   H     0.92530   0.66870   0.45830   0.01267  Uiso   1.00
H340   H     0.99010   0.76670   0.44510   0.01267  Uiso   1.00
H341   H     0.03430   0.68910   0.44970   0.01267  Uiso   1.00
H342   H     0.82990   0.77350   0.40670   0.01267  Uiso   1.00
H343   H     0.87260   0.72480   0.41100   0.01267  Uiso   1.00
H344   H     0.92680   0.76800   0.36160   0.01267  Uiso   1.00
H345   H     0.89500   0.77760   0.33480   0.01267  Uiso   1.00
H346   H     0.88320   0.81580   0.35540   0.01267  Uiso   1.00
H347   H     0.84090   0.70190   0.50050   0.01267  Uiso   1.00
H348   H     0.79760   0.75020   0.49680   0.01267  Uiso   1.00
H349   H     0.81260   0.76800   0.54240   0.01267  Uiso   1.00
H350   H     0.81130   0.71550   0.56950   0.01267  Uiso   1.00
H351   H     0.86060   0.72440   0.54140   0.01267  Uiso   1.00
H352   H     0.66870   0.92530   0.94770   0.01267  Uiso   1.00
H353   H     0.76670   0.99010   0.79810   0.01267  Uiso   1.00
H354   H     0.68910   0.03430   0.82690   0.01267  Uiso   1.00
H355   H     0.77350   0.82990   0.98990   0.01267  Uiso   1.00
H356   H     0.72480   0.87260   0.99160   0.01267  Uiso   1.00
H357   H     0.76800   0.92680   0.94360   0.01267  Uiso   1.00
H358   H     0.77760   0.89500   0.99260   0.01267  Uiso   1.00
H359   H     0.81580   0.88320   0.94560   0.01267  Uiso   1.00
H360   H     0.70190   0.84090   0.95670   0.01267  Uiso   1.00
H361   H     0.75020   0.79760   0.95540   0.01267  Uiso   1.00
H362   H     0.76800   0.81260   0.87700   0.01267  Uiso   1.00
H363   H     0.71550   0.81130   0.90370   0.01267  Uiso   1.00
H364   H     0.72440   0.86060   0.87360   0.01267  Uiso   1.00
H365   H     0.45830   0.92530   0.66870   0.01267  Uiso   1.00
H366   H     0.44510   0.99010   0.76670   0.01267  Uiso   1.00
H367   H     0.44970   0.03430   0.68910   0.01267  Uiso   1.00
H368   H     0.40670   0.82990   0.77350   0.01267  Uiso   1.00
H369   H     0.41100   0.87260   0.72480   0.01267  Uiso   1.00
H370   H     0.36160   0.92680   0.76800   0.01267  Uiso   1.00
H371   H     0.33480   0.89500   0.77760   0.01267  Uiso   1.00
H372   H     0.35540   0.88320   0.81580   0.01267  Uiso   1.00
H373   H     0.50050   0.84090   0.70190   0.01267  Uiso   1.00
H374   H     0.49680   0.79760   0.75020   0.01267  Uiso   1.00
H375   H     0.54240   0.81260   0.76800   0.01267  Uiso   1.00
H376   H     0.56950   0.81130   0.71550   0.01267  Uiso   1.00
H377   H     0.54140   0.86060   0.72440   0.01267  Uiso   1.00
H378   H     0.94770   0.66870   0.92530   0.01267  Uiso   1.00
H379   H     0.79810   0.76670   0.99010   0.01267  Uiso   1.00
H380   H     0.82690   0.68910   0.03430   0.01267  Uiso   1.00
H381   H     0.98990   0.77350   0.82990   0.01267  Uiso   1.00
H382   H     0.99160   0.72480   0.87260   0.01267  Uiso   1.00
H383   H     0.94360   0.76800   0.92680   0.01267  Uiso   1.00
H384   H     0.99260   0.77760   0.89500   0.01267  Uiso   1.00
H385   H     0.94560   0.81580   0.88320   0.01267  Uiso   1.00
H386   H     0.95670   0.70190   0.84090   0.01267  Uiso   1.00
H387   H     0.95540   0.75020   0.79760   0.01267  Uiso   1.00
H388   H     0.87700   0.76800   0.81260   0.01267  Uiso   1.00
H389   H     0.90370   0.71550   0.81130   0.01267  Uiso   1.00
H390   H     0.87360   0.72440   0.86060   0.01267  Uiso   1.00
H391   H     0.92530   0.45830   0.94770   0.01267  Uiso   1.00
H392   H     0.99010   0.44510   0.79810   0.01267  Uiso   1.00
H393   H     0.03430   0.44970   0.82690   0.01267  Uiso   1.00
H394   H     0.82990   0.40670   0.98990   0.01267  Uiso   1.00
H395   H     0.87260   0.41100   0.99160   0.01267  Uiso   1.00
H396   H     0.92680   0.36160   0.94360   0.01267  Uiso   1.00
H397   H     0.89500   0.33480   0.99260   0.01267  Uiso   1.00
H398   H     0.88320   0.35540   0.94560   0.01267  Uiso   1.00
H399   H     0.84090   0.50050   0.95670   0.01267  Uiso   1.00
H400   H     0.79760   0.49680   0.95540   0.01267  Uiso   1.00
H401   H     0.81260   0.54240   0.87700   0.01267  Uiso   1.00
H402   H     0.81130   0.56950   0.90370   0.01267  Uiso   1.00
H403   H     0.86060   0.54140   0.87360   0.01267  Uiso   1.00
H404   H     0.66870   0.94770   0.45830   0.01267  Uiso   1.00
H405   H     0.76670   0.79810   0.44510   0.01267  Uiso   1.00
H406   H     0.68910   0.82690   0.44970   0.01267  Uiso   1.00
H407   H     0.77350   0.98990   0.40670   0.01267  Uiso   1.00
H408   H     0.72480   0.99160   0.41100   0.01267  Uiso   1.00
H409   H     0.76800   0.94360   0.36160   0.01267  Uiso   1.00
H410   H     0.77760   0.99260   0.33480   0.01267  Uiso   1.00
H411   H     0.81580   0.94560   0.35540   0.01267  Uiso   1.00
H412   H     0.70190   0.95670   0.50050   0.01267  Uiso   1.00
H413   H     0.75020   0.95540   0.49680   0.01267  Uiso   1.00
H414   H     0.76800   0.87700   0.54240   0.01267  Uiso   1.00
H415   H     0.71550   0.90370   0.56950   0.01267  Uiso   1.00
H416   H     0.72440   0.87360   0.54140   0.01267  Uiso   1.00
H417   H     0.45830   0.66870   0.94770   0.01267  Uiso   1.00
H418   H     0.44510   0.76670   0.79810   0.01267  Uiso   1.00
H419   H     0.44970   0.68910   0.82690   0.01267  Uiso   1.00
H420   H     0.40670   0.77350   0.98990   0.01267  Uiso   1.00
H421   H     0.41100   0.72480   0.99160   0.01267  Uiso   1.00
H422   H     0.36160   0.76800   0.94360   0.01267  Uiso   1.00
H423   H     0.33480   0.77760   0.99260   0.01267  Uiso   1.00
H424   H     0.35540   0.81580   0.94560   0.01267  Uiso   1.00
H425   H     0.50050   0.70190   0.95670   0.01267  Uiso   1.00
H426   H     0.49680   0.75020   0.95540   0.01267  Uiso   1.00
H427   H     0.54240   0.76800   0.87700   0.01267  Uiso   1.00
H428   H     0.56950   0.71550   0.90370   0.01267  Uiso   1.00
H429   H     0.54140   0.72440   0.87360   0.01267  Uiso   1.00
H430   H     0.94770   0.92530   0.45830   0.01267  Uiso   1.00
H431   H     0.79810   0.99010   0.44510   0.01267  Uiso   1.00
H432   H     0.82690   0.03430   0.44970   0.01267  Uiso   1.00
H433   H     0.98990   0.82990   0.40670   0.01267  Uiso   1.00
H434   H     0.99160   0.87260   0.41100   0.01267  Uiso   1.00
H435   H     0.94360   0.92680   0.36160   0.01267  Uiso   1.00
H436   H     0.99260   0.89500   0.33480   0.01267  Uiso   1.00
H437   H     0.94560   0.88320   0.35540   0.01267  Uiso   1.00
H438   H     0.95670   0.84090   0.50050   0.01267  Uiso   1.00
H439   H     0.95540   0.79760   0.49680   0.01267  Uiso   1.00
H440   H     0.87700   0.81260   0.54240   0.01267  Uiso   1.00
H441   H     0.90370   0.81130   0.56950   0.01267  Uiso   1.00
H442   H     0.87360   0.86060   0.54140   0.01267  Uiso   1.00
H443   H     0.92530   0.94770   0.66870   0.01267  Uiso   1.00
H444   H     0.99010   0.79810   0.76670   0.01267  Uiso   1.00
H445   H     0.03430   0.82690   0.68910   0.01267  Uiso   1.00
H446   H     0.82990   0.98990   0.77350   0.01267  Uiso   1.00
H447   H     0.87260   0.99160   0.72480   0.01267  Uiso   1.00
H448   H     0.92680   0.94360   0.76800   0.01267  Uiso   1.00
H449   H     0.89500   0.99260   0.77760   0.01267  Uiso   1.00
H450   H     0.88320   0.94560   0.81580   0.01267  Uiso   1.00
H451   H     0.84090   0.95670   0.70190   0.01267  Uiso   1.00
H452   H     0.79760   0.95540   0.75020   0.01267  Uiso   1.00
H453   H     0.81260   0.87700   0.76800   0.01267  Uiso   1.00
H454   H     0.81130   0.90370   0.71550   0.01267  Uiso   1.00
H455   H     0.86060   0.87360   0.72440   0.01267  Uiso   1.00
H456   H     0.66870   0.45830   0.92530   0.01267  Uiso   1.00
H457   H     0.76670   0.44510   0.99010   0.01267  Uiso   1.00
H458   H     0.68910   0.44970   0.03430   0.01267  Uiso   1.00
H459   H     0.77350   0.40670   0.82990   0.01267  Uiso   1.00
H460   H     0.72480   0.41100   0.87260   0.01267  Uiso   1.00
H461   H     0.76800   0.36160   0.92680   0.01267  Uiso   1.00
H462   H     0.77760   0.33480   0.89500   0.01267  Uiso   1.00
H463   H     0.81580   0.35540   0.88320   0.01267  Uiso   1.00
H464   H     0.70190   0.50050   0.84090   0.01267  Uiso   1.00
H465   H     0.75020   0.49680   0.79760   0.01267  Uiso   1.00
H466   H     0.76800   0.54240   0.81260   0.01267  Uiso   1.00
H467   H     0.71550   0.56950   0.81130   0.01267  Uiso   1.00
H468   H     0.72440   0.54140   0.86060   0.01267  Uiso   1.00
H469   H     0.55230   0.04170   0.57470   0.01267  Uiso   1.00
H470   H     0.70190   0.05490   0.50990   0.01267  Uiso   1.00
H471   H     0.67310   0.05030   0.46570   0.01267  Uiso   1.00
H472   H     0.51010   0.09330   0.67010   0.01267  Uiso   1.00
H473   H     0.50840   0.08900   0.62740   0.01267  Uiso   1.00
H474   H     0.55640   0.13840   0.57320   0.01267  Uiso   1.00
H475   H     0.50740   0.16520   0.60500   0.01267  Uiso   1.00
H476   H     0.55440   0.14460   0.61680   0.01267  Uiso   1.00
H477   H     0.54330   0.99950   0.65910   0.01267  Uiso   1.00
H478   H     0.54460   0.00320   0.70240   0.01267  Uiso   1.00
H479   H     0.62300   0.95760   0.68740   0.01267  Uiso   1.00
H480   H     0.59630   0.93050   0.68870   0.01267  Uiso   1.00
H481   H     0.62640   0.95860   0.63940   0.01267  Uiso   1.00
H482   H     0.04170   0.55230   0.83130   0.01267  Uiso   1.00
H483   H     0.05490   0.70190   0.73330   0.01267  Uiso   1.00
H484   H     0.05030   0.67310   0.81090   0.01267  Uiso   1.00
H485   H     0.09330   0.51010   0.72650   0.01267  Uiso   1.00
H486   H     0.08900   0.50840   0.77520   0.01267  Uiso   1.00
H487   H     0.13840   0.55640   0.73200   0.01267  Uiso   1.00
H488   H     0.16520   0.50740   0.72240   0.01267  Uiso   1.00
H489   H     0.14460   0.55440   0.68420   0.01267  Uiso   1.00
H490   H     0.99950   0.54330   0.79810   0.01267  Uiso   1.00
H491   H     0.00320   0.54460   0.74980   0.01267  Uiso   1.00
H492   H     0.95760   0.62300   0.73200   0.01267  Uiso   1.00
H493   H     0.93050   0.59630   0.78450   0.01267  Uiso   1.00
H494   H     0.95860   0.62640   0.77560   0.01267  Uiso   1.00
H495   H     0.83130   0.57470   0.04170   0.01267  Uiso   1.00
H496   H     0.73330   0.50990   0.05490   0.01267  Uiso   1.00
H497   H     0.81090   0.46570   0.05030   0.01267  Uiso   1.00
H498   H     0.72650   0.67010   0.09330   0.01267  Uiso   1.00
H499   H     0.77520   0.62740   0.08900   0.01267  Uiso   1.00
H500   H     0.73200   0.57320   0.13840   0.01267  Uiso   1.00
H501   H     0.72240   0.60500   0.16520   0.01267  Uiso   1.00
H502   H     0.68420   0.61680   0.14460   0.01267  Uiso   1.00
H503   H     0.79810   0.65910   0.99950   0.01267  Uiso   1.00
H504   H     0.74980   0.70240   0.00320   0.01267  Uiso   1.00
H505   H     0.73200   0.68740   0.95760   0.01267  Uiso   1.00
H506   H     0.78450   0.68870   0.93050   0.01267  Uiso   1.00
H507   H     0.77560   0.63940   0.95860   0.01267  Uiso   1.00
H508   H     0.57470   0.83130   0.55230   0.01267  Uiso   1.00
H509   H     0.50990   0.73330   0.70190   0.01267  Uiso   1.00
H510   H     0.46570   0.81090   0.67310   0.01267  Uiso   1.00
H511   H     0.67010   0.72650   0.51010   0.01267  Uiso   1.00
H512   H     0.62740   0.77520   0.50840   0.01267  Uiso   1.00
H513   H     0.57320   0.73200   0.55640   0.01267  Uiso   1.00
H514   H     0.60500   0.72240   0.50740   0.01267  Uiso   1.00
H515   H     0.61680   0.68420   0.55440   0.01267  Uiso   1.00
H516   H     0.65910   0.79810   0.54330   0.01267  Uiso   1.00
H517   H     0.70240   0.74980   0.54460   0.01267  Uiso   1.00
H518   H     0.68740   0.73200   0.62300   0.01267  Uiso   1.00
H519   H     0.68870   0.78450   0.59630   0.01267  Uiso   1.00
H520   H     0.63940   0.77560   0.62640   0.01267  Uiso   1.00
H521   H     0.57470   0.04170   0.83130   0.01267  Uiso   1.00
H522   H     0.50990   0.05490   0.73330   0.01267  Uiso   1.00
H523   H     0.46570   0.05030   0.81090   0.01267  Uiso   1.00
H524   H     0.67010   0.09330   0.72650   0.01267  Uiso   1.00
H525   H     0.62740   0.08900   0.77520   0.01267  Uiso   1.00
H526   H     0.57320   0.13840   0.73200   0.01267  Uiso   1.00
H527   H     0.60500   0.16520   0.72240   0.01267  Uiso   1.00
H528   H     0.61680   0.14460   0.68420   0.01267  Uiso   1.00
H529   H     0.65910   0.99950   0.79810   0.01267  Uiso   1.00
H530   H     0.70240   0.00320   0.74980   0.01267  Uiso   1.00
H531   H     0.68740   0.95760   0.73200   0.01267  Uiso   1.00
H532   H     0.68870   0.93050   0.78450   0.01267  Uiso   1.00
H533   H     0.63940   0.95860   0.77560   0.01267  Uiso   1.00
H534   H     0.83130   0.55230   0.57470   0.01267  Uiso   1.00
H535   H     0.73330   0.70190   0.50990   0.01267  Uiso   1.00
H536   H     0.81090   0.67310   0.46570   0.01267  Uiso   1.00
H537   H     0.72650   0.51010   0.67010   0.01267  Uiso   1.00
H538   H     0.77520   0.50840   0.62740   0.01267  Uiso   1.00
H539   H     0.73200   0.55640   0.57320   0.01267  Uiso   1.00
H540   H     0.72240   0.50740   0.60500   0.01267  Uiso   1.00
H541   H     0.68420   0.55440   0.61680   0.01267  Uiso   1.00
H542   H     0.79810   0.54330   0.65910   0.01267  Uiso   1.00
H543   H     0.74980   0.54460   0.70240   0.01267  Uiso   1.00
H544   H     0.73200   0.62300   0.68740   0.01267  Uiso   1.00
H545   H     0.78450   0.59630   0.68870   0.01267  Uiso   1.00
H546   H     0.77560   0.62640   0.63940   0.01267  Uiso   1.00
H547   H     0.04170   0.57470   0.55230   0.01267  Uiso   1.00
H548   H     0.05490   0.50990   0.70190   0.01267  Uiso   1.00
H549   H     0.05030   0.46570   0.67310   0.01267  Uiso   1.00
H550   H     0.09330   0.67010   0.51010   0.01267  Uiso   1.00
H551   H     0.08900   0.62740   0.50840   0.01267  Uiso   1.00
H552   H     0.13840   0.57320   0.55640   0.01267  Uiso   1.00
H553   H     0.16520   0.60500   0.50740   0.01267  Uiso   1.00
H554   H     0.14460   0.61680   0.55440   0.01267  Uiso   1.00
H555   H     0.99950   0.65910   0.54330   0.01267  Uiso   1.00
H556   H     0.00320   0.70240   0.54460   0.01267  Uiso   1.00
H557   H     0.95760   0.68740   0.62300   0.01267  Uiso   1.00
H558   H     0.93050   0.68870   0.59630   0.01267  Uiso   1.00
H559   H     0.95860   0.63940   0.62640   0.01267  Uiso   1.00
H560   H     0.55230   0.83130   0.04170   0.01267  Uiso   1.00
H561   H     0.70190   0.73330   0.05490   0.01267  Uiso   1.00
H562   H     0.67310   0.81090   0.05030   0.01267  Uiso   1.00
H563   H     0.51010   0.72650   0.09330   0.01267  Uiso   1.00
H564   H     0.50840   0.77520   0.08900   0.01267  Uiso   1.00
H565   H     0.55640   0.73200   0.13840   0.01267  Uiso   1.00
H566   H     0.50740   0.72240   0.16520   0.01267  Uiso   1.00
H567   H     0.55440   0.68420   0.14460   0.01267  Uiso   1.00
H568   H     0.54330   0.79810   0.99950   0.01267  Uiso   1.00
H569   H     0.54460   0.74980   0.00320   0.01267  Uiso   1.00
H570   H     0.62300   0.73200   0.95760   0.01267  Uiso   1.00
H571   H     0.59630   0.78450   0.93050   0.01267  Uiso   1.00
H572   H     0.62640   0.77560   0.95860   0.01267  Uiso   1.00
H573   H     0.83130   0.04170   0.55230   0.01267  Uiso   1.00
H574   H     0.73330   0.05490   0.70190   0.01267  Uiso   1.00
H575   H     0.81090   0.05030   0.67310   0.01267  Uiso   1.00
H576   H     0.72650   0.09330   0.51010   0.01267  Uiso   1.00
H577   H     0.77520   0.08900   0.50840   0.01267  Uiso   1.00
H578   H     0.73200   0.13840   0.55640   0.01267  Uiso   1.00
H579   H     0.72240   0.16520   0.50740   0.01267  Uiso   1.00
H580   H     0.68420   0.14460   0.55440   0.01267  Uiso   1.00
H581   H     0.79810   0.99950   0.54330   0.01267  Uiso   1.00
H582   H     0.74980   0.00320   0.54460   0.01267  Uiso   1.00
H583   H     0.73200   0.95760   0.62300   0.01267  Uiso   1.00
H584   H     0.78450   0.93050   0.59630   0.01267  Uiso   1.00
H585   H     0.77560   0.95860   0.62640   0.01267  Uiso   1.00
H586   H     0.57470   0.55230   0.04170   0.01267  Uiso   1.00
H587   H     0.50990   0.70190   0.05490   0.01267  Uiso   1.00
H588   H     0.46570   0.67310   0.05030   0.01267  Uiso   1.00
H589   H     0.67010   0.51010   0.09330   0.01267  Uiso   1.00
H590   H     0.62740   0.50840   0.08900   0.01267  Uiso   1.00
H591   H     0.57320   0.55640   0.13840   0.01267  Uiso   1.00
H592   H     0.60500   0.50740   0.16520   0.01267  Uiso   1.00
H593   H     0.61680   0.55440   0.14460   0.01267  Uiso   1.00
H594   H     0.65910   0.54330   0.99950   0.01267  Uiso   1.00
H595   H     0.70240   0.54460   0.00320   0.01267  Uiso   1.00
H596   H     0.68740   0.62300   0.95760   0.01267  Uiso   1.00
H597   H     0.68870   0.59630   0.93050   0.01267  Uiso   1.00
H598   H     0.63940   0.62640   0.95860   0.01267  Uiso   1.00
H599   H     0.55230   0.57470   0.83130   0.01267  Uiso   1.00
H600   H     0.70190   0.50990   0.73330   0.01267  Uiso   1.00
H601   H     0.67310   0.46570   0.81090   0.01267  Uiso   1.00
H602   H     0.51010   0.67010   0.72650   0.01267  Uiso   1.00
H603   H     0.50840   0.62740   0.77520   0.01267  Uiso   1.00
H604   H     0.55640   0.57320   0.73200   0.01267  Uiso   1.00
H605   H     0.50740   0.60500   0.72240   0.01267  Uiso   1.00
H606   H     0.55440   0.61680   0.68420   0.01267  Uiso   1.00
H607   H     0.54330   0.65910   0.79810   0.01267  Uiso   1.00
H608   H     0.54460   0.70240   0.74980   0.01267  Uiso   1.00
H609   H     0.62300   0.68740   0.73200   0.01267  Uiso   1.00
H610   H     0.59630   0.68870   0.78450   0.01267  Uiso   1.00
H611   H     0.62640   0.63940   0.77560   0.01267  Uiso   1.00
H612   H     0.04170   0.83130   0.57470   0.01267  Uiso   1.00
H613   H     0.05490   0.73330   0.50990   0.01267  Uiso   1.00
H614   H     0.05030   0.81090   0.46570   0.01267  Uiso   1.00
H615   H     0.09330   0.72650   0.67010   0.01267  Uiso   1.00
H616   H     0.08900   0.77520   0.62740   0.01267  Uiso   1.00
H617   H     0.13840   0.73200   0.57320   0.01267  Uiso   1.00
H618   H     0.16520   0.72240   0.60500   0.01267  Uiso   1.00
H619   H     0.14460   0.68420   0.61680   0.01267  Uiso   1.00
H620   H     0.99950   0.79810   0.65910   0.01267  Uiso   1.00
H621   H     0.00320   0.74980   0.70240   0.01267  Uiso   1.00
H622   H     0.95760   0.73200   0.68740   0.01267  Uiso   1.00
H623   H     0.93050   0.78450   0.68870   0.01267  Uiso   1.00
H624   H     0.95860   0.77560   0.63940   0.01267  Uiso   1.00
C1     C     0.53963   0.09419   0.98723   0.01267  Uiso   1.00
C2     C     0.54508   0.11060   0.01554   0.01267  Uiso   1.00
C3     C     0.54449   0.08245   0.06161   0.01267  Uiso   1.00
C4     C     0.54816   0.09956   0.08814   0.01267  Uiso   1.00
C5     C     0.55158   0.14448   0.06964   0.01267  Uiso   1.00
C6     C     0.55234   0.17160   0.02338   0.01267  Uiso   1.00
C7     C     0.54939   0.15431   0.99721   0.01267  Uiso   1.00
C8     C     0.54904   0.07348   0.13768   0.01267  Uiso   1.00
C9     C     0.55242   0.10962   0.14714   0.01267  Uiso   1.00
C10    C     0.55323   0.15155   0.10743   0.01267  Uiso   1.00
C11    C     0.59238   0.02810   0.13762   0.01267  Uiso   1.00
C12    C     0.63942   0.03738   0.10524   0.01267  Uiso   1.00
C13    C     0.50206   0.06306   0.16996   0.01267  Uiso   1.00
C14    C     0.45836   0.10598   0.17144   0.01267  Uiso   1.00
C15    C     0.09419   0.53963   0.37895   0.01267  Uiso   1.00
C16    C     0.11060   0.54508   0.32878   0.01267  Uiso   1.00
C17    C     0.08245   0.54449   0.31145   0.01267  Uiso   1.00
C18    C     0.09956   0.54816   0.26414   0.01267  Uiso   1.00
C19    C     0.14448   0.55158   0.23430   0.01267  Uiso   1.00
C20    C     0.17160   0.55234   0.25268   0.01267  Uiso   1.00
C21    C     0.15431   0.54939   0.29909   0.01267  Uiso   1.00
C22    C     0.07348   0.54904   0.23980   0.01267  Uiso   1.00
C23    C     0.10962   0.55242   0.19082   0.01267  Uiso   1.00
C24    C     0.15155   0.55323   0.18779   0.01267  Uiso   1.00
C25    C     0.02810   0.59238   0.24190   0.01267  Uiso   1.00
C26    C     0.03738   0.63942   0.21796   0.01267  Uiso   1.00
C27    C     0.06306   0.50206   0.26492   0.01267  Uiso   1.00
C28    C     0.10598   0.45836   0.26422   0.01267  Uiso   1.00
C29    C     0.98723   0.37895   0.53963   0.01267  Uiso   1.00
C30    C     0.01554   0.32878   0.54508   0.01267  Uiso   1.00
C31    C     0.06161   0.31145   0.54449   0.01267  Uiso   1.00
C32    C     0.08814   0.26414   0.54816   0.01267  Uiso   1.00
C33    C     0.06964   0.23430   0.55158   0.01267  Uiso   1.00
C34    C     0.02338   0.25268   0.55234   0.01267  Uiso   1.00
C35    C     0.99721   0.29909   0.54939   0.01267  Uiso   1.00
C36    C     0.13768   0.23980   0.54904   0.01267  Uiso   1.00
C37    C     0.14714   0.19082   0.55242   0.01267  Uiso   1.00
C38    C     0.10743   0.18779   0.55323   0.01267  Uiso   1.00
C39    C     0.13762   0.24190   0.59238   0.01267  Uiso   1.00
C40    C     0.10524   0.21796   0.63942   0.01267  Uiso   1.00
C41    C     0.16996   0.26492   0.50206   0.01267  Uiso   1.00
C42    C     0.17144   0.26422   0.45836   0.01267  Uiso   1.00
C43    C     0.37895   0.98723   0.09419   0.01267  Uiso   1.00
C44    C     0.32878   0.01554   0.11060   0.01267  Uiso   1.00
C45    C     0.31145   0.06161   0.08245   0.01267  Uiso   1.00
C46    C     0.26414   0.08814   0.09956   0.01267  Uiso   1.00
C47    C     0.23430   0.06964   0.14448   0.01267  Uiso   1.00
C48    C     0.25268   0.02338   0.17160   0.01267  Uiso   1.00
C49    C     0.29909   0.99721   0.15431   0.01267  Uiso   1.00
C50    C     0.23980   0.13768   0.07348   0.01267  Uiso   1.00
C51    C     0.19082   0.14714   0.10962   0.01267  Uiso   1.00
C52    C     0.18779   0.10743   0.15155   0.01267  Uiso   1.00
C53    C     0.24190   0.13762   0.02810   0.01267  Uiso   1.00
C54    C     0.21796   0.10524   0.03738   0.01267  Uiso   1.00
C55    C     0.26492   0.16996   0.06306   0.01267  Uiso   1.00
C56    C     0.26422   0.17144   0.10598   0.01267  Uiso   1.00
C57    C     0.53963   0.98723   0.37895   0.01267  Uiso   1.00
C58    C     0.54508   0.01554   0.32878   0.01267  Uiso   1.00
C59    C     0.54449   0.06161   0.31145   0.01267  Uiso   1.00
C60    C     0.54816   0.08814   0.26414   0.01267  Uiso   1.00
C61    C     0.55158   0.06964   0.23430   0.01267  Uiso   1.00
C62    C     0.55234   0.02338   0.25268   0.01267  Uiso   1.00
C63    C     0.54939   0.99721   0.29909   0.01267  Uiso   1.00
C64    C     0.54904   0.13768   0.23980   0.01267  Uiso   1.00
C65    C     0.55242   0.14714   0.19082   0.01267  Uiso   1.00
C66    C     0.55323   0.10743   0.18779   0.01267  Uiso   1.00
C67    C     0.59238   0.13762   0.24190   0.01267  Uiso   1.00
C68    C     0.63942   0.10524   0.21796   0.01267  Uiso   1.00
C69    C     0.50206   0.16996   0.26492   0.01267  Uiso   1.00
C70    C     0.45836   0.17144   0.26422   0.01267  Uiso   1.00
C71    C     0.09419   0.37895   0.98723   0.01267  Uiso   1.00
C72    C     0.11060   0.32878   0.01554   0.01267  Uiso   1.00
C73    C     0.08245   0.31145   0.06161   0.01267  Uiso   1.00
C74    C     0.09956   0.26414   0.08814   0.01267  Uiso   1.00
C75    C     0.14448   0.23430   0.06964   0.01267  Uiso   1.00
C76    C     0.17160   0.25268   0.02338   0.01267  Uiso   1.00
C77    C     0.15431   0.29909   0.99721   0.01267  Uiso   1.00
C78    C     0.07348   0.23980   0.13768   0.01267  Uiso   1.00
C79    C     0.10962   0.19082   0.14714   0.01267  Uiso   1.00
C80    C     0.15155   0.18779   0.10743   0.01267  Uiso   1.00
C81    C     0.02810   0.24190   0.13762   0.01267  Uiso   1.00
C82    C     0.03738   0.21796   0.10524   0.01267  Uiso   1.00
C83    C     0.06306   0.26492   0.16996   0.01267  Uiso   1.00
C84    C     0.10598   0.26422   0.17144   0.01267  Uiso   1.00
C85    C     0.98723   0.53963   0.09419   0.01267  Uiso   1.00
C86    C     0.01554   0.54508   0.11060   0.01267  Uiso   1.00
C87    C     0.06161   0.54449   0.08245   0.01267  Uiso   1.00
C88    C     0.08814   0.54816   0.09956   0.01267  Uiso   1.00
C89    C     0.06964   0.55158   0.14448   0.01267  Uiso   1.00
C90    C     0.02338   0.55234   0.17160   0.01267  Uiso   1.00
C91    C     0.99721   0.54939   0.15431   0.01267  Uiso   1.00
C92    C     0.13768   0.54904   0.07348   0.01267  Uiso   1.00
C93    C     0.14714   0.55242   0.10962   0.01267  Uiso   1.00
C94    C     0.10743   0.55323   0.15155   0.01267  Uiso   1.00
C95    C     0.13762   0.59238   0.02810   0.01267  Uiso   1.00
C96    C     0.10524   0.63942   0.03738   0.01267  Uiso   1.00
C97    C     0.16996   0.50206   0.06306   0.01267  Uiso   1.00
C98    C     0.17144   0.45836   0.10598   0.01267  Uiso   1.00
C99    C     0.37895   0.09419   0.53963   0.01267  Uiso   1.00
C100   C     0.32878   0.11060   0.54508   0.01267  Uiso   1.00
C101   C     0.31145   0.08245   0.54449   0.01267  Uiso   1.00
C102   C     0.26414   0.09956   0.54816   0.01267  Uiso   1.00
C103   C     0.23430   0.14448   0.55158   0.01267  Uiso   1.00
C104   C     0.25268   0.17160   0.55234   0.01267  Uiso   1.00
C105   C     0.29909   0.15431   0.54939   0.01267  Uiso   1.00
C106   C     0.23980   0.07348   0.54904   0.01267  Uiso   1.00
C107   C     0.19082   0.10962   0.55242   0.01267  Uiso   1.00
C108   C     0.18779   0.15155   0.55323   0.01267  Uiso   1.00
C109   C     0.24190   0.02810   0.59238   0.01267  Uiso   1.00
C110   C     0.21796   0.03738   0.63942   0.01267  Uiso   1.00
C111   C     0.26492   0.06306   0.50206   0.01267  Uiso   1.00
C112   C     0.26422   0.10598   0.45836   0.01267  Uiso   1.00
C113   C     0.53963   0.37895   0.09419   0.01267  Uiso   1.00
C114   C     0.54508   0.32878   0.11060   0.01267  Uiso   1.00
C115   C     0.54449   0.31145   0.08245   0.01267  Uiso   1.00
C116   C     0.54816   0.26414   0.09956   0.01267  Uiso   1.00
C117   C     0.55158   0.23430   0.14448   0.01267  Uiso   1.00
C118   C     0.55234   0.25268   0.17160   0.01267  Uiso   1.00
C119   C     0.54939   0.29909   0.15431   0.01267  Uiso   1.00
C120   C     0.54904   0.23980   0.07348   0.01267  Uiso   1.00
C121   C     0.55242   0.19082   0.10962   0.01267  Uiso   1.00
C122   C     0.55323   0.18779   0.15155   0.01267  Uiso   1.00
C123   C     0.59238   0.24190   0.02810   0.01267  Uiso   1.00
C124   C     0.63942   0.21796   0.03738   0.01267  Uiso   1.00
C125   C     0.50206   0.26492   0.06306   0.01267  Uiso   1.00
C126   C     0.45836   0.26422   0.10598   0.01267  Uiso   1.00
C127   C     0.09419   0.98723   0.53963   0.01267  Uiso   1.00
C128   C     0.11060   0.01554   0.54508   0.01267  Uiso   1.00
C129   C     0.08245   0.06161   0.54449   0.01267  Uiso   1.00
C130   C     0.09956   0.08814   0.54816   0.01267  Uiso   1.00
C131   C     0.14448   0.06964   0.55158   0.01267  Uiso   1.00
C132   C     0.17160   0.02338   0.55234   0.01267  Uiso   1.00
C133   C     0.15431   0.99721   0.54939   0.01267  Uiso   1.00
C134   C     0.07348   0.13768   0.54904   0.01267  Uiso   1.00
C135   C     0.10962   0.14714   0.55242   0.01267  Uiso   1.00
C136   C     0.15155   0.10743   0.55323   0.01267  Uiso   1.00
C137   C     0.02810   0.13762   0.59238   0.01267  Uiso   1.00
C138   C     0.03738   0.10524   0.63942   0.01267  Uiso   1.00
C139   C     0.06306   0.16996   0.50206   0.01267  Uiso   1.00
C140   C     0.10598   0.17144   0.45836   0.01267  Uiso   1.00
C141   C     0.98723   0.09419   0.37895   0.01267  Uiso   1.00
C142   C     0.01554   0.11060   0.32878   0.01267  Uiso   1.00
C143   C     0.06161   0.08245   0.31145   0.01267  Uiso   1.00
C144   C     0.08814   0.09956   0.26414   0.01267  Uiso   1.00
C145   C     0.06964   0.14448   0.23430   0.01267  Uiso   1.00
C146   C     0.02338   0.17160   0.25268   0.01267  Uiso   1.00
C147   C     0.99721   0.15431   0.29909   0.01267  Uiso   1.00
C148   C     0.13768   0.07348   0.23980   0.01267  Uiso   1.00
C149   C     0.14714   0.10962   0.19082   0.01267  Uiso   1.00
C150   C     0.10743   0.15155   0.18779   0.01267  Uiso   1.00
C151   C     0.13762   0.02810   0.24190   0.01267  Uiso   1.00
C152   C     0.10524   0.03738   0.21796   0.01267  Uiso   1.00
C153   C     0.16996   0.06306   0.26492   0.01267  Uiso   1.00
C154   C     0.17144   0.10598   0.26422   0.01267  Uiso   1.00
C155   C     0.37895   0.53963   0.98723   0.01267  Uiso   1.00
C156   C     0.32878   0.54508   0.01554   0.01267  Uiso   1.00
C157   C     0.31145   0.54449   0.06161   0.01267  Uiso   1.00
C158   C     0.26414   0.54816   0.08814   0.01267  Uiso   1.00
C159   C     0.23430   0.55158   0.06964   0.01267  Uiso   1.00
C160   C     0.25268   0.55234   0.02338   0.01267  Uiso   1.00
C161   C     0.29909   0.54939   0.99721   0.01267  Uiso   1.00
C162   C     0.23980   0.54904   0.13768   0.01267  Uiso   1.00
C163   C     0.19082   0.55242   0.14714   0.01267  Uiso   1.00
C164   C     0.18779   0.55323   0.10743   0.01267  Uiso   1.00
C165   C     0.24190   0.59238   0.13762   0.01267  Uiso   1.00
C166   C     0.21796   0.63942   0.10524   0.01267  Uiso   1.00
C167   C     0.26492   0.50206   0.16996   0.01267  Uiso   1.00
C168   C     0.26422   0.45836   0.17144   0.01267  Uiso   1.00
C169   C     0.40581   0.96037   0.51277   0.01267  Uiso   1.00
C170   C     0.38940   0.95492   0.48446   0.01267  Uiso   1.00
C171   C     0.41755   0.95551   0.43839   0.01267  Uiso   1.00
C172   C     0.40044   0.95184   0.41186   0.01267  Uiso   1.00
C173   C     0.35552   0.94842   0.43036   0.01267  Uiso   1.00
C174   C     0.32840   0.94766   0.47662   0.01267  Uiso   1.00
C175   C     0.34569   0.95061   0.50279   0.01267  Uiso   1.00
C176   C     0.42652   0.95096   0.36232   0.01267  Uiso   1.00
C177   C     0.39038   0.94758   0.35286   0.01267  Uiso   1.00
C178   C     0.34845   0.94677   0.39257   0.01267  Uiso   1.00
C179   C     0.47190   0.90762   0.36238   0.01267  Uiso   1.00
C180   C     0.46262   0.86058   0.39476   0.01267  Uiso   1.00
C181   C     0.43694   0.99794   0.33004   0.01267  Uiso   1.00
C182   C     0.39402   0.04164   0.32856   0.01267  Uiso   1.00
C183   C     0.96037   0.40581   0.12105   0.01267  Uiso   1.00
C184   C     0.95492   0.38940   0.17122   0.01267  Uiso   1.00
C185   C     0.95551   0.41755   0.18855   0.01267  Uiso   1.00
C186   C     0.95184   0.40044   0.23586   0.01267  Uiso   1.00
C187   C     0.94842   0.35552   0.26570   0.01267  Uiso   1.00
C188   C     0.94766   0.32840   0.24732   0.01267  Uiso   1.00
C189   C     0.95061   0.34569   0.20091   0.01267  Uiso   1.00
C190   C     0.95096   0.42652   0.26020   0.01267  Uiso   1.00
C191   C     0.94758   0.39038   0.30918   0.01267  Uiso   1.00
C192   C     0.94677   0.34845   0.31221   0.01267  Uiso   1.00
C193   C     0.90762   0.47190   0.25810   0.01267  Uiso   1.00
C194   C     0.86058   0.46262   0.28204   0.01267  Uiso   1.00
C195   C     0.99794   0.43694   0.23508   0.01267  Uiso   1.00
C196   C     0.04164   0.39402   0.23578   0.01267  Uiso   1.00
C197   C     0.12105   0.51277   0.96037   0.01267  Uiso   1.00
C198   C     0.17122   0.48446   0.95492   0.01267  Uiso   1.00
C199   C     0.18855   0.43839   0.95551   0.01267  Uiso   1.00
C200   C     0.23586   0.41186   0.95184   0.01267  Uiso   1.00
C201   C     0.26570   0.43036   0.94842   0.01267  Uiso   1.00
C202   C     0.24732   0.47662   0.94766   0.01267  Uiso   1.00
C203   C     0.20091   0.50279   0.95061   0.01267  Uiso   1.00
C204   C     0.26020   0.36232   0.95096   0.01267  Uiso   1.00
C205   C     0.30918   0.35286   0.94758   0.01267  Uiso   1.00
C206   C     0.31221   0.39257   0.94677   0.01267  Uiso   1.00
C207   C     0.25810   0.36238   0.90762   0.01267  Uiso   1.00
C208   C     0.28204   0.39476   0.86058   0.01267  Uiso   1.00
C209   C     0.23508   0.33004   0.99794   0.01267  Uiso   1.00
C210   C     0.23578   0.32856   0.04164   0.01267  Uiso   1.00
C211   C     0.51277   0.12105   0.40581   0.01267  Uiso   1.00
C212   C     0.48446   0.17122   0.38940   0.01267  Uiso   1.00
C213   C     0.43839   0.18855   0.41755   0.01267  Uiso   1.00
C214   C     0.41186   0.23586   0.40044   0.01267  Uiso   1.00
C215   C     0.43036   0.26570   0.35552   0.01267  Uiso   1.00
C216   C     0.47662   0.24732   0.32840   0.01267  Uiso   1.00
C217   C     0.50279   0.20091   0.34569   0.01267  Uiso   1.00
C218   C     0.36232   0.26020   0.42652   0.01267  Uiso   1.00
C219   C     0.35286   0.30918   0.39038   0.01267  Uiso   1.00
C220   C     0.39257   0.31221   0.34845   0.01267  Uiso   1.00
C221   C     0.36238   0.25810   0.47190   0.01267  Uiso   1.00
C222   C     0.39476   0.28204   0.46262   0.01267  Uiso   1.00
C223   C     0.33004   0.23508   0.43694   0.01267  Uiso   1.00
C224   C     0.32856   0.23578   0.39402   0.01267  Uiso   1.00
C225   C     0.51277   0.96037   0.12105   0.01267  Uiso   1.00
C226   C     0.48446   0.95492   0.17122   0.01267  Uiso   1.00
C227   C     0.43839   0.95551   0.18855   0.01267  Uiso   1.00
C228   C     0.41186   0.95184   0.23586   0.01267  Uiso   1.00
C229   C     0.43036   0.94842   0.26570   0.01267  Uiso   1.00
C230   C     0.47662   0.94766   0.24732   0.01267  Uiso   1.00
C231   C     0.50279   0.95061   0.20091   0.01267  Uiso   1.00
C232   C     0.36232   0.95096   0.26020   0.01267  Uiso   1.00
C233   C     0.35286   0.94758   0.30918   0.01267  Uiso   1.00
C234   C     0.39257   0.94677   0.31221   0.01267  Uiso   1.00
C235   C     0.36238   0.90762   0.25810   0.01267  Uiso   1.00
C236   C     0.39476   0.86058   0.28204   0.01267  Uiso   1.00
C237   C     0.33004   0.99794   0.23508   0.01267  Uiso   1.00
C238   C     0.32856   0.04164   0.23578   0.01267  Uiso   1.00
C239   C     0.12105   0.40581   0.51277   0.01267  Uiso   1.00
C240   C     0.17122   0.38940   0.48446   0.01267  Uiso   1.00
C241   C     0.18855   0.41755   0.43839   0.01267  Uiso   1.00
C242   C     0.23586   0.40044   0.41186   0.01267  Uiso   1.00
C243   C     0.26570   0.35552   0.43036   0.01267  Uiso   1.00
C244   C     0.24732   0.32840   0.47662   0.01267  Uiso   1.00
C245   C     0.20091   0.34569   0.50279   0.01267  Uiso   1.00
C246   C     0.26020   0.42652   0.36232   0.01267  Uiso   1.00
C247   C     0.30918   0.39038   0.35286   0.01267  Uiso   1.00
C248   C     0.31221   0.34845   0.39257   0.01267  Uiso   1.00
C249   C     0.25810   0.47190   0.36238   0.01267  Uiso   1.00
C250   C     0.28204   0.46262   0.39476   0.01267  Uiso   1.00
C251   C     0.23508   0.43694   0.33004   0.01267  Uiso   1.00
C252   C     0.23578   0.39402   0.32856   0.01267  Uiso   1.00
C253   C     0.96037   0.51277   0.40581   0.01267  Uiso   1.00
C254   C     0.95492   0.48446   0.38940   0.01267  Uiso   1.00
C255   C     0.95551   0.43839   0.41755   0.01267  Uiso   1.00
C256   C     0.95184   0.41186   0.40044   0.01267  Uiso   1.00
C257   C     0.94842   0.43036   0.35552   0.01267  Uiso   1.00
C258   C     0.94766   0.47662   0.32840   0.01267  Uiso   1.00
C259   C     0.95061   0.50279   0.34569   0.01267  Uiso   1.00
C260   C     0.95096   0.36232   0.42652   0.01267  Uiso   1.00
C261   C     0.94758   0.35286   0.39038   0.01267  Uiso   1.00
C262   C     0.94677   0.39257   0.34845   0.01267  Uiso   1.00
C263   C     0.90762   0.36238   0.47190   0.01267  Uiso   1.00
C264   C     0.86058   0.39476   0.46262   0.01267  Uiso   1.00
C265   C     0.99794   0.33004   0.43694   0.01267  Uiso   1.00
C266   C     0.04164   0.32856   0.39402   0.01267  Uiso   1.00
C267   C     0.40581   0.12105   0.96037   0.01267  Uiso   1.00
C268   C     0.38940   0.17122   0.95492   0.01267  Uiso   1.00
C269   C     0.41755   0.18855   0.95551   0.01267  Uiso   1.00
C270   C     0.40044   0.23586   0.95184   0.01267  Uiso   1.00
C271   C     0.35552   0.26570   0.94842   0.01267  Uiso   1.00
C272   C     0.32840   0.24732   0.94766   0.01267  Uiso   1.00
C273   C     0.34569   0.20091   0.95061   0.01267  Uiso   1.00
C274   C     0.42652   0.26020   0.95096   0.01267  Uiso   1.00
C275   C     0.39038   0.30918   0.94758   0.01267  Uiso   1.00
C276   C     0.34845   0.31221   0.94677   0.01267  Uiso   1.00
C277   C     0.47190   0.25810   0.90762   0.01267  Uiso   1.00
C278   C     0.46262   0.28204   0.86058   0.01267  Uiso   1.00
C279   C     0.43694   0.23508   0.99794   0.01267  Uiso   1.00
C280   C     0.39402   0.23578   0.04164   0.01267  Uiso   1.00
C281   C     0.12105   0.96037   0.40581   0.01267  Uiso   1.00
C282   C     0.17122   0.95492   0.38940   0.01267  Uiso   1.00
C283   C     0.18855   0.95551   0.41755   0.01267  Uiso   1.00
C284   C     0.23586   0.95184   0.40044   0.01267  Uiso   1.00
C285   C     0.26570   0.94842   0.35552   0.01267  Uiso   1.00
C286   C     0.24732   0.94766   0.32840   0.01267  Uiso   1.00
C287   C     0.20091   0.95061   0.34569   0.01267  Uiso   1.00
C288   C     0.26020   0.95096   0.42652   0.01267  Uiso   1.00
C289   C     0.30918   0.94758   0.39038   0.01267  Uiso   1.00
C290   C     0.31221   0.94677   0.34845   0.01267  Uiso   1.00
C291   C     0.25810   0.90762   0.47190   0.01267  Uiso   1.00
C292   C     0.28204   0.86058   0.46262   0.01267  Uiso   1.00
C293   C     0.23508   0.99794   0.43694   0.01267  Uiso   1.00
C294   C     0.23578   0.04164   0.39402   0.01267  Uiso   1.00
C295   C     0.51277   0.40581   0.96037   0.01267  Uiso   1.00
C296   C     0.48446   0.38940   0.95492   0.01267  Uiso   1.00
C297   C     0.43839   0.41755   0.95551   0.01267  Uiso   1.00
C298   C     0.41186   0.40044   0.95184   0.01267  Uiso   1.00
C299   C     0.43036   0.35552   0.94842   0.01267  Uiso   1.00
C300   C     0.47662   0.32840   0.94766   0.01267  Uiso   1.00
C301   C     0.50279   0.34569   0.95061   0.01267  Uiso   1.00
C302   C     0.36232   0.42652   0.95096   0.01267  Uiso   1.00
C303   C     0.35286   0.39038   0.94758   0.01267  Uiso   1.00
C304   C     0.39257   0.34845   0.94677   0.01267  Uiso   1.00
C305   C     0.36238   0.47190   0.90762   0.01267  Uiso   1.00
C306   C     0.39476   0.46262   0.86058   0.01267  Uiso   1.00
C307   C     0.33004   0.43694   0.99794   0.01267  Uiso   1.00
C308   C     0.32856   0.39402   0.04164   0.01267  Uiso   1.00
C309   C     0.40581   0.51277   0.12105   0.01267  Uiso   1.00
C310   C     0.38940   0.48446   0.17122   0.01267  Uiso   1.00
C311   C     0.41755   0.43839   0.18855   0.01267  Uiso   1.00
C312   C     0.40044   0.41186   0.23586   0.01267  Uiso   1.00
C313   C     0.35552   0.43036   0.26570   0.01267  Uiso   1.00
C314   C     0.32840   0.47662   0.24732   0.01267  Uiso   1.00
C315   C     0.34569   0.50279   0.20091   0.01267  Uiso   1.00
C316   C     0.42652   0.36232   0.26020   0.01267  Uiso   1.00
C317   C     0.39038   0.35286   0.30918   0.01267  Uiso   1.00
C318   C     0.34845   0.39257   0.31221   0.01267  Uiso   1.00
C319   C     0.47190   0.36238   0.25810   0.01267  Uiso   1.00
C320   C     0.46262   0.39476   0.28204   0.01267  Uiso   1.00
C321   C     0.43694   0.33004   0.23508   0.01267  Uiso   1.00
C322   C     0.39402   0.32856   0.23578   0.01267  Uiso   1.00
C323   C     0.96037   0.12105   0.51277   0.01267  Uiso   1.00
C324   C     0.95492   0.17122   0.48446   0.01267  Uiso   1.00
C325   C     0.95551   0.18855   0.43839   0.01267  Uiso   1.00
C326   C     0.95184   0.23586   0.41186   0.01267  Uiso   1.00
C327   C     0.94842   0.26570   0.43036   0.01267  Uiso   1.00
C328   C     0.94766   0.24732   0.47662   0.01267  Uiso   1.00
C329   C     0.95061   0.20091   0.50279   0.01267  Uiso   1.00
C330   C     0.95096   0.26020   0.36232   0.01267  Uiso   1.00
C331   C     0.94758   0.30918   0.35286   0.01267  Uiso   1.00
C332   C     0.94677   0.31221   0.39257   0.01267  Uiso   1.00
C333   C     0.90762   0.25810   0.36238   0.01267  Uiso   1.00
C334   C     0.86058   0.28204   0.39476   0.01267  Uiso   1.00
C335   C     0.99794   0.23508   0.33004   0.01267  Uiso   1.00
C336   C     0.04164   0.23578   0.32856   0.01267  Uiso   1.00
C337   C     0.46037   0.90581   0.01277   0.01267  Uiso   1.00
C338   C     0.45492   0.88940   0.98446   0.01267  Uiso   1.00
C339   C     0.45551   0.91755   0.93839   0.01267  Uiso   1.00
C340   C     0.45184   0.90044   0.91186   0.01267  Uiso   1.00
C341   C     0.44842   0.85552   0.93036   0.01267  Uiso   1.00
C342   C     0.44766   0.82840   0.97662   0.01267  Uiso   1.00
C343   C     0.45061   0.84569   0.00279   0.01267  Uiso   1.00
C344   C     0.45096   0.92652   0.86232   0.01267  Uiso   1.00
C345   C     0.44758   0.89038   0.85286   0.01267  Uiso   1.00
C346   C     0.44677   0.84845   0.89257   0.01267  Uiso   1.00
C347   C     0.40762   0.97190   0.86238   0.01267  Uiso   1.00
C348   C     0.36058   0.96262   0.89476   0.01267  Uiso   1.00
C349   C     0.49794   0.93694   0.83004   0.01267  Uiso   1.00
C350   C     0.54164   0.89402   0.82856   0.01267  Uiso   1.00
C351   C     0.90581   0.46037   0.62105   0.01267  Uiso   1.00
C352   C     0.88940   0.45492   0.67122   0.01267  Uiso   1.00
C353   C     0.91755   0.45551   0.68855   0.01267  Uiso   1.00
C354   C     0.90044   0.45184   0.73586   0.01267  Uiso   1.00
C355   C     0.85552   0.44842   0.76570   0.01267  Uiso   1.00
C356   C     0.82840   0.44766   0.74732   0.01267  Uiso   1.00
C357   C     0.84569   0.45061   0.70091   0.01267  Uiso   1.00
C358   C     0.92652   0.45096   0.76020   0.01267  Uiso   1.00
C359   C     0.89038   0.44758   0.80918   0.01267  Uiso   1.00
C360   C     0.84845   0.44677   0.81221   0.01267  Uiso   1.00
C361   C     0.97190   0.40762   0.75810   0.01267  Uiso   1.00
C362   C     0.96262   0.36058   0.78204   0.01267  Uiso   1.00
C363   C     0.93694   0.49794   0.73508   0.01267  Uiso   1.00
C364   C     0.89402   0.54164   0.73578   0.01267  Uiso   1.00
C365   C     0.01277   0.62105   0.46037   0.01267  Uiso   1.00
C366   C     0.98446   0.67122   0.45492   0.01267  Uiso   1.00
C367   C     0.93839   0.68855   0.45551   0.01267  Uiso   1.00
C368   C     0.91186   0.73586   0.45184   0.01267  Uiso   1.00
C369   C     0.93036   0.76570   0.44842   0.01267  Uiso   1.00
C370   C     0.97662   0.74732   0.44766   0.01267  Uiso   1.00
C371   C     0.00279   0.70091   0.45061   0.01267  Uiso   1.00
C372   C     0.86232   0.76020   0.45096   0.01267  Uiso   1.00
C373   C     0.85286   0.80918   0.44758   0.01267  Uiso   1.00
C374   C     0.89257   0.81221   0.44677   0.01267  Uiso   1.00
C375   C     0.86238   0.75810   0.40762   0.01267  Uiso   1.00
C376   C     0.89476   0.78204   0.36058   0.01267  Uiso   1.00
C377   C     0.83004   0.73508   0.49794   0.01267  Uiso   1.00
C378   C     0.82856   0.73578   0.54164   0.01267  Uiso   1.00
C379   C     0.62105   0.01277   0.90581   0.01267  Uiso   1.00
C380   C     0.67122   0.98446   0.88940   0.01267  Uiso   1.00
C381   C     0.68855   0.93839   0.91755   0.01267  Uiso   1.00
C382   C     0.73586   0.91186   0.90044   0.01267  Uiso   1.00
C383   C     0.76570   0.93036   0.85552   0.01267  Uiso   1.00
C384   C     0.74732   0.97662   0.82840   0.01267  Uiso   1.00
C385   C     0.70091   0.00279   0.84569   0.01267  Uiso   1.00
C386   C     0.76020   0.86232   0.92652   0.01267  Uiso   1.00
C387   C     0.80918   0.85286   0.89038   0.01267  Uiso   1.00
C388   C     0.81221   0.89257   0.84845   0.01267  Uiso   1.00
C389   C     0.75810   0.86238   0.97190   0.01267  Uiso   1.00
C390   C     0.78204   0.89476   0.96262   0.01267  Uiso   1.00
C391   C     0.73508   0.83004   0.93694   0.01267  Uiso   1.00
C392   C     0.73578   0.82856   0.89402   0.01267  Uiso   1.00
C393   C     0.46037   0.01277   0.62105   0.01267  Uiso   1.00
C394   C     0.45492   0.98446   0.67122   0.01267  Uiso   1.00
C395   C     0.45551   0.93839   0.68855   0.01267  Uiso   1.00
C396   C     0.45184   0.91186   0.73586   0.01267  Uiso   1.00
C397   C     0.44842   0.93036   0.76570   0.01267  Uiso   1.00
C398   C     0.44766   0.97662   0.74732   0.01267  Uiso   1.00
C399   C     0.45061   0.00279   0.70091   0.01267  Uiso   1.00
C400   C     0.45096   0.86232   0.76020   0.01267  Uiso   1.00
C401   C     0.44758   0.85286   0.80918   0.01267  Uiso   1.00
C402   C     0.44677   0.89257   0.81221   0.01267  Uiso   1.00
C403   C     0.40762   0.86238   0.75810   0.01267  Uiso   1.00
C404   C     0.36058   0.89476   0.78204   0.01267  Uiso   1.00
C405   C     0.49794   0.83004   0.73508   0.01267  Uiso   1.00
C406   C     0.54164   0.82856   0.73578   0.01267  Uiso   1.00
C407   C     0.90581   0.62105   0.01277   0.01267  Uiso   1.00
C408   C     0.88940   0.67122   0.98446   0.01267  Uiso   1.00
C409   C     0.91755   0.68855   0.93839   0.01267  Uiso   1.00
C410   C     0.90044   0.73586   0.91186   0.01267  Uiso   1.00
C411   C     0.85552   0.76570   0.93036   0.01267  Uiso   1.00
C412   C     0.82840   0.74732   0.97662   0.01267  Uiso   1.00
C413   C     0.84569   0.70091   0.00279   0.01267  Uiso   1.00
C414   C     0.92652   0.76020   0.86232   0.01267  Uiso   1.00
C415   C     0.89038   0.80918   0.85286   0.01267  Uiso   1.00
C416   C     0.84845   0.81221   0.89257   0.01267  Uiso   1.00
C417   C     0.97190   0.75810   0.86238   0.01267  Uiso   1.00
C418   C     0.96262   0.78204   0.89476   0.01267  Uiso   1.00
C419   C     0.93694   0.73508   0.83004   0.01267  Uiso   1.00
C420   C     0.89402   0.73578   0.82856   0.01267  Uiso   1.00
C421   C     0.01277   0.46037   0.90581   0.01267  Uiso   1.00
C422   C     0.98446   0.45492   0.88940   0.01267  Uiso   1.00
C423   C     0.93839   0.45551   0.91755   0.01267  Uiso   1.00
C424   C     0.91186   0.45184   0.90044   0.01267  Uiso   1.00
C425   C     0.93036   0.44842   0.85552   0.01267  Uiso   1.00
C426   C     0.97662   0.44766   0.82840   0.01267  Uiso   1.00
C427   C     0.00279   0.45061   0.84569   0.01267  Uiso   1.00
C428   C     0.86232   0.45096   0.92652   0.01267  Uiso   1.00
C429   C     0.85286   0.44758   0.89038   0.01267  Uiso   1.00
C430   C     0.89257   0.44677   0.84845   0.01267  Uiso   1.00
C431   C     0.86238   0.40762   0.97190   0.01267  Uiso   1.00
C432   C     0.89476   0.36058   0.96262   0.01267  Uiso   1.00
C433   C     0.83004   0.49794   0.93694   0.01267  Uiso   1.00
C434   C     0.82856   0.54164   0.89402   0.01267  Uiso   1.00
C435   C     0.62105   0.90581   0.46037   0.01267  Uiso   1.00
C436   C     0.67122   0.88940   0.45492   0.01267  Uiso   1.00
C437   C     0.68855   0.91755   0.45551   0.01267  Uiso   1.00
C438   C     0.73586   0.90044   0.45184   0.01267  Uiso   1.00
C439   C     0.76570   0.85552   0.44842   0.01267  Uiso   1.00
C440   C     0.74732   0.82840   0.44766   0.01267  Uiso   1.00
C441   C     0.70091   0.84569   0.45061   0.01267  Uiso   1.00
C442   C     0.76020   0.92652   0.45096   0.01267  Uiso   1.00
C443   C     0.80918   0.89038   0.44758   0.01267  Uiso   1.00
C444   C     0.81221   0.84845   0.44677   0.01267  Uiso   1.00
C445   C     0.75810   0.97190   0.40762   0.01267  Uiso   1.00
C446   C     0.78204   0.96262   0.36058   0.01267  Uiso   1.00
C447   C     0.73508   0.93694   0.49794   0.01267  Uiso   1.00
C448   C     0.73578   0.89402   0.54164   0.01267  Uiso   1.00
C449   C     0.46037   0.62105   0.90581   0.01267  Uiso   1.00
C450   C     0.45492   0.67122   0.88940   0.01267  Uiso   1.00
C451   C     0.45551   0.68855   0.91755   0.01267  Uiso   1.00
C452   C     0.45184   0.73586   0.90044   0.01267  Uiso   1.00
C453   C     0.44842   0.76570   0.85552   0.01267  Uiso   1.00
C454   C     0.44766   0.74732   0.82840   0.01267  Uiso   1.00
C455   C     0.45061   0.70091   0.84569   0.01267  Uiso   1.00
C456   C     0.45096   0.76020   0.92652   0.01267  Uiso   1.00
C457   C     0.44758   0.80918   0.89038   0.01267  Uiso   1.00
C458   C     0.44677   0.81221   0.84845   0.01267  Uiso   1.00
C459   C     0.40762   0.75810   0.97190   0.01267  Uiso   1.00
C460   C     0.36058   0.78204   0.96262   0.01267  Uiso   1.00
C461   C     0.49794   0.73508   0.93694   0.01267  Uiso   1.00
C462   C     0.54164   0.73578   0.89402   0.01267  Uiso   1.00
C463   C     0.90581   0.01277   0.46037   0.01267  Uiso   1.00
C464   C     0.88940   0.98446   0.45492   0.01267  Uiso   1.00
C465   C     0.91755   0.93839   0.45551   0.01267  Uiso   1.00
C466   C     0.90044   0.91186   0.45184   0.01267  Uiso   1.00
C467   C     0.85552   0.93036   0.44842   0.01267  Uiso   1.00
C468   C     0.82840   0.97662   0.44766   0.01267  Uiso   1.00
C469   C     0.84569   0.00279   0.45061   0.01267  Uiso   1.00
C470   C     0.92652   0.86232   0.45096   0.01267  Uiso   1.00
C471   C     0.89038   0.85286   0.44758   0.01267  Uiso   1.00
C472   C     0.84845   0.89257   0.44677   0.01267  Uiso   1.00
C473   C     0.97190   0.86238   0.40762   0.01267  Uiso   1.00
C474   C     0.96262   0.89476   0.36058   0.01267  Uiso   1.00
C475   C     0.93694   0.83004   0.49794   0.01267  Uiso   1.00
C476   C     0.89402   0.82856   0.54164   0.01267  Uiso   1.00
C477   C     0.01277   0.90581   0.62105   0.01267  Uiso   1.00
C478   C     0.98446   0.88940   0.67122   0.01267  Uiso   1.00
C479   C     0.93839   0.91755   0.68855   0.01267  Uiso   1.00
C480   C     0.91186   0.90044   0.73586   0.01267  Uiso   1.00
C481   C     0.93036   0.85552   0.76570   0.01267  Uiso   1.00
C482   C     0.97662   0.82840   0.74732   0.01267  Uiso   1.00
C483   C     0.00279   0.84569   0.70091   0.01267  Uiso   1.00
C484   C     0.86232   0.92652   0.76020   0.01267  Uiso   1.00
C485   C     0.85286   0.89038   0.80918   0.01267  Uiso   1.00
C486   C     0.89257   0.84845   0.81221   0.01267  Uiso   1.00
C487   C     0.86238   0.97190   0.75810   0.01267  Uiso   1.00
C488   C     0.89476   0.96262   0.78204   0.01267  Uiso   1.00
C489   C     0.83004   0.93694   0.73508   0.01267  Uiso   1.00
C490   C     0.82856   0.89402   0.73578   0.01267  Uiso   1.00
C491   C     0.62105   0.46037   0.01277   0.01267  Uiso   1.00
C492   C     0.67122   0.45492   0.98446   0.01267  Uiso   1.00
C493   C     0.68855   0.45551   0.93839   0.01267  Uiso   1.00
C494   C     0.73586   0.45184   0.91186   0.01267  Uiso   1.00
C495   C     0.76570   0.44842   0.93036   0.01267  Uiso   1.00
C496   C     0.74732   0.44766   0.97662   0.01267  Uiso   1.00
C497   C     0.70091   0.45061   0.00279   0.01267  Uiso   1.00
C498   C     0.76020   0.45096   0.86232   0.01267  Uiso   1.00
C499   C     0.80918   0.44758   0.85286   0.01267  Uiso   1.00
C500   C     0.81221   0.44677   0.89257   0.01267  Uiso   1.00
C501   C     0.75810   0.40762   0.86238   0.01267  Uiso   1.00
C502   C     0.78204   0.36058   0.89476   0.01267  Uiso   1.00
C503   C     0.73508   0.49794   0.83004   0.01267  Uiso   1.00
C504   C     0.73578   0.54164   0.82856   0.01267  Uiso   1.00
C505   C     0.59419   0.03963   0.48723   0.01267  Uiso   1.00
C506   C     0.61060   0.04508   0.51554   0.01267  Uiso   1.00
C507   C     0.58245   0.04449   0.56161   0.01267  Uiso   1.00
C508   C     0.59956   0.04816   0.58814   0.01267  Uiso   1.00
C509   C     0.64448   0.05158   0.56964   0.01267  Uiso   1.00
C510   C     0.67160   0.05234   0.52338   0.01267  Uiso   1.00
C511   C     0.65431   0.04939   0.49721   0.01267  Uiso   1.00
C512   C     0.57348   0.04904   0.63768   0.01267  Uiso   1.00
C513   C     0.60962   0.05242   0.64714   0.01267  Uiso   1.00
C514   C     0.65155   0.05323   0.60743   0.01267  Uiso   1.00
C515   C     0.52810   0.09238   0.63762   0.01267  Uiso   1.00
C516   C     0.53738   0.13942   0.60524   0.01267  Uiso   1.00
C517   C     0.56306   0.00206   0.66996   0.01267  Uiso   1.00
C518   C     0.60598   0.95836   0.67144   0.01267  Uiso   1.00
C519   C     0.03963   0.59419   0.87895   0.01267  Uiso   1.00
C520   C     0.04508   0.61060   0.82878   0.01267  Uiso   1.00
C521   C     0.04449   0.58245   0.81145   0.01267  Uiso   1.00
C522   C     0.04816   0.59956   0.76414   0.01267  Uiso   1.00
C523   C     0.05158   0.64448   0.73430   0.01267  Uiso   1.00
C524   C     0.05234   0.67160   0.75268   0.01267  Uiso   1.00
C525   C     0.04939   0.65431   0.79909   0.01267  Uiso   1.00
C526   C     0.04904   0.57348   0.73980   0.01267  Uiso   1.00
C527   C     0.05242   0.60962   0.69082   0.01267  Uiso   1.00
C528   C     0.05323   0.65155   0.68779   0.01267  Uiso   1.00
C529   C     0.09238   0.52810   0.74190   0.01267  Uiso   1.00
C530   C     0.13942   0.53738   0.71796   0.01267  Uiso   1.00
C531   C     0.00206   0.56306   0.76492   0.01267  Uiso   1.00
C532   C     0.95836   0.60598   0.76422   0.01267  Uiso   1.00
C533   C     0.87895   0.48723   0.03963   0.01267  Uiso   1.00
C534   C     0.82878   0.51554   0.04508   0.01267  Uiso   1.00
C535   C     0.81145   0.56161   0.04449   0.01267  Uiso   1.00
C536   C     0.76414   0.58814   0.04816   0.01267  Uiso   1.00
C537   C     0.73430   0.56964   0.05158   0.01267  Uiso   1.00
C538   C     0.75268   0.52338   0.05234   0.01267  Uiso   1.00
C539   C     0.79909   0.49721   0.04939   0.01267  Uiso   1.00
C540   C     0.73980   0.63768   0.04904   0.01267  Uiso   1.00
C541   C     0.69082   0.64714   0.05242   0.01267  Uiso   1.00
C542   C     0.68779   0.60743   0.05323   0.01267  Uiso   1.00
C543   C     0.74190   0.63762   0.09238   0.01267  Uiso   1.00
C544   C     0.71796   0.60524   0.13942   0.01267  Uiso   1.00
C545   C     0.76492   0.66996   0.00206   0.01267  Uiso   1.00
C546   C     0.76422   0.67144   0.95836   0.01267  Uiso   1.00
C547   C     0.48723   0.87895   0.59419   0.01267  Uiso   1.00
C548   C     0.51554   0.82878   0.61060   0.01267  Uiso   1.00
C549   C     0.56161   0.81145   0.58245   0.01267  Uiso   1.00
C550   C     0.58814   0.76414   0.59956   0.01267  Uiso   1.00
C551   C     0.56964   0.73430   0.64448   0.01267  Uiso   1.00
C552   C     0.52338   0.75268   0.67160   0.01267  Uiso   1.00
C553   C     0.49721   0.79909   0.65431   0.01267  Uiso   1.00
C554   C     0.63768   0.73980   0.57348   0.01267  Uiso   1.00
C555   C     0.64714   0.69082   0.60962   0.01267  Uiso   1.00
C556   C     0.60743   0.68779   0.65155   0.01267  Uiso   1.00
C557   C     0.63762   0.74190   0.52810   0.01267  Uiso   1.00
C558   C     0.60524   0.71796   0.53738   0.01267  Uiso   1.00
C559   C     0.66996   0.76492   0.56306   0.01267  Uiso   1.00
C560   C     0.67144   0.76422   0.60598   0.01267  Uiso   1.00
C561   C     0.48723   0.03963   0.87895   0.01267  Uiso   1.00
C562   C     0.51554   0.04508   0.82878   0.01267  Uiso   1.00
C563   C     0.56161   0.04449   0.81145   0.01267  Uiso   1.00
C564   C     0.58814   0.04816   0.76414   0.01267  Uiso   1.00
C565   C     0.56964   0.05158   0.73430   0.01267  Uiso   1.00
C566   C     0.52338   0.05234   0.75268   0.01267  Uiso   1.00
C567   C     0.49721   0.04939   0.79909   0.01267  Uiso   1.00
C568   C     0.63768   0.04904   0.73980   0.01267  Uiso   1.00
C569   C     0.64714   0.05242   0.69082   0.01267  Uiso   1.00
C570   C     0.60743   0.05323   0.68779   0.01267  Uiso   1.00
C571   C     0.63762   0.09238   0.74190   0.01267  Uiso   1.00
C572   C     0.60524   0.13942   0.71796   0.01267  Uiso   1.00
C573   C     0.66996   0.00206   0.76492   0.01267  Uiso   1.00
C574   C     0.67144   0.95836   0.76422   0.01267  Uiso   1.00
C575   C     0.87895   0.59419   0.48723   0.01267  Uiso   1.00
C576   C     0.82878   0.61060   0.51554   0.01267  Uiso   1.00
C577   C     0.81145   0.58245   0.56161   0.01267  Uiso   1.00
C578   C     0.76414   0.59956   0.58814   0.01267  Uiso   1.00
C579   C     0.73430   0.64448   0.56964   0.01267  Uiso   1.00
C580   C     0.75268   0.67160   0.52338   0.01267  Uiso   1.00
C581   C     0.79909   0.65431   0.49721   0.01267  Uiso   1.00
C582   C     0.73980   0.57348   0.63768   0.01267  Uiso   1.00
C583   C     0.69082   0.60962   0.64714   0.01267  Uiso   1.00
C584   C     0.68779   0.65155   0.60743   0.01267  Uiso   1.00
C585   C     0.74190   0.52810   0.63762   0.01267  Uiso   1.00
C586   C     0.71796   0.53738   0.60524   0.01267  Uiso   1.00
C587   C     0.76492   0.56306   0.66996   0.01267  Uiso   1.00
C588   C     0.76422   0.60598   0.67144   0.01267  Uiso   1.00
C589   C     0.03963   0.48723   0.59419   0.01267  Uiso   1.00
C590   C     0.04508   0.51554   0.61060   0.01267  Uiso   1.00
C591   C     0.04449   0.56161   0.58245   0.01267  Uiso   1.00
C592   C     0.04816   0.58814   0.59956   0.01267  Uiso   1.00
C593   C     0.05158   0.56964   0.64448   0.01267  Uiso   1.00
C594   C     0.05234   0.52338   0.67160   0.01267  Uiso   1.00
C595   C     0.04939   0.49721   0.65431   0.01267  Uiso   1.00
C596   C     0.04904   0.63768   0.57348   0.01267  Uiso   1.00
C597   C     0.05242   0.64714   0.60962   0.01267  Uiso   1.00
C598   C     0.05323   0.60743   0.65155   0.01267  Uiso   1.00
C599   C     0.09238   0.63762   0.52810   0.01267  Uiso   1.00
C600   C     0.13942   0.60524   0.53738   0.01267  Uiso   1.00
C601   C     0.00206   0.66996   0.56306   0.01267  Uiso   1.00
C602   C     0.95836   0.67144   0.60598   0.01267  Uiso   1.00
C603   C     0.59419   0.87895   0.03963   0.01267  Uiso   1.00
C604   C     0.61060   0.82878   0.04508   0.01267  Uiso   1.00
C605   C     0.58245   0.81145   0.04449   0.01267  Uiso   1.00
C606   C     0.59956   0.76414   0.04816   0.01267  Uiso   1.00
C607   C     0.64448   0.73430   0.05158   0.01267  Uiso   1.00
C608   C     0.67160   0.75268   0.05234   0.01267  Uiso   1.00
C609   C     0.65431   0.79909   0.04939   0.01267  Uiso   1.00
C610   C     0.57348   0.73980   0.04904   0.01267  Uiso   1.00
C611   C     0.60962   0.69082   0.05242   0.01267  Uiso   1.00
C612   C     0.65155   0.68779   0.05323   0.01267  Uiso   1.00
C613   C     0.52810   0.74190   0.09238   0.01267  Uiso   1.00
C614   C     0.53738   0.71796   0.13942   0.01267  Uiso   1.00
C615   C     0.56306   0.76492   0.00206   0.01267  Uiso   1.00
C616   C     0.60598   0.76422   0.95836   0.01267  Uiso   1.00
C617   C     0.87895   0.03963   0.59419   0.01267  Uiso   1.00
C618   C     0.82878   0.04508   0.61060   0.01267  Uiso   1.00
C619   C     0.81145   0.04449   0.58245   0.01267  Uiso   1.00
C620   C     0.76414   0.04816   0.59956   0.01267  Uiso   1.00
C621   C     0.73430   0.05158   0.64448   0.01267  Uiso   1.00
C622   C     0.75268   0.05234   0.67160   0.01267  Uiso   1.00
C623   C     0.79909   0.04939   0.65431   0.01267  Uiso   1.00
C624   C     0.73980   0.04904   0.57348   0.01267  Uiso   1.00
C625   C     0.69082   0.05242   0.60962   0.01267  Uiso   1.00
C626   C     0.68779   0.05323   0.65155   0.01267  Uiso   1.00
C627   C     0.74190   0.09238   0.52810   0.01267  Uiso   1.00
C628   C     0.71796   0.13942   0.53738   0.01267  Uiso   1.00
C629   C     0.76492   0.00206   0.56306   0.01267  Uiso   1.00
C630   C     0.76422   0.95836   0.60598   0.01267  Uiso   1.00
C631   C     0.48723   0.59419   0.03963   0.01267  Uiso   1.00
C632   C     0.51554   0.61060   0.04508   0.01267  Uiso   1.00
C633   C     0.56161   0.58245   0.04449   0.01267  Uiso   1.00
C634   C     0.58814   0.59956   0.04816   0.01267  Uiso   1.00
C635   C     0.56964   0.64448   0.05158   0.01267  Uiso   1.00
C636   C     0.52338   0.67160   0.05234   0.01267  Uiso   1.00
C637   C     0.49721   0.65431   0.04939   0.01267  Uiso   1.00
C638   C     0.63768   0.57348   0.04904   0.01267  Uiso   1.00
C639   C     0.64714   0.60962   0.05242   0.01267  Uiso   1.00
C640   C     0.60743   0.65155   0.05323   0.01267  Uiso   1.00
C641   C     0.63762   0.52810   0.09238   0.01267  Uiso   1.00
C642   C     0.60524   0.53738   0.13942   0.01267  Uiso   1.00
C643   C     0.66996   0.56306   0.00206   0.01267  Uiso   1.00
C644   C     0.67144   0.60598   0.95836   0.01267  Uiso   1.00
C645   C     0.59419   0.48723   0.87895   0.01267  Uiso   1.00
C646   C     0.61060   0.51554   0.82878   0.01267  Uiso   1.00
C647   C     0.58245   0.56161   0.81145   0.01267  Uiso   1.00
C648   C     0.59956   0.58814   0.76414   0.01267  Uiso   1.00
C649   C     0.64448   0.56964   0.73430   0.01267  Uiso   1.00
C650   C     0.67160   0.52338   0.75268   0.01267  Uiso   1.00
C651   C     0.65431   0.49721   0.79909   0.01267  Uiso   1.00
C652   C     0.57348   0.63768   0.73980   0.01267  Uiso   1.00
C653   C     0.60962   0.64714   0.69082   0.01267  Uiso   1.00
C654   C     0.65155   0.60743   0.68779   0.01267  Uiso   1.00
C655   C     0.52810   0.63762   0.74190   0.01267  Uiso   1.00
C656   C     0.53738   0.60524   0.71796   0.01267  Uiso   1.00
C657   C     0.56306   0.66996   0.76492   0.01267  Uiso   1.00
C658   C     0.60598   0.67144   0.76422   0.01267  Uiso   1.00
C659   C     0.03963   0.87895   0.48723   0.01267  Uiso   1.00
C660   C     0.04508   0.82878   0.51554   0.01267  Uiso   1.00
C661   C     0.04449   0.81145   0.56161   0.01267  Uiso   1.00
C662   C     0.04816   0.76414   0.58814   0.01267  Uiso   1.00
C663   C     0.05158   0.73430   0.56964   0.01267  Uiso   1.00
C664   C     0.05234   0.75268   0.52338   0.01267  Uiso   1.00
C665   C     0.04939   0.79909   0.49721   0.01267  Uiso   1.00
C666   C     0.04904   0.73980   0.63768   0.01267  Uiso   1.00
C667   C     0.05242   0.69082   0.64714   0.01267  Uiso   1.00
C668   C     0.05323   0.68779   0.60743   0.01267  Uiso   1.00
C669   C     0.09238   0.74190   0.63762   0.01267  Uiso   1.00
C670   C     0.13942   0.71796   0.60524   0.01267  Uiso   1.00
C671   C     0.00206   0.76492   0.66996   0.01267  Uiso   1.00
C672   C     0.95836   0.76422   0.67144   0.01267  Uiso   1.00
O1     O     0.53444   0.05306   0.00670   0.01267  Uiso   1.00
O2     O     0.53558   0.11916   0.94852   0.01267  Uiso   1.00
O3     O     0.05306   0.53444   0.40580   0.01267  Uiso   1.00
O4     O     0.11916   0.53558   0.39674   0.01267  Uiso   1.00
O5     O     0.00670   0.40580   0.53444   0.01267  Uiso   1.00
O6     O     0.94852   0.39674   0.53558   0.01267  Uiso   1.00
O7     O     0.40580   0.00670   0.05306   0.01267  Uiso   1.00
O8     O     0.39674   0.94852   0.11916   0.01267  Uiso   1.00
O9     O     0.53444   0.00670   0.40580   0.01267  Uiso   1.00
O10    O     0.53558   0.94852   0.39674   0.01267  Uiso   1.00
O11    O     0.05306   0.40580   0.00670   0.01267  Uiso   1.00
O12    O     0.11916   0.39674   0.94852   0.01267  Uiso   1.00
O13    O     0.00670   0.53444   0.05306   0.01267  Uiso   1.00
O14    O     0.94852   0.53558   0.11916   0.01267  Uiso   1.00
O15    O     0.40580   0.05306   0.53444   0.01267  Uiso   1.00
O16    O     0.39674   0.11916   0.53558   0.01267  Uiso   1.00
O17    O     0.53444   0.40580   0.05306   0.01267  Uiso   1.00
O18    O     0.53558   0.39674   0.11916   0.01267  Uiso   1.00
O19    O     0.05306   0.00670   0.53444   0.01267  Uiso   1.00
O20    O     0.11916   0.94852   0.53558   0.01267  Uiso   1.00
O21    O     0.00670   0.05306   0.40580   0.01267  Uiso   1.00
O22    O     0.94852   0.11916   0.39674   0.01267  Uiso   1.00
O23    O     0.40580   0.53444   0.00670   0.01267  Uiso   1.00
O24    O     0.39674   0.53558   0.94852   0.01267  Uiso   1.00
O25    O     0.44694   0.96556   0.49330   0.01267  Uiso   1.00
O26    O     0.38084   0.96442   0.55148   0.01267  Uiso   1.00
O27    O     0.96556   0.44694   0.09420   0.01267  Uiso   1.00
O28    O     0.96442   0.38084   0.10326   0.01267  Uiso   1.00
O29    O     0.09420   0.49330   0.96556   0.01267  Uiso   1.00
O30    O     0.10326   0.55148   0.96442   0.01267  Uiso   1.00
O31    O     0.49330   0.09420   0.44694   0.01267  Uiso   1.00
O32    O     0.55148   0.10326   0.38084   0.01267  Uiso   1.00
O33    O     0.49330   0.96556   0.09420   0.01267  Uiso   1.00
O34    O     0.55148   0.96442   0.10326   0.01267  Uiso   1.00
O35    O     0.09420   0.44694   0.49330   0.01267  Uiso   1.00
O36    O     0.10326   0.38084   0.55148   0.01267  Uiso   1.00
O37    O     0.96556   0.49330   0.44694   0.01267  Uiso   1.00
O38    O     0.96442   0.55148   0.38084   0.01267  Uiso   1.00
O39    O     0.44694   0.09420   0.96556   0.01267  Uiso   1.00
O40    O     0.38084   0.10326   0.96442   0.01267  Uiso   1.00
O41    O     0.09420   0.96556   0.44694   0.01267  Uiso   1.00
O42    O     0.10326   0.96442   0.38084   0.01267  Uiso   1.00
O43    O     0.49330   0.44694   0.96556   0.01267  Uiso   1.00
O44    O     0.55148   0.38084   0.96442   0.01267  Uiso   1.00
O45    O     0.44694   0.49330   0.09420   0.01267  Uiso   1.00
O46    O     0.38084   0.55148   0.10326   0.01267  Uiso   1.00
O47    O     0.96556   0.09420   0.49330   0.01267  Uiso   1.00
O48    O     0.96442   0.10326   0.55148   0.01267  Uiso   1.00
O49    O     0.46556   0.94694   0.99330   0.01267  Uiso   1.00
O50    O     0.46442   0.88084   0.05148   0.01267  Uiso   1.00
O51    O     0.94694   0.46556   0.59420   0.01267  Uiso   1.00
O52    O     0.88084   0.46442   0.60326   0.01267  Uiso   1.00
O53    O     0.99330   0.59420   0.46556   0.01267  Uiso   1.00
O54    O     0.05148   0.60326   0.46442   0.01267  Uiso   1.00
O55    O     0.59420   0.99330   0.94694   0.01267  Uiso   1.00
O56    O     0.60326   0.05148   0.88084   0.01267  Uiso   1.00
O57    O     0.46556   0.99330   0.59420   0.01267  Uiso   1.00
O58    O     0.46442   0.05148   0.60326   0.01267  Uiso   1.00
O59    O     0.94694   0.59420   0.99330   0.01267  Uiso   1.00
O60    O     0.88084   0.60326   0.05148   0.01267  Uiso   1.00
O61    O     0.99330   0.46556   0.94694   0.01267  Uiso   1.00
O62    O     0.05148   0.46442   0.88084   0.01267  Uiso   1.00
O63    O     0.59420   0.94694   0.46556   0.01267  Uiso   1.00
O64    O     0.60326   0.88084   0.46442   0.01267  Uiso   1.00
O65    O     0.46556   0.59420   0.94694   0.01267  Uiso   1.00
O66    O     0.46442   0.60326   0.88084   0.01267  Uiso   1.00
O67    O     0.94694   0.99330   0.46556   0.01267  Uiso   1.00
O68    O     0.88084   0.05148   0.46442   0.01267  Uiso   1.00
O69    O     0.99330   0.94694   0.59420   0.01267  Uiso   1.00
O70    O     0.05148   0.88084   0.60326   0.01267  Uiso   1.00
O71    O     0.59420   0.46556   0.99330   0.01267  Uiso   1.00
O72    O     0.60326   0.46442   0.05148   0.01267  Uiso   1.00
O73    O     0.55306   0.03444   0.50670   0.01267  Uiso   1.00
O74    O     0.61916   0.03558   0.44852   0.01267  Uiso   1.00
O75    O     0.03444   0.55306   0.90580   0.01267  Uiso   1.00
O76    O     0.03558   0.61916   0.89674   0.01267  Uiso   1.00
O77    O     0.90580   0.50670   0.03444   0.01267  Uiso   1.00
O78    O     0.89674   0.44852   0.03558   0.01267  Uiso   1.00
O79    O     0.50670   0.90580   0.55306   0.01267  Uiso   1.00
O80    O     0.44852   0.89674   0.61916   0.01267  Uiso   1.00
O81    O     0.50670   0.03444   0.90580   0.01267  Uiso   1.00
O82    O     0.44852   0.03558   0.89674   0.01267  Uiso   1.00
O83    O     0.90580   0.55306   0.50670   0.01267  Uiso   1.00
O84    O     0.89674   0.61916   0.44852   0.01267  Uiso   1.00
O85    O     0.03444   0.50670   0.55306   0.01267  Uiso   1.00
O86    O     0.03558   0.44852   0.61916   0.01267  Uiso   1.00
O87    O     0.55306   0.90580   0.03444   0.01267  Uiso   1.00
O88    O     0.61916   0.89674   0.03558   0.01267  Uiso   1.00
O89    O     0.90580   0.03444   0.55306   0.01267  Uiso   1.00
O90    O     0.89674   0.03558   0.61916   0.01267  Uiso   1.00
O91    O     0.50670   0.55306   0.03444   0.01267  Uiso   1.00
O92    O     0.44852   0.61916   0.03558   0.01267  Uiso   1.00
O93    O     0.55306   0.50670   0.90580   0.01267  Uiso   1.00
O94    O     0.61916   0.44852   0.89674   0.01267  Uiso   1.00
O95    O     0.03444   0.90580   0.50670   0.01267  Uiso   1.00
O96    O     0.03558   0.89674   0.44852   0.01267  Uiso   1.00
O97    O     0.50000   0.00000  -0.00000   0.01267  Uiso   1.00
O98    O     0.00000   0.50000   0.50000   0.01267  Uiso   1.00
O99    O     0.50000   0.00000   0.50000   0.01267  Uiso   1.00
O100   O     0.00000   0.50000   0.00000   0.01267  Uiso   1.00
O101   O     0.50000   0.50000  -0.00000   0.01267  Uiso   1.00
O102   O     0.00000   0.00000   0.50000   0.01267  Uiso   1.00
