data_Cell_Modified_BOYCEY
_audit_creation_date              2019-03-13
_audit_creation_method            'Materials Studio'
_symmetry_space_group_name_H-M    'P1'
_symmetry_Int_Tables_number       1
_symmetry_cell_setting            triclinic
loop_
_symmetry_equiv_pos_as_xyz
  x,y,z
_cell_length_a                    18.3411
_cell_length_b                    18.3411
_cell_length_c                    52.6041
_cell_angle_alpha                 90.0000
_cell_angle_beta                  90.0000
_cell_angle_gamma                 120.0000
loop_
_atom_site_label
_atom_site_type_symbol
_atom_site_fract_x
_atom_site_fract_y
_atom_site_fract_z
_atom_site_U_iso_or_equiv
_atom_site_adp_type
_atom_site_occupancy
C1     C     0.26388   0.13422   0.21220   0.00000  Uiso   1.00
C2     C     0.25170   0.06201   0.22529   0.00000  Uiso   1.00
C3     C     0.22563   0.04840   0.25085   0.00000  Uiso   1.00
C4     C     0.21332   0.10892   0.26344   0.00000  Uiso   1.00
C5     C     0.22475   0.18132   0.25078   0.00000  Uiso   1.00
C6     C     0.25072   0.19378   0.22520   0.00000  Uiso   1.00
H7     H     0.25893   0.01453   0.21519   0.00000  Uiso   1.00
H8     H     0.19179   0.09814   0.28298   0.00000  Uiso   1.00
H9     H     0.25937   0.24921   0.21522   0.00000  Uiso   1.00
C10    C     0.92708   0.46433   0.54504   0.00000  Uiso   1.00
C11    C     0.91645   0.39310   0.55835   0.00000  Uiso   1.00
C12    C     0.89393   0.38151   0.58419   0.00000  Uiso   1.00
C13    C     0.88415   0.44338   0.59691   0.00000  Uiso   1.00
C14    C     0.89464   0.51523   0.58409   0.00000  Uiso   1.00
C15    C     0.91700   0.52561   0.55818   0.00000  Uiso   1.00
H16    H     0.92359   0.34544   0.54833   0.00000  Uiso   1.00
H17    H     0.86516   0.43401   0.61669   0.00000  Uiso   1.00
H18    H     0.92233   0.57920   0.54787   0.00000  Uiso   1.00
C19    C     0.59899   0.79738   0.87898   0.00000  Uiso   1.00
C20    C     0.58606   0.72482   0.89202   0.00000  Uiso   1.00
C21    C     0.56007   0.71135   0.91759   0.00000  Uiso   1.00
C22    C     0.54841   0.77223   0.93022   0.00000  Uiso   1.00
C23    C     0.56051   0.84494   0.91759   0.00000  Uiso   1.00
C24    C     0.58658   0.85734   0.89203   0.00000  Uiso   1.00
H25    H     0.59489   0.67809   0.88207   0.00000  Uiso   1.00
H26    H     0.52687   0.76152   0.94976   0.00000  Uiso   1.00
H27    H     0.59365   0.91193   0.88191   0.00000  Uiso   1.00
C28    C     0.84913   0.13143   0.21212   0.00000  Uiso   1.00
C29    C     0.78935   0.05903   0.22516   0.00000  Uiso   1.00
C30    C     0.80129   0.04609   0.25082   0.00000  Uiso   1.00
C31    C     0.87344   0.10731   0.26353   0.00000  Uiso   1.00
C32    C     0.93419   0.17991   0.25089   0.00000  Uiso   1.00
C33    C     0.92106   0.19182   0.22523   0.00000  Uiso   1.00
H34    H     0.73416   0.01201   0.21514   0.00000  Uiso   1.00
H35    H     0.88384   0.09696   0.28314   0.00000  Uiso   1.00
H36    H     0.96867   0.24633   0.21510   0.00000  Uiso   1.00
C37    C     0.52338   0.46682   0.54501   0.00000  Uiso   1.00
C38    C     0.46230   0.39506   0.55804   0.00000  Uiso   1.00
C39    C     0.47280   0.38255   0.58389   0.00000  Uiso   1.00
C40    C     0.54457   0.44374   0.59678   0.00000  Uiso   1.00
C41    C     0.60632   0.51577   0.58417   0.00000  Uiso   1.00
C42    C     0.59465   0.52721   0.55837   0.00000  Uiso   1.00
H43    H     0.40871   0.34695   0.54770   0.00000  Uiso   1.00
H44    H     0.55399   0.43374   0.61652   0.00000  Uiso   1.00
H45    H     0.64220   0.58228   0.54843   0.00000  Uiso   1.00
C46    C     0.18429   0.79836   0.87884   0.00000  Uiso   1.00
C47    C     0.25666   0.85810   0.89192   0.00000  Uiso   1.00
C48    C     0.27012   0.84548   0.91749   0.00000  Uiso   1.00
C49    C     0.20923   0.77287   0.93008   0.00000  Uiso   1.00
C50    C     0.13662   0.71225   0.91741   0.00000  Uiso   1.00
C51    C     0.12438   0.72585   0.89182   0.00000  Uiso   1.00
H52    H     0.30434   0.91265   0.88182   0.00000  Uiso   1.00
H53    H     0.21986   0.76203   0.94962   0.00000  Uiso   1.00
H54    H     0.06885   0.67929   0.88183   0.00000  Uiso   1.00
C55    C     0.84971   0.71958   0.21207   0.00000  Uiso   1.00
C56    C     0.92212   0.73218   0.22513   0.00000  Uiso   1.00
C57    C     0.93545   0.75779   0.25073   0.00000  Uiso   1.00
C58    C     0.87442   0.76912   0.26339   0.00000  Uiso   1.00
C59    C     0.80179   0.75717   0.25075   0.00000  Uiso   1.00
C60    C     0.78966   0.73179   0.22512   0.00000  Uiso   1.00
H61    H     0.96989   0.72558   0.21498   0.00000  Uiso   1.00
H62    H     0.88495   0.79024   0.28297   0.00000  Uiso   1.00
H63    H     0.73410   0.72283   0.21515   0.00000  Uiso   1.00
C64    C     0.52128   0.05934   0.54488   0.00000  Uiso   1.00
C65    C     0.46087   0.07012   0.55824   0.00000  Uiso   1.00
C66    C     0.47220   0.09305   0.58404   0.00000  Uiso   1.00
C67    C     0.54405   0.10306   0.59669   0.00000  Uiso   1.00
C68    C     0.60524   0.09243   0.58381   0.00000  Uiso   1.00
C69    C     0.59288   0.06968   0.55793   0.00000  Uiso   1.00
H70    H     0.40588   0.06275   0.54829   0.00000  Uiso   1.00
H71    H     0.55395   0.12235   0.61644   0.00000  Uiso   1.00
H72    H     0.64098   0.06420   0.54758   0.00000  Uiso   1.00
C73    C     0.18718   0.39085   0.87818   0.00000  Uiso   1.00
C74    C     0.12652   0.40134   0.89150   0.00000  Uiso   1.00
C75    C     0.13729   0.42349   0.91736   0.00000  Uiso   1.00
C76    C     0.20888   0.43313   0.93009   0.00000  Uiso   1.00
C77    C     0.27032   0.42282   0.91725   0.00000  Uiso   1.00
C78    C     0.25847   0.40076   0.89131   0.00000  Uiso   1.00
H79    H     0.07178   0.39434   0.88147   0.00000  Uiso   1.00
H80    H     0.21838   0.45186   0.94989   0.00000  Uiso   1.00
H81    H     0.30676   0.39552   0.88100   0.00000  Uiso   1.00
C82    C     0.12880   0.27282   0.68926   0.00000  Uiso   1.00
C83    C     0.18875   0.26052   0.67619   0.00000  Uiso   1.00
C84    C     0.17647   0.23492   0.65059   0.00000  Uiso   1.00
C85    C     0.10382   0.22300   0.63797   0.00000  Uiso   1.00
C86    C     0.04290   0.23453   0.65063   0.00000  Uiso   1.00
C87    C     0.05638   0.26030   0.67623   0.00000  Uiso   1.00
H88    H     0.24432   0.26944   0.68615   0.00000  Uiso   1.00
H89    H     0.09316   0.20170   0.61841   0.00000  Uiso   1.00
H90    H     0.00868   0.26698   0.68639   0.00000  Uiso   1.00
C91    C     0.79146   0.59765   0.02334   0.00000  Uiso   1.00
C92    C     0.85198   0.58692   0.01001   0.00000  Uiso   1.00
C93    C     0.84055   0.56356  -0.01577   0.00000  Uiso   1.00
C94    C     0.76838   0.55286  -0.02839   0.00000  Uiso   1.00
C95    C     0.70704   0.56327  -0.01553   0.00000  Uiso   1.00
C96    C     0.71957   0.58660   0.01030   0.00000  Uiso   1.00
H97    H     0.90716   0.59474   0.01995   0.00000  Uiso   1.00
H98    H     0.75837   0.53323  -0.04811   0.00000  Uiso   1.00
H99    H     0.67140   0.59202   0.02063   0.00000  Uiso   1.00
C100   C     0.45896   0.93753   0.35612   0.00000  Uiso   1.00
C101   C     0.38679   0.92564   0.34306   0.00000  Uiso   1.00
C102   C     0.37324   0.89993   0.31746   0.00000  Uiso   1.00
C103   C     0.43374   0.88766   0.30483   0.00000  Uiso   1.00
C104   C     0.50606   0.89886   0.31748   0.00000  Uiso   1.00
C105   C     0.51850   0.92455   0.34307   0.00000  Uiso   1.00
H106   H     0.33935   0.93282   0.35319   0.00000  Uiso   1.00
H107   H     0.42302   0.86637   0.28527   0.00000  Uiso   1.00
H108   H     0.57394   0.93309   0.35302   0.00000  Uiso   1.00
C109   C     0.12737   0.86277   0.69008   0.00000  Uiso   1.00
C110   C     0.18768   0.93412   0.67674   0.00000  Uiso   1.00
C111   C     0.17635   0.94569   0.65092   0.00000  Uiso   1.00
C112   C     0.10450   0.88378   0.63828   0.00000  Uiso   1.00
C113   C     0.04337   0.81193   0.65116   0.00000  Uiso   1.00
C114   C     0.05581   0.80151   0.67702   0.00000  Uiso   1.00
H115   H     0.24261   0.98179   0.68670   0.00000  Uiso   1.00
H116   H     0.09457   0.89314   0.61853   0.00000  Uiso   1.00
H117   H     0.00776   0.74785   0.68735   0.00000  Uiso   1.00
C118   C     0.79185   0.19170   0.02318   0.00000  Uiso   1.00
C119   C     0.85220   0.26300   0.00984   0.00000  Uiso   1.00
C120   C     0.84083   0.27467  -0.01596   0.00000  Uiso   1.00
C121   C     0.76893   0.21285  -0.02860   0.00000  Uiso   1.00
C122   C     0.70779   0.14099  -0.01573   0.00000  Uiso   1.00
C123   C     0.72025   0.13048   0.01013   0.00000  Uiso   1.00
H124   H     0.90715   0.31063   0.01981   0.00000  Uiso   1.00
H125   H     0.75897   0.22230  -0.04834   0.00000  Uiso   1.00
H126   H     0.67220   0.07685   0.02048   0.00000  Uiso   1.00
C127   C     0.45807   0.52290   0.35620   0.00000  Uiso   1.00
C128   C     0.51812   0.59502   0.34308   0.00000  Uiso   1.00
C129   C     0.50564   0.60851   0.31751   0.00000  Uiso   1.00
C130   C     0.43276   0.54798   0.30495   0.00000  Uiso   1.00
C131   C     0.37177   0.47568   0.31764   0.00000  Uiso   1.00
C132   C     0.38530   0.46333   0.34323   0.00000  Uiso   1.00
H133   H     0.57286   0.64252   0.35316   0.00000  Uiso   1.00
H134   H     0.42202   0.55868   0.28540   0.00000  Uiso   1.00
H135   H     0.33850   0.40796   0.35323   0.00000  Uiso   1.00
C136   C     0.72004   0.86164   0.69016   0.00000  Uiso   1.00
C137   C     0.73097   0.80076   0.67711   0.00000  Uiso   1.00
C138   C     0.75389   0.81135   0.65124   0.00000  Uiso   1.00
C139   C     0.76408   0.88299   0.63837   0.00000  Uiso   1.00
C140   C     0.75351   0.94452   0.65100   0.00000  Uiso   1.00
C141   C     0.73051   0.93277   0.67681   0.00000  Uiso   1.00
H142   H     0.72580   0.74728   0.68744   0.00000  Uiso   1.00
H143   H     0.78343   0.89247   0.61862   0.00000  Uiso   1.00
H144   H     0.72277   0.98016   0.68676   0.00000  Uiso   1.00
C145   C     0.38452   0.18987   0.02336   0.00000  Uiso   1.00
C146   C     0.39550   0.12946   0.01006   0.00000  Uiso   1.00
C147   C     0.41854   0.14071  -0.01575   0.00000  Uiso   1.00
C148   C     0.42859   0.21254  -0.02843   0.00000  Uiso   1.00
C149   C     0.41786   0.27373  -0.01560   0.00000  Uiso   1.00
C150   C     0.39494   0.26141   0.01026   0.00000  Uiso   1.00
H151   H     0.38814   0.07453   0.02005   0.00000  Uiso   1.00
H152   H     0.44797   0.22241  -0.04817   0.00000  Uiso   1.00
H153   H     0.38939   0.30956   0.02056   0.00000  Uiso   1.00
C154   C     0.04461   0.52472   0.35607   0.00000  Uiso   1.00
C155   C     0.05744   0.59721   0.34302   0.00000  Uiso   1.00
C156   C     0.08298   0.61043   0.31742   0.00000  Uiso   1.00
C157   C     0.09420   0.54933   0.30475   0.00000  Uiso   1.00
C158   C     0.08209   0.47663   0.31739   0.00000  Uiso   1.00
C159   C     0.05650   0.46448   0.34299   0.00000  Uiso   1.00
H160   H     0.04896   0.64410   0.35300   0.00000  Uiso   1.00
H161   H     0.11541   0.55988   0.28518   0.00000  Uiso   1.00
H162   H     0.04947   0.40993   0.35313   0.00000  Uiso   1.00
O163   O     0.88163   0.51036   0.94900   0.00000  Uiso   1.00
O164   O     1.01376   0.43569   0.91884   0.00000  Uiso   1.00
O165   O     0.88159   0.36911   0.94885   0.00000  Uiso   1.00
O166   O     1.01320   0.57624   0.91872   0.00000  Uiso   1.00
O167   O     1.09560   0.61738   0.95245   0.00000  Uiso   1.00
O168   O     0.96405   0.41057   0.98257   0.00000  Uiso   1.00
O169   O     1.09611   0.47655   0.95258   0.00000  Uiso   1.00
O170   O     0.96411   0.55138   0.98271   0.00000  Uiso   1.00
Cu171  Cu    0.93912   0.46863   0.93053   0.00000  Uiso   1.00
Cu172  Cu    1.03837   0.51819   0.97090   0.00000  Uiso   1.00
C173   C     0.89902   0.54191   0.97121   0.00000  Uiso   1.00
C174   C     1.07878   0.44509   0.93037   0.00000  Uiso   1.00
C175   C     0.89907   0.35491   0.97104   0.00000  Uiso   1.00
C176   C     1.07822   0.63175   0.93026   0.00000  Uiso   1.00
O177   O     0.54659   0.84453   0.28242   0.00000  Uiso   1.00
O178   O     0.67815   0.76932   0.25216   0.00000  Uiso   1.00
O179   O     0.54651   0.70329   0.28243   0.00000  Uiso   1.00
O180   O     0.67807   0.91005   0.25219   0.00000  Uiso   1.00
O181   O     0.76045   0.95141   0.28592   0.00000  Uiso   1.00
O182   O     0.62895   0.74458   0.31615   0.00000  Uiso   1.00
O183   O     0.76054   0.81043   0.28589   0.00000  Uiso   1.00
O184   O     0.62899   0.88554   0.31615   0.00000  Uiso   1.00
Cu185  Cu    0.60385   0.80253   0.26399   0.00000  Uiso   1.00
Cu186  Cu    0.70314   0.85216   0.30435   0.00000  Uiso   1.00
C187   C     0.56408   0.87629   0.30461   0.00000  Uiso   1.00
C188   C     0.74324   0.77890   0.26368   0.00000  Uiso   1.00
C189   C     0.56393   0.68899   0.30462   0.00000  Uiso   1.00
C190   C     0.74305   0.96565   0.26372   0.00000  Uiso   1.00
O191   O     0.34897   0.10567   0.58551   0.00000  Uiso   1.00
O192   O     0.21749   0.18116   0.61553   0.00000  Uiso   1.00
O193   O     0.34912   0.24659   0.58525   0.00000  Uiso   1.00
O194   O     0.21718   0.03985   0.61564   0.00000  Uiso   1.00
O195   O     0.29974   0.08149   0.64934   0.00000  Uiso   1.00
O196   O     0.43139   0.28796   0.61901   0.00000  Uiso   1.00
O197   O     0.29985   0.22234   0.64927   0.00000  Uiso   1.00
O198   O     0.43151   0.14684   0.61921   0.00000  Uiso   1.00
Cu199  Cu    0.27476   0.13909   0.59716   0.00000  Uiso   1.00
Cu200  Cu    0.37405   0.18891   0.63752   0.00000  Uiso   1.00
C201   C     0.41398   0.11506   0.59704   0.00000  Uiso   1.00
C202   C     0.23485   0.21287   0.63771   0.00000  Uiso   1.00
C203   C     0.41415   0.30218   0.59678   0.00000  Uiso   1.00
C204   C     0.23466   0.02580   0.63786   0.00000  Uiso   1.00
O205   O     0.54699   0.57516   0.91897   0.00000  Uiso   1.00
O206   O     0.47111   0.36828   0.94925   0.00000  Uiso   1.00
O207   O     0.40598   0.43455   0.91880   0.00000  Uiso   1.00
O208   O     0.61236   0.50945   0.94936   0.00000  Uiso   1.00
O209   O     0.57091   0.55053   0.98306   0.00000  Uiso   1.00
O210   O     0.36441   0.47536   0.95253   0.00000  Uiso   1.00
O211   O     0.43006   0.40961   0.98298   0.00000  Uiso   1.00
O212   O     0.50567   0.61645   0.95265   0.00000  Uiso   1.00
Cu213  Cu    0.51331   0.46757   0.93080   0.00000  Uiso   1.00
Cu214  Cu    0.46345   0.51715   0.97111   0.00000  Uiso   1.00
C215   C     0.53758   0.63078   0.93048   0.00000  Uiso   1.00
C216   C     0.43954   0.35403   0.97146   0.00000  Uiso   1.00
C217   C     0.35038   0.44408   0.93028   0.00000  Uiso   1.00
C218   C     0.62657   0.54114   0.97156   0.00000  Uiso   1.00
O219   O     0.23721   0.88739   0.31610   0.00000  Uiso   1.00
O220   O     0.03040   0.81220   0.28579   0.00000  Uiso   1.00
O221   O     0.09616   0.74664   0.31609   0.00000  Uiso   1.00
O222   O     0.17156   0.95349   0.28589   0.00000  Uiso   1.00
O223   O     0.21269   0.91224   0.25216   0.00000  Uiso   1.00
O224   O     0.13722   0.70529   0.28236   0.00000  Uiso   1.00
O225   O     0.07179   0.77118   0.25206   0.00000  Uiso   1.00
O226   O     0.27848   0.84630   0.28237   0.00000  Uiso   1.00
Cu227  Cu    0.12963   0.85417   0.30428   0.00000  Uiso   1.00
Cu228  Cu    0.17929   0.80458   0.26392   0.00000  Uiso   1.00
C229   C     0.29277   0.87791   0.30457   0.00000  Uiso   1.00
C230   C     0.01611   0.78043   0.26360   0.00000  Uiso   1.00
C231   C     0.10546   0.69099   0.30454   0.00000  Uiso   1.00
C232   C     0.20330   0.96783   0.26371   0.00000  Uiso   1.00
O233   O     0.69973   0.14552   0.61899   0.00000  Uiso   1.00
O234   O     0.90651   0.22109   0.64934   0.00000  Uiso   1.00
O235   O     0.84047   0.28705   0.61934   0.00000  Uiso   1.00
O236   O     0.76559   0.08020   0.64946   0.00000  Uiso   1.00
O237   O     0.80652   0.03871   0.61574   0.00000  Uiso   1.00
O238   O     0.88151   0.24566   0.58562   0.00000  Uiso   1.00
O239   O     0.94781   0.17992   0.61563   0.00000  Uiso   1.00
O240   O     0.74107   0.10450   0.58525   0.00000  Uiso   1.00
Cu241  Cu    0.79877   0.18757   0.63760   0.00000  Uiso   1.00
Cu242  Cu    0.84845   0.13796   0.59725   0.00000  Uiso   1.00
C243   C     0.68552   0.11402   0.59676   0.00000  Uiso   1.00
C244   C     0.96218   0.21181   0.63779   0.00000  Uiso   1.00
C245   C     0.87211   0.30128   0.59715   0.00000  Uiso   1.00
C246   C     0.77505   0.02459   0.63796   0.00000  Uiso   1.00
O247   O     0.43106   1.01736   0.98276   0.00000  Uiso   1.00
O248   O     0.50633   0.88577   0.95261   0.00000  Uiso   1.00
O249   O     0.57186   1.01734   0.98290   0.00000  Uiso   1.00
O250   O     0.36509   0.88583   0.95253   0.00000  Uiso   1.00
O251   O     0.40649   0.96835   0.91883   0.00000  Uiso   1.00
O252   O     0.61319   1.09962   0.94915   0.00000  Uiso   1.00
O253   O     0.54739   0.96809   0.91887   0.00000  Uiso   1.00
O254   O     0.47216   1.09988   0.94906   0.00000  Uiso   1.00
Cu255  Cu    0.46434   0.94310   0.97101   0.00000  Uiso   1.00
Cu256  Cu    0.51405   1.04238   0.93066   0.00000  Uiso   1.00
C257   C     0.44048   1.08241   0.97125   0.00000  Uiso   1.00
C258   C     0.53807   0.90315   0.93043   0.00000  Uiso   1.00
C259   C     0.62744   1.08236   0.97137   0.00000  Uiso   1.00
C260   C     0.35079   0.90340   0.93036   0.00000  Uiso   1.00
O261   O     0.17033   0.22183   0.28582   0.00000  Uiso   1.00
O262   O     0.09485   0.35327   0.31608   0.00000  Uiso   1.00
O263   O     0.02882   0.22112   0.28601   0.00000  Uiso   1.00
O264   O     0.23549   0.35268   0.31632   0.00000  Uiso   1.00
O265   O     0.27686   0.43510   0.28259   0.00000  Uiso   1.00
O266   O     0.07013   0.30345   0.25227   0.00000  Uiso   1.00
O267   O     0.13592   0.43559   0.28233   0.00000  Uiso   1.00
O268   O     0.21143   0.30428   0.25210   0.00000  Uiso   1.00
Cu269  Cu    0.12811   0.27879   0.30437   0.00000  Uiso   1.00
Cu270  Cu    0.17777   0.37805   0.26401   0.00000  Uiso   1.00
C271   C     0.20215   0.23934   0.26364   0.00000  Uiso   1.00
C272   C     0.10425   0.41826   0.30452   0.00000  Uiso   1.00
C273   C     0.01457   0.23840   0.26380   0.00000  Uiso   1.00
C274   C     0.29115   0.41762   0.30478   0.00000  Uiso   1.00
O275   O     0.76649   0.68790   0.64982   0.00000  Uiso   1.00
O276   O     0.84185   0.55666   0.61934   0.00000  Uiso   1.00
O277   O     0.90751   0.68814   0.64977   0.00000  Uiso   1.00
O278   O     0.70056   0.55651   0.61944   0.00000  Uiso   1.00
O279   O     0.74210   0.63920   0.58577   0.00000  Uiso   1.00
O280   O     0.94879   0.77046   0.61603   0.00000  Uiso   1.00
O281   O     0.88277   0.63909   0.58562   0.00000  Uiso   1.00
O282   O     0.80760   0.77042   0.61612   0.00000  Uiso   1.00
Cu283  Cu    0.79993   0.61383   0.63790   0.00000  Uiso   1.00
Cu284  Cu    0.84957   0.71327   0.59759   0.00000  Uiso   1.00
C285   C     0.77592   0.75296   0.63832   0.00000  Uiso   1.00
C286   C     0.87324   0.57396   0.59710   0.00000  Uiso   1.00
C287   C     0.96306   0.75320   0.63824   0.00000  Uiso   1.00
C288   C     0.68645   0.57407   0.59724   0.00000  Uiso   1.00
C289   C     0.16270   0.34774   0.79666   0.00000  Uiso   1.00
C290   C     0.19029   0.30355   0.81259   0.00000  Uiso   1.00
C291   C     0.19817   0.31779   0.83901   0.00000  Uiso   1.00
C292   C     0.17867   0.37536   0.85022   0.00000  Uiso   1.00
C293   C     0.15186   0.41929   0.83454   0.00000  Uiso   1.00
C294   C     0.14398   0.40598   0.80829   0.00000  Uiso   1.00
C295   C     0.15489   0.33152   0.76987   0.00000  Uiso   1.00
C296   C     0.12750   0.37205   0.75258   0.00000  Uiso   1.00
C297   C     0.11981   0.35337   0.72661   0.00000  Uiso   1.00
C298   C     0.13938   0.29412   0.71686   0.00000  Uiso   1.00
C299   C     0.16720   0.25371   0.73368   0.00000  Uiso   1.00
C300   C     0.17493   0.27161   0.75987   0.00000  Uiso   1.00
C301   C     0.20961   0.24511   0.80209   0.00000  Uiso   1.00
C302   C     0.20201   0.22934   0.77608   0.00000  Uiso   1.00
H303   H     0.23062   0.21117   0.81409   0.00000  Uiso   1.00
H304   H     0.21728   0.18352   0.76860   0.00000  Uiso   1.00
H305   H     0.21849   0.28308   0.85095   0.00000  Uiso   1.00
H306   H     0.13798   0.46538   0.84257   0.00000  Uiso   1.00
H307   H     0.09893   0.38603   0.71403   0.00000  Uiso   1.00
H308   H     0.18124   0.20672   0.72645   0.00000  Uiso   1.00
H309   H     0.12327   0.44250   0.79766   0.00000  Uiso   1.00
H310   H     0.11129   0.41838   0.75851   0.00000  Uiso   1.00
C311   C     0.49473   0.01423   0.46345   0.00000  Uiso   1.00
C312   C     0.52298  -0.02939   0.47938   0.00000  Uiso   1.00
C313   C     0.53158  -0.01449   0.50577   0.00000  Uiso   1.00
C314   C     0.51214   0.04318   0.51695   0.00000  Uiso   1.00
C315   C     0.48469   0.08653   0.50126   0.00000  Uiso   1.00
C316   C     0.47607   0.07256   0.47505   0.00000  Uiso   1.00
C317   C     0.48629  -0.00257   0.43668   0.00000  Uiso   1.00
C318   C     0.45837   0.03750   0.41940   0.00000  Uiso   1.00
C319   C     0.45025   0.01840   0.39345   0.00000  Uiso   1.00
C320   C     0.46979  -0.04090   0.38372   0.00000  Uiso   1.00
C321   C     0.49801  -0.08093   0.40056   0.00000  Uiso   1.00
C322   C     0.50629  -0.06251   0.42672   0.00000  Uiso   1.00
C323   C     0.54224  -0.08789   0.46891   0.00000  Uiso   1.00
C324   C     0.53398  -0.10425   0.44293   0.00000  Uiso   1.00
H325   H     0.56377  -0.12140   0.48091   0.00000  Uiso   1.00
H326   H     0.54928  -0.15007   0.43547   0.00000  Uiso   1.00
H327   H     0.55239  -0.04878   0.51771   0.00000  Uiso   1.00
H328   H     0.47084   0.13268   0.50926   0.00000  Uiso   1.00
H329   H     0.42910   0.05085   0.38087   0.00000  Uiso   1.00
H330   H     0.51203  -0.12797   0.39336   0.00000  Uiso   1.00
H331   H     0.45485   0.10863   0.46441   0.00000  Uiso   1.00
H332   H     0.44215   0.08384   0.42531   0.00000  Uiso   1.00
C333   C     0.81670   0.64335   0.10474   0.00000  Uiso   1.00
C334   C     0.78873   0.68689   0.08867   0.00000  Uiso   1.00
C335   C     0.78077   0.67196   0.06227   0.00000  Uiso   1.00
C336   C     0.80060   0.61436   0.05124   0.00000  Uiso   1.00
C337   C     0.82803   0.57130   0.06705   0.00000  Uiso   1.00
C338   C     0.83599   0.58528   0.09327   0.00000  Uiso   1.00
C339   C     0.82424   0.65995   0.13152   0.00000  Uiso   1.00
C340   C     0.85170   0.61982   0.14892   0.00000  Uiso   1.00
C341   C     0.85908   0.63877   0.17487   0.00000  Uiso   1.00
C342   C     0.83917   0.69794   0.18449   0.00000  Uiso   1.00
C343   C     0.81118   0.73790   0.16754   0.00000  Uiso   1.00
C344   C     0.80374   0.71970   0.14136   0.00000  Uiso   1.00
C345   C     0.76902   0.74525   0.09902   0.00000  Uiso   1.00
C346   C     0.77646   0.76146   0.12500   0.00000  Uiso   1.00
H347   H     0.74777   0.77877   0.08691   0.00000  Uiso   1.00
H348   H     0.76081   0.80714   0.13237   0.00000  Uiso   1.00
H349   H     0.76000   0.70606   0.05023   0.00000  Uiso   1.00
H350   H     0.84223   0.52526   0.05916   0.00000  Uiso   1.00
H351   H     0.88002   0.60638   0.18754   0.00000  Uiso   1.00
H352   H     0.79681   0.78478   0.17466   0.00000  Uiso   1.00
H353   H     0.85718   0.54937   0.10401   0.00000  Uiso   1.00
H354   H     0.86816   0.57357   0.14312   0.00000  Uiso   1.00
C355   C     0.15927   0.83309   0.79830   0.00000  Uiso   1.00
C356   C     0.13891   0.75283   0.80811   0.00000  Uiso   1.00
C357   C     0.14615   0.74191   0.83428   0.00000  Uiso   1.00
C358   C     0.17380   0.80969   0.85127   0.00000  Uiso   1.00
C359   C     0.19356   0.88879   0.84170   0.00000  Uiso   1.00
C360   C     0.18636   0.90052   0.81575   0.00000  Uiso   1.00
C361   C     0.15200   0.84228   0.77152   0.00000  Uiso   1.00
C362   C     0.17119   0.91964   0.76005   0.00000  Uiso   1.00
C363   C     0.16348   0.92574   0.73382   0.00000  Uiso   1.00
C364   C     0.13641   0.85531   0.71799   0.00000  Uiso   1.00
C365   C     0.11675   0.77794   0.72902   0.00000  Uiso   1.00
C366   C     0.12442   0.77090   0.75542   0.00000  Uiso   1.00
C367   C     0.11200   0.68392   0.79172   0.00000  Uiso   1.00
C368   C     0.10480   0.69283   0.76574   0.00000  Uiso   1.00
H369   H     0.09648   0.62259   0.79906   0.00000  Uiso   1.00
H370   H     0.08382   0.63816   0.75360   0.00000  Uiso   1.00
H371   H     0.13193   0.68067   0.84136   0.00000  Uiso   1.00
H372   H     0.21428   0.94201   0.85441   0.00000  Uiso   1.00
H373   H     0.17758   0.98595   0.72593   0.00000  Uiso   1.00
H374   H     0.09630   0.72315   0.71697   0.00000  Uiso   1.00
H375   H     0.20268   0.96322   0.80997   0.00000  Uiso   1.00
H376   H     0.19209   0.97666   0.77082   0.00000  Uiso   1.00
C377   C     0.50251   0.49123   0.46356   0.00000  Uiso   1.00
C378   C     0.43110   0.46324   0.47967   0.00000  Uiso   1.00
C379   C     0.43827   0.45571   0.50607   0.00000  Uiso   1.00
C380   C     0.51581   0.47593   0.51710   0.00000  Uiso   1.00
C381   C     0.58628   0.50352   0.50125   0.00000  Uiso   1.00
C382   C     0.58005   0.51110   0.47502   0.00000  Uiso   1.00
C383   C     0.49316   0.49825   0.43677   0.00000  Uiso   1.00
C384   C     0.56055   0.52548   0.41930   0.00000  Uiso   1.00
C385   C     0.54867   0.53245   0.39335   0.00000  Uiso   1.00
C386   C     0.46946   0.51238   0.38378   0.00000  Uiso   1.00
C387   C     0.40170   0.48450   0.40079   0.00000  Uiso   1.00
C388   C     0.41276   0.47739   0.42697   0.00000  Uiso   1.00
C389   C     0.35286   0.44304   0.46935   0.00000  Uiso   1.00
C390   C     0.34383   0.45010   0.44337   0.00000  Uiso   1.00
H391   H     0.29816   0.42172   0.48149   0.00000  Uiso   1.00
H392   H     0.28238   0.43414   0.43604   0.00000  Uiso   1.00
H393   H     0.38342   0.43489   0.51812   0.00000  Uiso   1.00
H394   H     0.64664   0.51808   0.50913   0.00000  Uiso   1.00
H395   H     0.60189   0.55326   0.38063   0.00000  Uiso   1.00
H396   H     0.34036   0.47000   0.39373   0.00000  Uiso   1.00
H397   H     0.63713   0.53247   0.46425   0.00000  Uiso   1.00
H398   H     0.62333   0.54206   0.42507   0.00000  Uiso   1.00
C399   C     0.81672   0.17268   0.10465   0.00000  Uiso   1.00
C400   C     0.78956   0.10106   0.08867   0.00000  Uiso   1.00
C401   C     0.78166   0.10753   0.06226   0.00000  Uiso   1.00
C402   C     0.80080   0.18459   0.05110   0.00000  Uiso   1.00
C403   C     0.82741   0.25519   0.06681   0.00000  Uiso   1.00
C404   C     0.83528   0.24965   0.09305   0.00000  Uiso   1.00
C405   C     0.82420   0.16414   0.13145   0.00000  Uiso   1.00
C406   C     0.85087   0.23188   0.14876   0.00000  Uiso   1.00
C407   C     0.85812   0.22079   0.17474   0.00000  Uiso   1.00
C408   C     0.83889   0.14206   0.18449   0.00000  Uiso   1.00
C409   C     0.81178   0.07399   0.16763   0.00000  Uiso   1.00
C410   C     0.80444   0.08425   0.14142   0.00000  Uiso   1.00
C411   C     0.77059   0.02336   0.09915   0.00000  Uiso   1.00
C412   C     0.77798   0.01508   0.12517   0.00000  Uiso   1.00
H413   H     0.74996  -0.03150   0.08712   0.00000  Uiso   1.00
H414   H     0.76291  -0.04596   0.13263   0.00000  Uiso   1.00
H415   H     0.76150   0.05260   0.05029   0.00000  Uiso   1.00
H416   H     0.84106   0.31515   0.05882   0.00000  Uiso   1.00
H417   H     0.87841   0.27421   0.18734   0.00000  Uiso   1.00
H418   H     0.79797   0.01302   0.17486   0.00000  Uiso   1.00
H419   H     0.85583   0.30681   0.10371   0.00000  Uiso   1.00
H420   H     0.86677   0.29434   0.14285   0.00000  Uiso   1.00
C421   C     0.67518   0.84109   0.77163   0.00000  Uiso   1.00
C422   C     0.63195   0.76952   0.75557   0.00000  Uiso   1.00
C423   C     0.64656   0.77656   0.72916   0.00000  Uiso   1.00
C424   C     0.70358   0.85411   0.71808   0.00000  Uiso   1.00
C425   C     0.74635   0.92471   0.73388   0.00000  Uiso   1.00
C426   C     0.73264   0.91862   0.76012   0.00000  Uiso   1.00
C427   C     0.65884   0.83192   0.79842   0.00000  Uiso   1.00
C428   C     0.69877   0.89949   0.81584   0.00000  Uiso   1.00
C429   C     0.67989   0.88779   0.84179   0.00000  Uiso   1.00
C430   C     0.62094   0.80860   0.85141   0.00000  Uiso   1.00
C431   C     0.58132   0.74065   0.83445   0.00000  Uiso   1.00
C432   C     0.59951   0.75152   0.80827   0.00000  Uiso   1.00
C433   C     0.57416   0.69128   0.76593   0.00000  Uiso   1.00
C434   C     0.55810   0.68242   0.79193   0.00000  Uiso   1.00
H435   H     0.54094   0.63646   0.75383   0.00000  Uiso   1.00
H436   H     0.51278   0.62096   0.79930   0.00000  Uiso   1.00
H437   H     0.61265   0.72161   0.71714   0.00000  Uiso   1.00
H438   H     0.79194   0.98509   0.72597   0.00000  Uiso   1.00
H439   H     0.71212   0.94115   0.85447   0.00000  Uiso   1.00
H440   H     0.53463   0.67930   0.84155   0.00000  Uiso   1.00
H441   H     0.76823   0.97580   0.77085   0.00000  Uiso   1.00
H442   H     0.74480   0.96228   0.81003   0.00000  Uiso   1.00
C443   C     0.97026   0.48331   0.46352   0.00000  Uiso   1.00
C444   C     1.01428   0.55508   0.47947   0.00000  Uiso   1.00
C445   C     1.00009   0.54861   0.50589   0.00000  Uiso   1.00
C446   C     0.94274   0.47143   0.51709   0.00000  Uiso   1.00
C447   C     0.89905   0.40069   0.50140   0.00000  Uiso   1.00
C448   C     0.91233   0.40622   0.47515   0.00000  Uiso   1.00
C449   C     0.98629   0.49185   0.43671   0.00000  Uiso   1.00
C450   C     0.94574   0.42399   0.41942   0.00000  Uiso   1.00
C451   C     0.96422   0.43510   0.39344   0.00000  Uiso   1.00
C452   C     1.02335   0.51398   0.38368   0.00000  Uiso   1.00
C453   C     1.06373   0.58216   0.40053   0.00000  Uiso   1.00
C454   C     1.04596   0.57188   0.42672   0.00000  Uiso   1.00
C455   C     1.07245   0.63293   0.46896   0.00000  Uiso   1.00
C456   C     1.08811   0.64121   0.44295   0.00000  Uiso   1.00
H457   H     1.10626   0.68789   0.48097   0.00000  Uiso   1.00
H458   H     1.13371   0.70238   0.43547   0.00000  Uiso   1.00
H459   H     1.03465   0.60366   0.51783   0.00000  Uiso   1.00
H460   H     0.85314   0.34063   0.50942   0.00000  Uiso   1.00
H461   H     0.93150   0.38158   0.38085   0.00000  Uiso   1.00
H462   H     1.11062   0.64325   0.39331   0.00000  Uiso   1.00
H463   H     0.87604   0.34896   0.46451   0.00000  Uiso   1.00
H464   H     0.89951   0.36141   0.42534   0.00000  Uiso   1.00
C465   C     0.32355   0.15905   0.13164   0.00000  Uiso   1.00
C466   C     0.26400   0.17987   0.14146   0.00000  Uiso   1.00
C467   C     0.24588   0.17273   0.16763   0.00000  Uiso   1.00
C468   C     0.28580   0.14484   0.18463   0.00000  Uiso   1.00
C469   C     0.34497   0.12485   0.17505   0.00000  Uiso   1.00
C470   C     0.36379   0.13186   0.14909   0.00000  Uiso   1.00
C471   C     0.33982   0.16603   0.10484   0.00000  Uiso   1.00
C472   C     0.39751   0.14622   0.09337   0.00000  Uiso   1.00
C473   C     0.41116   0.15367   0.06713   0.00000  Uiso   1.00
C474   C     0.36808   0.18104   0.05129   0.00000  Uiso   1.00
C475   C     0.31079   0.20126   0.06233   0.00000  Uiso   1.00
C476   C     0.29625   0.19388   0.08874   0.00000  Uiso   1.00
C477   C     0.22226   0.20708   0.12507   0.00000  Uiso   1.00
C478   C     0.23823   0.21407   0.09907   0.00000  Uiso   1.00
H479   H     0.17676   0.22301   0.13242   0.00000  Uiso   1.00
H480   H     0.20476   0.23530   0.08694   0.00000  Uiso   1.00
H481   H     0.19902   0.18718   0.17471   0.00000  Uiso   1.00
H482   H     0.37741   0.10404   0.18775   0.00000  Uiso   1.00
H483   H     0.45697   0.13914   0.05924   0.00000  Uiso   1.00
H484   H     0.27662   0.22193   0.05028   0.00000  Uiso   1.00
H485   H     0.41000   0.11532   0.14331   0.00000  Uiso   1.00
H486   H     0.43337   0.12501   0.10413   0.00000  Uiso   1.00
loop_
_geom_bond_atom_site_label_1
_geom_bond_atom_site_label_2
_geom_bond_distance
_geom_bond_site_symmetry_2
_ccdc_geom_bond_type
C1     C2      1.408   .     A
C1     C468    1.492   .     S
C1     C6      1.408   .     A
C2     C3      1.407   .     A
C2     H7      1.083   .     S
C3     C4      1.404   .     A
C3     C232    1.485   1_545 S
C4     C5      1.404   .     A
C4     H8      1.083   .     S
C5     C271    1.484   .     S
C5     C6      1.407   .     A
C6     H9      1.083   .     S
C10    C446    1.491   .     S
C10    C11     1.407   .     A
C10    C15     1.408   .     A
C11    H16     1.083   .     S
C11    C12     1.406   .     A
C12    C245    1.484   .     S
C12    C13     1.404   .     A
C13    H17     1.083   .     S
C13    C14     1.405   .     A
C14    C286    1.485   .     S
C14    C15     1.409   .     A
C15    H18     1.083   .     S
C19    C430    1.492   .     S
C19    C20     1.408   .     A
C19    C24     1.408   .     A
C20    H25     1.083   .     S
C20    C21     1.407   .     A
C21    C22     1.405   .     A
C21    C215    1.485   .     S
C22    H26     1.083   .     S
C22    C23     1.405   .     A
C23    C24     1.407   .     A
C23    C258    1.485   .     S
C24    H27     1.083   .     S
C28    C33     1.408   .     A
C28    C29     1.407   .     A
C28    C408    1.491   .     S
C29    C30     1.407   .     A
C29    H34     1.083   .     S
C30    C31     1.405   .     A
C30    C190    1.484   1_545 S
C31    H35     1.083   .     S
C31    C32     1.405   .     A
C32    C33     1.407   .     A
C32    C273    1.485   1_655 S
C33    H36     1.083   .     S
C37    C42     1.408   .     A
C37    C38     1.408   .     A
C37    C380    1.492   .     S
C38    C39     1.408   .     A
C38    H43     1.083   .     S
C39    C40     1.405   .     A
C39    C203    1.485   .     S
C40    H44     1.083   .     S
C40    C41     1.404   .     A
C41    C42     1.406   .     A
C41    C288    1.485   .     S
C42    H45     1.083   .     S
C46    C47     1.408   .     A
C46    C51     1.407   .     A
C46    C358    1.491   .     S
C47    C48     1.407   .     A
C47    H52     1.083   .     S
C48    C260    1.485   .     S
C48    C49     1.404   .     A
C49    H53     1.083   .     S
C49    C50     1.405   .     A
C50    C51     1.407   .     A
C50    C176    1.484   1_455 S
C51    H54     1.083   .     S
C55    C342    1.491   .     S
C55    C60     1.408   .     A
C55    C56     1.408   .     A
C56    H61     1.083   .     S
C56    C57     1.407   .     A
C57    C58     1.404   .     A
C57    C230    1.485   1_655 S
C58    H62     1.083   .     S
C58    C59     1.405   .     A
C59    C188    1.484   .     S
C59    C60     1.407   .     A
C60    H63     1.083   .     S
C64    C314    1.492   .     S
C64    C69     1.408   .     A
C64    C65     1.407   .     A
C65    C66     1.405   .     A
C65    H70     1.083   .     S
C66    C67     1.404   .     A
C66    C201    1.484   .     S
C67    C68     1.405   .     A
C67    H71     1.083   .     S
C68    C243    1.485   .     S
C68    C69     1.409   .     A
C69    H72     1.083   .     S
C73    C78     1.408   .     A
C73    C292    1.491   .     S
C73    C74     1.407   .     A
C74    C75     1.405   .     A
C74    H79     1.083   .     S
C75    C76     1.404   .     A
C75    C174    1.484   1_455 S
C76    C77     1.405   .     A
C76    H80     1.083   .     S
C77    C78     1.409   .     A
C77    C217    1.485   .     S
C78    H81     1.083   .     S
C82    C83     1.407   .     A
C82    C298    1.491   .     S
C82    C87     1.408   .     A
C83    H88     1.083   .     S
C83    C84     1.407   .     A
C84    C85     1.405   .     A
C84    C202    1.484   .     S
C85    H89     1.083   .     S
C85    C86     1.405   .     A
C86    C87     1.408   .     A
C86    C244    1.485   1_455 S
C87    H90     1.083   .     S
C91    C92     1.407   .     A
C91    C336    1.492   .     S
C91    C96     1.408   .     A
C92    C93     1.406   .     A
C92    H97     1.083   .     S
C93    C94     1.404   .     A
C93    C173    1.484   1_554 S
C94    C95     1.405   .     A
C94    H98     1.083   .     S
C95    C96     1.408   .     A
C95    C218    1.485   1_554 S
C96    H99     1.083   .     S
C100   C105    1.407   .     A
C100   C101    1.408   .     A
C100   C320    1.492   1_565 S
C101   H106    1.083   .     S
C101   C102    1.407   .     A
C102   C229    1.485   .     S
C102   C103    1.405   .     A
C103   H107    1.083   .     S
C103   C104    1.404   .     A
C104   C187    1.484   .     S
C104   C105    1.407   .     A
C105   H108    1.083   .     S
C109   C114    1.408   .     A
C109   C110    1.407   .     A
C109   C364    1.491   .     S
C110   H115    1.083   .     S
C110   C111    1.406   .     A
C111   C112    1.404   .     A
C111   C204    1.484   1_565 S
C112   H116    1.083   .     S
C112   C113    1.405   .     A
C113   C114    1.408   .     A
C113   C287    1.485   1_455 S
C114   H117    1.083   .     S
C118   C119    1.407   .     A
C118   C123    1.408   .     A
C118   C402    1.491   .     S
C119   C120    1.406   .     A
C119   H124    1.083   .     S
C120   C121    1.404   .     A
C120   C175    1.484   1_554 S
C121   C122    1.405   .     A
C121   H125    1.083   .     S
C122   C123    1.409   .     A
C122   C259    1.485   1_544 S
C123   H126    1.083   .     S
C127   C128    1.408   .     A
C127   C386    1.492   .     S
C127   C132    1.408   .     A
C128   C129    1.407   .     A
C128   H133    1.083   .     S
C129   C130    1.404   .     A
C129   C189    1.484   .     S
C130   H134    1.083   .     S
C130   C131    1.404   .     A
C131   C274    1.484   .     S
C131   C132    1.408   .     A
C132   H135    1.083   .     S
C136   C424    1.492   .     S
C136   C137    1.408   .     A
C136   C141    1.408   .     A
C137   H142    1.083   .     S
C137   C138    1.409   .     A
C138   C285    1.485   .     S
C138   C139    1.405   .     A
C139   H143    1.083   .     S
C139   C140    1.404   .     A
C140   C141    1.406   .     A
C140   C246    1.484   1_565 S
C141   H144    1.083   .     S
C145   C474    1.492   .     S
C145   C150    1.408   .     A
C145   C146    1.407   .     A
C146   H151    1.083   .     S
C146   C147    1.406   .     A
C147   C148    1.404   .     A
C147   C257    1.484   1_544 S
C148   H152    1.083   .     S
C148   C149    1.405   .     A
C149   C150    1.408   .     A
C149   C216    1.485   1_554 S
C150   H153    1.083   .     S
C154   C155    1.408   .     A
C154   C159    1.408   .     A
C154   C452    1.491   1_455 S
C155   C156    1.406   .     A
C155   H160    1.083   .     S
C156   C231    1.484   .     S
C156   C157    1.405   .     A
C157   H161    1.083   .     S
C157   C158    1.405   .     A
C158   C159    1.407   .     A
C158   C272    1.485   .     S
C159   H162    1.083   .     S
O163   C173    1.272   .     A
O163   Cu171   1.857   .     S
O164   Cu171   1.856   .     S
O164   C174    1.270   .     A
O165   C175    1.271   .     A
O165   Cu171   1.857   .     S
O166   Cu171   1.856   .     S
O166   C176    1.270   .     A
O167   C176    1.272   .     A
O167   Cu172   1.856   .     S
O168   C175    1.270   .     A
O168   Cu172   1.855   .     S
O169   C174    1.271   .     A
O169   Cu172   1.855   .     S
O170   Cu172   1.855   .     S
O170   C173    1.270   .     A
Cu171  Cu172   2.645   .     S
C173   C93     1.484   1_556 S
C174   C75     1.484   1_655 S
C175   C120    1.484   1_556 S
C176   C50     1.484   1_655 S
O177   C187    1.272   .     A
O177   Cu185   1.856   .     S
O178   C188    1.270   .     A
O178   Cu185   1.856   .     S
O179   Cu185   1.856   .     S
O179   C189    1.272   .     A
O180   C190    1.270   .     A
O180   Cu185   1.855   .     S
O181   C190    1.272   .     A
O181   Cu186   1.856   .     S
O182   C189    1.270   .     A
O182   Cu186   1.856   .     S
O183   C188    1.271   .     A
O183   Cu186   1.856   .     S
O184   C187    1.270   .     A
O184   Cu186   1.855   .     S
Cu185  Cu186   2.645   .     S
C190   C30     1.484   1_565 S
O191   C201    1.270   .     A
O191   Cu199   1.854   .     S
O192   C202    1.271   .     A
O192   Cu199   1.856   .     S
O193   C203    1.270   .     A
O193   Cu199   1.858   .     S
O194   C204    1.272   .     A
O194   Cu199   1.858   .     S
O195   C204    1.270   .     A
O195   Cu200   1.855   .     S
O196   Cu200   1.856   .     S
O196   C203    1.272   .     A
O197   Cu200   1.856   .     S
O197   C202    1.270   .     A
O198   Cu200   1.857   .     S
O198   C201    1.271   .     A
Cu199  Cu200   2.645   .     S
C204   C111    1.484   1_545 S
O205   Cu213   1.856   .     S
O205   C215    1.270   .     A
O206   Cu213   1.857   .     S
O206   C216    1.272   .     A
O207   Cu213   1.857   .     S
O207   C217    1.270   .     A
O208   Cu213   1.857   .     S
O208   C218    1.272   .     A
O209   Cu214   1.857   .     S
O209   C218    1.270   .     A
O210   Cu214   1.857   .     S
O210   C217    1.272   .     A
O211   Cu214   1.857   .     S
O211   C216    1.270   .     A
O212   Cu214   1.857   .     S
O212   C215    1.272   .     A
Cu213  Cu214   2.644   .     S
C216   C149    1.485   1_556 S
C218   C95     1.485   1_556 S
O219   Cu227   1.857   .     S
O219   C229    1.270   .     A
O220   C230    1.272   .     A
O220   Cu227   1.857   .     S
O221   C231    1.270   .     A
O221   Cu227   1.855   .     S
O222   C232    1.271   .     A
O222   Cu227   1.856   .     S
O223   C232    1.270   .     A
O223   Cu228   1.857   .     S
O224   C231    1.271   .     A
O224   Cu228   1.857   .     S
O225   C230    1.270   .     A
O225   Cu228   1.856   .     S
O226   C229    1.271   .     A
O226   Cu228   1.856   .     S
Cu227  Cu228   2.644   .     S
C230   C57     1.485   1_455 S
C232   C3      1.485   1_565 S
O233   C243    1.272   .     A
O233   Cu241   1.858   .     S
O234   Cu241   1.857   .     S
O234   C244    1.271   .     A
O235   C245    1.271   .     A
O235   Cu241   1.855   .     S
O236   C246    1.270   .     A
O236   Cu241   1.855   .     S
O237   Cu242   1.858   .     S
O237   C246    1.272   .     A
O238   Cu242   1.856   .     S
O238   C245    1.270   .     A
O239   Cu242   1.856   .     S
O239   C244    1.271   .     A
O240   C243    1.270   .     A
O240   Cu242   1.856   .     S
Cu241  Cu242   2.644   .     S
C244   C86     1.485   1_655 S
C246   C140    1.484   1_545 S
O247   Cu255   1.855   .     S
O247   C257    1.270   .     A
O248   Cu255   1.856   .     S
O248   C258    1.271   .     A
O249   Cu255   1.857   .     S
O249   C259    1.270   .     A
O250   Cu255   1.857   .     S
O250   C260    1.272   .     A
O251   Cu256   1.856   .     S
O251   C260    1.270   .     A
O252   Cu256   1.856   .     S
O252   C259    1.272   .     A
O253   Cu256   1.857   .     S
O253   C258    1.270   .     A
O254   Cu256   1.857   .     S
O254   C257    1.271   .     A
Cu255  Cu256   2.644   .     S
C257   C147    1.484   1_566 S
C259   C122    1.485   1_566 S
O261   Cu269   1.858   .     S
O261   C271    1.272   .     A
O262   Cu269   1.858   .     S
O262   C272    1.271   .     A
O263   Cu269   1.855   .     S
O263   C273    1.271   .     A
O264   Cu269   1.855   .     S
O264   C274    1.270   .     A
O265   Cu270   1.858   .     S
O265   C274    1.272   .     A
O266   Cu270   1.857   .     S
O266   C273    1.270   .     A
O267   Cu270   1.855   .     S
O267   C272    1.271   .     A
O268   Cu270   1.855   .     S
O268   C271    1.270   .     A
Cu269  Cu270   2.644   .     S
C273   C32     1.485   1_455 S
O275   Cu283   1.857   .     S
O275   C285    1.270   .     A
O276   Cu283   1.857   .     S
O276   C286    1.272   .     A
O277   Cu283   1.858   .     S
O277   C287    1.270   .     A
O278   Cu283   1.858   .     S
O278   C288    1.272   .     A
O279   Cu284   1.855   .     S
O279   C288    1.270   .     A
O280   Cu284   1.856   .     S
O280   C287    1.271   .     A
O281   Cu284   1.857   .     S
O281   C286    1.270   .     A
O282   Cu284   1.857   .     S
O282   C285    1.272   .     A
Cu283  Cu284   2.644   .     S
C287   C113    1.485   1_655 S
C289   C290    1.423   .     A
C289   C294    1.414   .     A
C289   C295    1.433   .     A
C290   C301    1.400   .     A
C290   C291    1.408   .     A
C291   H305    1.084   .     S
C291   C292    1.403   .     A
C292   C293    1.403   .     A
C293   H306    1.083   .     S
C293   C294    1.397   .     A
C294   H309    1.077   .     S
C295   C300    1.422   .     A
C295   C296    1.416   .     A
C296   C297    1.398   .     A
C296   H310    1.077   .     S
C297   H307    1.083   .     S
C297   C298    1.401   .     A
C298   C299    1.404   .     A
C299   C300    1.407   .     A
C299   H308    1.084   .     S
C300   C302    1.400   .     A
C301   H303    1.084   .     S
C301   C302    1.391   .     A
C302   H304    1.084   .     S
C311   C316    1.414   .     A
C311   C317    1.433   .     A
C311   C312    1.423   .     A
C312   C323    1.399   .     A
C312   C313    1.408   .     A
C313   H327    1.084   .     S
C313   C314    1.403   .     A
C314   C315    1.403   .     A
C315   H328    1.083   .     S
C315   C316    1.397   .     A
C316   H331    1.077   .     S
C317   C322    1.422   .     A
C317   C318    1.416   .     A
C318   H332    1.077   .     S
C318   C319    1.399   .     A
C319   C320    1.401   .     A
C319   H329    1.083   .     S
C320   C321    1.404   .     A
C320   C100    1.492   1_545 S
C321   C322    1.407   .     A
C321   H330    1.084   .     S
C322   C324    1.400   .     A
C323   C324    1.391   .     A
C323   H325    1.084   .     S
C324   H326    1.084   .     S
C333   C334    1.423   .     A
C333   C338    1.414   .     A
C333   C339    1.433   .     A
C334   C345    1.400   .     A
C334   C335    1.409   .     A
C335   H349    1.084   .     S
C335   C336    1.403   .     A
C336   C337    1.402   .     A
C337   H350    1.083   .     S
C337   C338    1.397   .     A
C338   H353    1.077   .     S
C339   C344    1.422   .     A
C339   C340    1.416   .     A
C340   H354    1.077   .     S
C340   C341    1.398   .     A
C341   H351    1.083   .     S
C341   C342    1.401   .     A
C342   C343    1.404   .     A
C343   H352    1.084   .     S
C343   C344    1.408   .     A
C344   C346    1.400   .     A
C345   H347    1.084   .     S
C345   C346    1.391   .     A
C346   H348    1.084   .     S
C355   C356    1.422   .     A
C355   C361    1.433   .     A
C355   C360    1.416   .     A
C356   C367    1.400   .     A
C356   C357    1.407   .     A
C357   H371    1.084   .     S
C357   C358    1.404   .     A
C358   C359    1.401   .     A
C359   H372    1.083   .     S
C359   C360    1.398   .     A
C360   H375    1.077   .     S
C361   C366    1.423   .     A
C361   C362    1.415   .     A
C362   H376    1.077   .     S
C362   C363    1.397   .     A
C363   H373    1.083   .     S
C363   C364    1.403   .     A
C364   C365    1.403   .     A
C365   H374    1.084   .     S
C365   C366    1.408   .     A
C366   C368    1.400   .     A
C367   C368    1.390   .     A
C367   H369    1.084   .     S
C368   H370    1.084   .     S
C377   C383    1.433   .     A
C377   C378    1.423   .     A
C377   C382    1.414   .     A
C378   C389    1.400   .     A
C378   C379    1.408   .     A
C379   C380    1.403   .     A
C379   H393    1.084   .     S
C380   C381    1.403   .     A
C381   C382    1.397   .     A
C381   H394    1.083   .     S
C382   H397    1.077   .     S
C383   C388    1.422   .     A
C383   C384    1.416   .     A
C384   C385    1.398   .     A
C384   H398    1.077   .     S
C385   H395    1.083   .     S
C385   C386    1.402   .     A
C386   C387    1.404   .     A
C387   C388    1.408   .     A
C387   H396    1.084   .     S
C388   C390    1.400   .     A
C389   H391    1.084   .     S
C389   C390    1.390   .     A
C390   H392    1.084   .     S
C399   C405    1.433   .     A
C399   C404    1.414   .     A
C399   C400    1.423   .     A
C400   C401    1.408   .     A
C400   C411    1.400   .     A
C401   H415    1.084   .     S
C401   C402    1.403   .     A
C402   C403    1.402   .     A
C403   H416    1.083   .     S
C403   C404    1.397   .     A
C404   H419    1.077   .     S
C405   C406    1.416   .     A
C405   C410    1.422   .     A
C406   H420    1.077   .     S
C406   C407    1.398   .     A
C407   H417    1.083   .     S
C407   C408    1.401   .     A
C408   C409    1.404   .     A
C409   H418    1.084   .     S
C409   C410    1.407   .     A
C410   C412    1.400   .     A
C411   H413    1.084   .     S
C411   C412    1.391   .     A
C412   H414    1.084   .     S
C421   C426    1.414   .     A
C421   C427    1.433   .     A
C421   C422    1.423   .     A
C422   C433    1.400   .     A
C422   C423    1.409   .     A
C423   C424    1.403   .     A
C423   H437    1.084   .     S
C424   C425    1.403   .     A
C425   C426    1.397   .     A
C425   H438    1.083   .     S
C426   H441    1.077   .     S
C427   C428    1.416   .     A
C427   C432    1.422   .     A
C428   C429    1.398   .     A
C428   H442    1.077   .     S
C429   H439    1.083   .     S
C429   C430    1.402   .     A
C430   C431    1.404   .     A
C431   C432    1.408   .     A
C431   H440    1.084   .     S
C432   C434    1.400   .     A
C433   C434    1.391   .     A
C433   H435    1.084   .     S
C434   H436    1.084   .     S
C443   C448    1.414   .     A
C443   C449    1.433   .     A
C443   C444    1.423   .     A
C444   C445    1.408   .     A
C444   C455    1.400   .     A
C445   H459    1.084   .     S
C445   C446    1.403   .     A
C446   C447    1.403   .     A
C447   H460    1.083   .     S
C447   C448    1.397   .     A
C448   H463    1.077   .     S
C449   C450    1.416   .     A
C449   C454    1.422   .     A
C450   H464    1.077   .     S
C450   C451    1.398   .     A
C451   H461    1.083   .     S
C451   C452    1.401   .     A
C452   C453    1.404   .     A
C452   C154    1.491   1_655 S
C453   H462    1.084   .     S
C453   C454    1.407   .     A
C454   C456    1.400   .     A
C455   C456    1.391   .     A
C455   H457    1.084   .     S
C456   H458    1.084   .     S
C465   C466    1.422   .     A
C465   C470    1.416   .     A
C465   C471    1.433   .     A
C466   C467    1.407   .     A
C466   C477    1.400   .     A
C467   C468    1.404   .     A
C467   H481    1.084   .     S
C468   C469    1.401   .     A
C469   H482    1.083   .     S
C469   C470    1.399   .     A
C470   H485    1.077   .     S
C471   C476    1.423   .     A
C471   C472    1.414   .     A
C472   H486    1.077   .     S
C472   C473    1.397   .     A
C473   C474    1.403   .     A
C473   H483    1.083   .     S
C474   C475    1.403   .     A
C475   C476    1.408   .     A
C475   H484    1.084   .     S
C476   C478    1.400   .     A
C477   C478    1.391   .     A
C477   H479    1.084   .     S
C478   H480    1.084   .     S
