data_image0
_cell_length_a       17.9693
_cell_length_b       17.9693
_cell_length_c       30.1894
_cell_angle_alpha    90
_cell_angle_beta     90
_cell_angle_gamma    90

_symmetry_space_group_name_H-M    "P 1"
_symmetry_int_tables_number       1

loop_
  _symmetry_equiv_pos_as_xyz
  'x, y, z'

loop_
  _atom_site_label
  _atom_site_occupancy
  _atom_site_fract_x
  _atom_site_fract_y
  _atom_site_fract_z
  _atom_site_thermal_displace_type
  _atom_site_B_iso_or_equiv
  _atom_site_type_symbol
  Cd1      1.0000 0.68097  0.16820  0.31251  Biso   1.000  Cd
  Cd2      1.0000 0.85047  0.67294  0.31837  Biso   1.000  Cd
  O1       1.0000 0.83496  0.80356  0.31397  Biso   1.000  O
  N1       1.0000 0.97860  0.50500  0.07809  Biso   1.000  N
  N2       1.0000 0.79890  0.65880  0.17527  Biso   1.000  N
  O2       1.0000 0.75490  0.06470  0.31576  Biso   1.000  O
  O3       1.0000 0.95460  0.77620  0.31826  Biso   1.000  O
  N3       1.0000 0.09047  0.55280  0.07277  Biso   1.000  N
  C1       1.0000 0.88180  0.03230  0.31143  Biso   1.000  C
  N4       1.0000 0.84010  0.67442  0.24354  Biso   1.000  N
  C2       1.0000 0.99490  0.92670  0.31371  Biso   1.000  C
  H1       1.0000 0.03320  0.89190  0.31380  Biso   1.000  H
  O4       1.0000 0.83540  0.15550  0.30534  Biso   1.000  O
  C3       1.0000 0.01040  0.00190  0.31353  Biso   1.000  C
  C4       1.0000 0.92090  0.90390  0.31379  Biso   1.000  C
  N5       1.0000 0.83950  0.68280  0.39292  Biso   1.000  N
  N6       1.0000 0.52680  0.98140  0.29917  Biso   1.000  N
  N7       1.0000 0.58560  0.08747  0.30388  Biso   1.000  N
  C5       1.0000 0.86530  0.95690  0.31229  Biso   1.000  C
  H2       1.0000 0.81580  0.94170  0.31180  Biso   1.000  H
  C6       1.0000 0.75400  0.63110  0.13746  Biso   1.000  C
  H3       1.0000 0.75230  0.66910  0.11460  Biso   1.000  H
  H4       1.0000 0.70350  0.62200  0.14740  Biso   1.000  H
  C7       1.0000 0.81990  0.08970  0.31073  Biso   1.000  C
  C8       1.0000 0.58970  0.01500  0.31067  Biso   1.000  C
  H5       1.0000 0.63120  0.99070  0.32200  Biso   1.000  H
  C9       1.0000 0.48020  0.03440  0.28419  Biso   1.000  C
  H6       1.0000 0.43210  0.02740  0.27370  Biso   1.000  H
  C10      1.0000 0.86610  0.56820  0.10432  Biso   1.000  C
  H7       1.0000 0.87040  0.61070  0.08470  Biso   1.000  H
  H8       1.0000 0.89560  0.57850  0.13050  Biso   1.000  H
  C11      1.0000 0.95520  0.05520  0.31148  Biso   1.000  C
  H9       1.0000 0.96720  0.10550  0.31020  Biso   1.000  H
  C12      1.0000 0.01890  0.56690  0.07337  Biso   1.000  C
  H10      1.0000 0.99860  0.61430  0.07080  Biso   1.000  H
  N8       1.0000 0.80960  0.65170  0.46039  Biso   1.000  N
  C13      1.0000 0.90320  0.82130  0.31547  Biso   1.000  C
  C14      1.0000 0.62590  0.74430  0.24627  Biso   1.000  C
  H11      1.0000 0.61340  0.69360  0.23820  Biso   1.000  H
  H12      1.0000 0.66270  0.74220  0.26970  Biso   1.000  H
  O5       1.0000 0.13730  0.98060  0.31550  Biso   1.000  O
  O6       1.0000 0.10130  0.09220  0.31520  Biso   1.000  O
  C15      1.0000 0.89700  0.50120  0.08161  Biso   1.000  C
  H13      1.0000 0.88320  0.45690  0.09800  Biso   1.000  H
  H14      1.0000 0.87570  0.49730  0.05220  Biso   1.000  H
  C16      1.0000 0.51640  0.09870  0.28738  Biso   1.000  C
  H15      1.0000 0.49700  0.14480  0.27940  Biso   1.000  H
  C17      1.0000 0.78570  0.55970  0.11783  Biso   1.000  C
  H16      1.0000 0.78170  0.52000  0.13950  Biso   1.000  H
  H17      1.0000 0.75650  0.54560  0.09220  Biso   1.000  H
  C18      1.0000 0.88190  0.71660  0.21484  Biso   1.000  C
  H18      1.0000 0.92160  0.74680  0.22300  Biso   1.000  H
  C19      1.0000 0.87020  0.73220  0.42120  Biso   1.000  C
  H19      1.0000 0.89940  0.77260  0.41300  Biso   1.000  H
  C20      1.0000 0.85690  0.70790  0.17338  Biso   1.000  C
  H20      1.0000 0.87550  0.73090  0.14810  Biso   1.000  H
  C21      1.0000 0.09620  0.47830  0.07726  Biso   1.000  C
  H21      1.0000 0.14080  0.45200  0.07830  Biso   1.000  H
  N9       1.0000 0.08850  0.02650  0.31475  Biso   1.000  N
  C22      1.0000 0.85230  0.71420  0.46335  Biso   1.000  C
  H22      1.0000 0.86610  0.73920  0.48900  Biso   1.000  H
  C23      1.0000 0.57110  0.86250  0.27220  Biso   1.000  C
  H23      1.0000 0.61900  0.86770  0.28680  Biso   1.000  H
  H24      1.0000 0.57460  0.88780  0.24390  Biso   1.000  H
  C24      1.0000 0.79080  0.64070  0.21832  Biso   1.000  C
  H25      1.0000 0.75470  0.60820  0.22890  Biso   1.000  H
  C25      1.0000 0.51570  0.90020  0.29880  Biso   1.000  C
  H26      1.0000 0.51800  0.88160  0.32890  Biso   1.000  H
  H27      1.0000 0.46660  0.88920  0.28720  Biso   1.000  H
  C26      1.0000 0.55810  0.78160  0.26347  Biso   1.000  C
  H28      1.0000 0.54270  0.75750  0.29070  Biso   1.000  H
  H29      1.0000 0.51810  0.77630  0.24210  Biso   1.000  H
  C27      1.0000 0.02820  0.44790  0.07995  Biso   1.000  C
  H30      1.0000 0.01710  0.39760  0.08260  Biso   1.000  H
  C28      1.0000 0.80260  0.63660  0.41720  Biso   1.000  C
  H31      1.0000 0.77450  0.59740  0.40600  Biso   1.000  H
  N10      1.0000 0.65920  0.78220  0.20712  Biso   1.000  N
  N11      1.0000 0.67692  0.81685  0.13842  Biso   1.000  N
  C29      1.0000 0.72150  0.82540  0.20673  Biso   1.000  C
  H32      1.0000 0.75110  0.83790  0.23090  Biso   1.000  H
  C30      1.0000 0.63340  0.77870  0.16550  Biso   1.000  C
  H33      1.0000 0.59090  0.75300  0.15690  Biso   1.000  H
  C31      1.0000 0.73170  0.84650  0.16436  Biso   1.000  C
  H34      1.0000 0.77010  0.87670  0.15430  Biso   1.000  H
  C32      1.0000 0.71220  0.66700  0.51691  Biso   1.000  C
  H35      1.0000 0.68630  0.64260  0.54060  Biso   1.000  H
  H36      1.0000 0.73810  0.70970  0.52810  Biso   1.000  H
  C33      1.0000 0.76740  0.61530  0.49600  Biso   1.000  C
  H37      1.0000 0.80180  0.59770  0.51840  Biso   1.000  H
  H38      1.0000 0.74140  0.57250  0.48400  Biso   1.000  H
  Cd3      1.0000 0.31903  0.83180  0.81251  Biso   1.000  Cd
  Cd4      1.0000 0.14953  0.32706  0.81837  Biso   1.000  Cd
  O7       1.0000 0.16504  0.19644  0.81397  Biso   1.000  O
  N12      1.0000 0.02140  0.49500  0.57809  Biso   1.000  N
  N13      1.0000 0.20110  0.34120  0.67527  Biso   1.000  N
  O8       1.0000 0.24510  0.93530  0.81576  Biso   1.000  O
  O9       1.0000 0.04540  0.22380  0.81826  Biso   1.000  O
  N14      1.0000 0.90953  0.44720  0.57277  Biso   1.000  N
  C34      1.0000 0.11820  0.96770  0.81143  Biso   1.000  C
  N15      1.0000 0.15990  0.32558  0.74354  Biso   1.000  N
  C35      1.0000 0.00510  0.07330  0.81371  Biso   1.000  C
  H39      1.0000 0.96680  0.10810  0.81380  Biso   1.000  H
  O10      1.0000 0.16460  0.84450  0.80534  Biso   1.000  O
  C36      1.0000 0.98960  0.99810  0.81353  Biso   1.000  C
  C37      1.0000 0.07910  0.09610  0.81379  Biso   1.000  C
  N16      1.0000 0.16050  0.31720  0.89292  Biso   1.000  N
  N17      1.0000 0.47320  0.01860  0.79917  Biso   1.000  N
  N18      1.0000 0.41440  0.91253  0.80388  Biso   1.000  N
  C38      1.0000 0.13470  0.04310  0.81229  Biso   1.000  C
  H40      1.0000 0.18420  0.05830  0.81180  Biso   1.000  H
  C39      1.0000 0.24600  0.36890  0.63746  Biso   1.000  C
  H41      1.0000 0.24770  0.33090  0.61460  Biso   1.000  H
  H42      1.0000 0.29650  0.37800  0.64740  Biso   1.000  H
  C40      1.0000 0.18010  0.91030  0.81073  Biso   1.000  C
  C41      1.0000 0.41030  0.98500  0.81067  Biso   1.000  C
  H43      1.0000 0.36880  0.00930  0.82200  Biso   1.000  H
  C42      1.0000 0.51980  0.96560  0.78419  Biso   1.000  C
  H44      1.0000 0.56790  0.97260  0.77370  Biso   1.000  H
  C43      1.0000 0.13390  0.43180  0.60432  Biso   1.000  C
  H45      1.0000 0.12960  0.38930  0.58470  Biso   1.000  H
  H46      1.0000 0.10440  0.42150  0.63050  Biso   1.000  H
  C44      1.0000 0.04480  0.94480  0.81148  Biso   1.000  C
  H47      1.0000 0.03280  0.89450  0.81020  Biso   1.000  H
  C45      1.0000 0.98110  0.43310  0.57337  Biso   1.000  C
  H48      1.0000 0.00140  0.38570  0.57080  Biso   1.000  H
  N19      1.0000 0.19040  0.34830  0.96039  Biso   1.000  N
  C46      1.0000 0.09680  0.17870  0.81547  Biso   1.000  C
  C47      1.0000 0.37410  0.25570  0.74627  Biso   1.000  C
  H49      1.0000 0.38660  0.30640  0.73820  Biso   1.000  H
  H50      1.0000 0.33730  0.25780  0.76970  Biso   1.000  H
  O11      1.0000 0.86270  0.01940  0.81550  Biso   1.000  O
  O12      1.0000 0.89870  0.90780  0.81520  Biso   1.000  O
  C48      1.0000 0.10300  0.49880  0.58161  Biso   1.000  C
  H51      1.0000 0.11680  0.54310  0.59800  Biso   1.000  H
  H52      1.0000 0.12430  0.50270  0.55220  Biso   1.000  H
  C49      1.0000 0.48360  0.90130  0.78738  Biso   1.000  C
  H53      1.0000 0.50300  0.85520  0.77940  Biso   1.000  H
  C50      1.0000 0.21430  0.44030  0.61783  Biso   1.000  C
  H54      1.0000 0.21830  0.48000  0.63950  Biso   1.000  H
  H55      1.0000 0.24350  0.45440  0.59220  Biso   1.000  H
  C51      1.0000 0.11810  0.28340  0.71484  Biso   1.000  C
  H56      1.0000 0.07840  0.25320  0.72300  Biso   1.000  H
  C52      1.0000 0.12980  0.26780  0.92120  Biso   1.000  C
  H57      1.0000 0.10060  0.22740  0.91300  Biso   1.000  H
  C53      1.0000 0.14310  0.29210  0.67338  Biso   1.000  C
  H58      1.0000 0.12450  0.26910  0.64810  Biso   1.000  H
  C54      1.0000 0.90380  0.52170  0.57726  Biso   1.000  C
  H59      1.0000 0.85920  0.54800  0.57830  Biso   1.000  H
  N20      1.0000 0.91150  0.97350  0.81475  Biso   1.000  N
  C55      1.0000 0.14770  0.28580  0.96335  Biso   1.000  C
  H60      1.0000 0.13390  0.26080  0.98900  Biso   1.000  H
  C56      1.0000 0.42890  0.13750  0.77220  Biso   1.000  C
  H61      1.0000 0.38100  0.13230  0.78680  Biso   1.000  H
  H62      1.0000 0.42540  0.11220  0.74390  Biso   1.000  H
  C57      1.0000 0.20920  0.35930  0.71832  Biso   1.000  C
  H63      1.0000 0.24530  0.39180  0.72890  Biso   1.000  H
  C58      1.0000 0.48430  0.09980  0.79880  Biso   1.000  C
  H64      1.0000 0.48200  0.11840  0.82890  Biso   1.000  H
  H65      1.0000 0.53340  0.11080  0.78720  Biso   1.000  H
  C59      1.0000 0.44190  0.21840  0.76347  Biso   1.000  C
  H66      1.0000 0.45730  0.24250  0.79070  Biso   1.000  H
  H67      1.0000 0.48190  0.22370  0.74210  Biso   1.000  H
  C60      1.0000 0.97180  0.55210  0.57995  Biso   1.000  C
  H68      1.0000 0.98290  0.60240  0.58260  Biso   1.000  H
  C61      1.0000 0.19740  0.36340  0.91720  Biso   1.000  C
  H69      1.0000 0.22550  0.40260  0.90600  Biso   1.000  H
  N21      1.0000 0.34080  0.21780  0.70712  Biso   1.000  N
  N22      1.0000 0.32308  0.18315  0.63842  Biso   1.000  N
  C62      1.0000 0.27850  0.17460  0.70673  Biso   1.000  C
  H70      1.0000 0.24890  0.16210  0.73090  Biso   1.000  H
  C63      1.0000 0.36660  0.22130  0.66550  Biso   1.000  C
  H71      1.0000 0.40910  0.24700  0.65690  Biso   1.000  H
  C64      1.0000 0.26830  0.15350  0.66436  Biso   1.000  C
  H72      1.0000 0.22990  0.12330  0.65430  Biso   1.000  H
  C65      1.0000 0.28780  0.33300  0.01691  Biso   1.000  C
  H73      1.0000 0.31370  0.35740  0.04060  Biso   1.000  H
  H74      1.0000 0.26190  0.29030  0.02810  Biso   1.000  H
  C66      1.0000 0.23260  0.38470  0.99600  Biso   1.000  C
  H75      1.0000 0.19820  0.40230  0.01840  Biso   1.000  H
  H76      1.0000 0.25860  0.42750  0.98400  Biso   1.000  H
  Cd5      1.0000 0.33180  0.18097  0.56251  Biso   1.000  Cd
  Cd6      1.0000 0.82706  0.35047  0.56837  Biso   1.000  Cd
  O13      1.0000 0.69644  0.33496  0.56397  Biso   1.000  O
  N23      1.0000 0.99500  0.47860  0.32809  Biso   1.000  N
  N24      1.0000 0.84120  0.29890  0.42527  Biso   1.000  N
  O14      1.0000 0.43530  0.25490  0.56576  Biso   1.000  O
  O15      1.0000 0.72380  0.45460  0.56826  Biso   1.000  O
  N25      1.0000 0.94720  0.59047  0.32277  Biso   1.000  N
  C67      1.0000 0.46770  0.38180  0.56143  Biso   1.000  C
  N26      1.0000 0.82558  0.34010  0.49354  Biso   1.000  N
  C68      1.0000 0.57330  0.49490  0.56371  Biso   1.000  C
  H77      1.0000 0.60810  0.53320  0.56380  Biso   1.000  H
  O16      1.0000 0.34450  0.33540  0.55534  Biso   1.000  O
  C69      1.0000 0.49810  0.51040  0.56353  Biso   1.000  C
  C70      1.0000 0.59610  0.42090  0.56379  Biso   1.000  C
  N27      1.0000 0.81720  0.33950  0.64292  Biso   1.000  N
  N28      1.0000 0.51860  0.02680  0.54917  Biso   1.000  N
  N29      1.0000 0.41253  0.08560  0.55388  Biso   1.000  N
  C71      1.0000 0.54310  0.36530  0.56229  Biso   1.000  C
  H78      1.0000 0.55830  0.31580  0.56180  Biso   1.000  H
  C72      1.0000 0.86890  0.25400  0.38746  Biso   1.000  C
  H79      1.0000 0.83090  0.25230  0.36460  Biso   1.000  H
  H80      1.0000 0.87800  0.20350  0.39740  Biso   1.000  H
  C73      1.0000 0.41030  0.31990  0.56073  Biso   1.000  C
  C74      1.0000 0.48500  0.08970  0.56067  Biso   1.000  C
  H81      1.0000 0.50930  0.13120  0.57200  Biso   1.000  H
  C75      1.0000 0.46560  0.98020  0.53419  Biso   1.000  C
  H82      1.0000 0.47260  0.93210  0.52370  Biso   1.000  H
  C76      1.0000 0.93180  0.36610  0.35432  Biso   1.000  C
  H83      1.0000 0.88930  0.37040  0.33470  Biso   1.000  H
  H84      1.0000 0.92150  0.39560  0.38050  Biso   1.000  H
  C77      1.0000 0.44480  0.45520  0.56148  Biso   1.000  C
  H85      1.0000 0.39450  0.46720  0.56020  Biso   1.000  H
  C78      1.0000 0.93310  0.51890  0.32337  Biso   1.000  C
  H86      1.0000 0.88570  0.49860  0.32080  Biso   1.000  H
  N30      1.0000 0.84830  0.30960  0.71039  Biso   1.000  N
  C79      1.0000 0.67870  0.40320  0.56547  Biso   1.000  C
  C80      1.0000 0.75570  0.12590  0.49627  Biso   1.000  C
  H87      1.0000 0.80640  0.11340  0.48820  Biso   1.000  H
  H88      1.0000 0.75780  0.16270  0.51970  Biso   1.000  H
  O17      1.0000 0.51940  0.63730  0.56550  Biso   1.000  O
  O18      1.0000 0.40780  0.60130  0.56520  Biso   1.000  O
  C81      1.0000 0.99880  0.39700  0.33161  Biso   1.000  C
  H89      1.0000 0.04310  0.38320  0.34800  Biso   1.000  H
  H90      1.0000 0.00270  0.37570  0.30220  Biso   1.000  H
  C82      1.0000 0.40130  0.01640  0.53738  Biso   1.000  C
  H91      1.0000 0.35520  0.99700  0.52940  Biso   1.000  H
  C83      1.0000 0.94030  0.28570  0.36783  Biso   1.000  C
  H92      1.0000 0.98000  0.28170  0.38950  Biso   1.000  H
  H93      1.0000 0.95440  0.25650  0.34220  Biso   1.000  H
  C84      1.0000 0.78340  0.38190  0.46484  Biso   1.000  C
  H94      1.0000 0.75320  0.42160  0.47300  Biso   1.000  H
  C85      1.0000 0.76780  0.37020  0.67120  Biso   1.000  C
  H95      1.0000 0.72740  0.39940  0.66300  Biso   1.000  H
  C86      1.0000 0.79210  0.35690  0.42338  Biso   1.000  C
  H96      1.0000 0.76910  0.37550  0.39810  Biso   1.000  H
  C87      1.0000 0.02170  0.59620  0.32726  Biso   1.000  C
  H97      1.0000 0.04800  0.64080  0.32830  Biso   1.000  H
  N31      1.0000 0.47350  0.58850  0.56475  Biso   1.000  N
  C88      1.0000 0.78580  0.35230  0.71335  Biso   1.000  C
  H98      1.0000 0.76080  0.36610  0.73900  Biso   1.000  H
  C89      1.0000 0.63750  0.07110  0.52220  Biso   1.000  C
  H99      1.0000 0.63230  0.11900  0.53680  Biso   1.000  H
  H100     1.0000 0.61220  0.07460  0.49390  Biso   1.000  H
  C90      1.0000 0.85930  0.29080  0.46832  Biso   1.000  C
  H101     1.0000 0.89180  0.25470  0.47890  Biso   1.000  H
  C91      1.0000 0.59980  0.01570  0.54880  Biso   1.000  C
  H102     1.0000 0.61840  0.01800  0.57890  Biso   1.000  H
  H103     1.0000 0.61080  0.96660  0.53720  Biso   1.000  H
  C92      1.0000 0.71840  0.05810  0.51347  Biso   1.000  C
  H104     1.0000 0.74250  0.04270  0.54070  Biso   1.000  H
  H105     1.0000 0.72370  0.01810  0.49210  Biso   1.000  H
  C93      1.0000 0.05210  0.52820  0.32995  Biso   1.000  C
  H106     1.0000 0.10240  0.51710  0.33260  Biso   1.000  H
  C94      1.0000 0.86340  0.30260  0.66720  Biso   1.000  C
  H107     1.0000 0.90260  0.27450  0.65600  Biso   1.000  H
  N32      1.0000 0.71780  0.15920  0.45712  Biso   1.000  N
  N33      1.0000 0.68315  0.17692  0.38842  Biso   1.000  N
  C95      1.0000 0.67460  0.22150  0.45673  Biso   1.000  C
  H108     1.0000 0.66210  0.25110  0.48090  Biso   1.000  H
  C96      1.0000 0.72130  0.13340  0.41550  Biso   1.000  C
  H109     1.0000 0.74700  0.09090  0.40690  Biso   1.000  H
  C97      1.0000 0.65350  0.23170  0.41436  Biso   1.000  C
  H110     1.0000 0.62330  0.27010  0.40430  Biso   1.000  H
  C98      1.0000 0.83300  0.21220  0.76691  Biso   1.000  C
  H111     1.0000 0.85740  0.18630  0.79060  Biso   1.000  H
  H112     1.0000 0.79030  0.23810  0.77810  Biso   1.000  H
  C99      1.0000 0.88470  0.26740  0.74600  Biso   1.000  C
  H113     1.0000 0.90230  0.30180  0.76840  Biso   1.000  H
  H114     1.0000 0.92750  0.24140  0.73400  Biso   1.000  H
  Cd7      1.0000 0.66820  0.81903  0.06251  Biso   1.000  Cd
  Cd8      1.0000 0.17294  0.64953  0.06837  Biso   1.000  Cd
  O19      1.0000 0.30356  0.66504  0.06397  Biso   1.000  O
  N34      1.0000 0.00500  0.52140  0.82809  Biso   1.000  N
  N35      1.0000 0.15880  0.70110  0.92527  Biso   1.000  N
  O20      1.0000 0.56470  0.74510  0.06576  Biso   1.000  O
  O21      1.0000 0.27620  0.54540  0.06826  Biso   1.000  O
  N36      1.0000 0.05280  0.40953  0.82277  Biso   1.000  N
  C100     1.0000 0.53230  0.61820  0.06143  Biso   1.000  C
  N37      1.0000 0.17442  0.65990  0.99354  Biso   1.000  N
  C101     1.0000 0.42670  0.50510  0.06371  Biso   1.000  C
  H115     1.0000 0.39190  0.46680  0.06380  Biso   1.000  H
  O22      1.0000 0.65550  0.66460  0.05534  Biso   1.000  O
  C102     1.0000 0.50190  0.48960  0.06353  Biso   1.000  C
  C103     1.0000 0.40390  0.57910  0.06379  Biso   1.000  C
  N38      1.0000 0.18280  0.66050  0.14292  Biso   1.000  N
  N39      1.0000 0.48140  0.97320  0.04917  Biso   1.000  N
  N40      1.0000 0.58747  0.91440  0.05388  Biso   1.000  N
  C104     1.0000 0.45690  0.63470  0.06229  Biso   1.000  C
  H116     1.0000 0.44170  0.68420  0.06180  Biso   1.000  H
  C105     1.0000 0.13110  0.74600  0.88746  Biso   1.000  C
  H117     1.0000 0.16910  0.74770  0.86460  Biso   1.000  H
  H118     1.0000 0.12200  0.79650  0.89740  Biso   1.000  H
  C106     1.0000 0.58970  0.68010  0.06073  Biso   1.000  C
  C107     1.0000 0.51500  0.91030  0.06067  Biso   1.000  C
  H119     1.0000 0.49070  0.86880  0.07200  Biso   1.000  H
  C108     1.0000 0.53440  0.01980  0.03419  Biso   1.000  C
  H120     1.0000 0.52740  0.06790  0.02370  Biso   1.000  H
  C109     1.0000 0.06820  0.63390  0.85432  Biso   1.000  C
  H121     1.0000 0.11070  0.62960  0.83470  Biso   1.000  H
  H122     1.0000 0.07850  0.60440  0.88050  Biso   1.000  H
  C110     1.0000 0.55520  0.54480  0.06148  Biso   1.000  C
  H123     1.0000 0.60550  0.53280  0.06020  Biso   1.000  H
  C111     1.0000 0.06690  0.48110  0.82337  Biso   1.000  C
  H124     1.0000 0.11430  0.50140  0.82080  Biso   1.000  H
  N41      1.0000 0.15170  0.69040  0.21039  Biso   1.000  N
  C112     1.0000 0.32130  0.59680  0.06547  Biso   1.000  C
  C113     1.0000 0.24430  0.87410  0.99627  Biso   1.000  C
  H125     1.0000 0.19360  0.88660  0.98820  Biso   1.000  H
  H126     1.0000 0.24220  0.83730  0.01970  Biso   1.000  H
  O23      1.0000 0.48060  0.36270  0.06550  Biso   1.000  O
  O24      1.0000 0.59220  0.39870  0.06520  Biso   1.000  O
  C114     1.0000 0.00120  0.60300  0.83161  Biso   1.000  C
  H127     1.0000 0.95690  0.61680  0.84800  Biso   1.000  H
  H128     1.0000 0.99730  0.62430  0.80220  Biso   1.000  H
  C115     1.0000 0.59870  0.98360  0.03738  Biso   1.000  C
  H129     1.0000 0.64480  0.00300  0.02940  Biso   1.000  H
  C116     1.0000 0.05970  0.71430  0.86783  Biso   1.000  C
  H130     1.0000 0.02000  0.71830  0.88950  Biso   1.000  H
  H131     1.0000 0.04560  0.74350  0.84220  Biso   1.000  H
  C117     1.0000 0.21660  0.61810  0.96484  Biso   1.000  C
  H132     1.0000 0.24680  0.57840  0.97300  Biso   1.000  H
  C118     1.0000 0.23220  0.62980  0.17120  Biso   1.000  C
  H133     1.0000 0.27260  0.60060  0.16300  Biso   1.000  H
  C119     1.0000 0.20790  0.64310  0.92338  Biso   1.000  C
  H134     1.0000 0.23090  0.62450  0.89810  Biso   1.000  H
  C120     1.0000 0.97830  0.40380  0.82726  Biso   1.000  C
  H135     1.0000 0.95200  0.35920  0.82830  Biso   1.000  H
  N42      1.0000 0.52650  0.41150  0.06475  Biso   1.000  N
  C121     1.0000 0.21420  0.64770  0.21335  Biso   1.000  C
  H136     1.0000 0.23920  0.63390  0.23900  Biso   1.000  H
  C122     1.0000 0.36250  0.92890  0.02220  Biso   1.000  C
  H137     1.0000 0.36770  0.88100  0.03680  Biso   1.000  H
  H138     1.0000 0.38780  0.92540  0.99390  Biso   1.000  H
  C123     1.0000 0.14070  0.70920  0.96832  Biso   1.000  C
  H139     1.0000 0.10820  0.74530  0.97890  Biso   1.000  H
  C124     1.0000 0.40020  0.98430  0.04880  Biso   1.000  C
  H140     1.0000 0.38160  0.98200  0.07890  Biso   1.000  H
  H141     1.0000 0.38920  0.03340  0.03720  Biso   1.000  H
  C125     1.0000 0.28160  0.94190  0.01347  Biso   1.000  C
  H142     1.0000 0.25750  0.95730  0.04070  Biso   1.000  H
  H143     1.0000 0.27630  0.98190  0.99210  Biso   1.000  H
  C126     1.0000 0.94790  0.47180  0.82995  Biso   1.000  C
  H144     1.0000 0.89760  0.48290  0.83260  Biso   1.000  H
  C127     1.0000 0.13660  0.69740  0.16720  Biso   1.000  C
  H145     1.0000 0.09740  0.72550  0.15600  Biso   1.000  H
  N43      1.0000 0.28220  0.84080  0.95712  Biso   1.000  N
  N44      1.0000 0.31685  0.82308  0.88842  Biso   1.000  N
  C128     1.0000 0.32540  0.77850  0.95673  Biso   1.000  C
  H146     1.0000 0.33790  0.74890  0.98090  Biso   1.000  H
  C129     1.0000 0.27870  0.86660  0.91550  Biso   1.000  C
  H147     1.0000 0.25300  0.90910  0.90690  Biso   1.000  H
  C130     1.0000 0.34650  0.76830  0.91436  Biso   1.000  C
  H148     1.0000 0.37670  0.72990  0.90430  Biso   1.000  H
  C131     1.0000 0.16700  0.78780  0.26691  Biso   1.000  C
  H149     1.0000 0.14260  0.81370  0.29060  Biso   1.000  H
  H150     1.0000 0.20970  0.76190  0.27810  Biso   1.000  H
  C132     1.0000 0.11530  0.73260  0.24600  Biso   1.000  C
  H151     1.0000 0.09770  0.69820  0.26840  Biso   1.000  H
  H152     1.0000 0.07250  0.75860  0.23400  Biso   1.000  H
  Cd9      1.0000 0.81903  0.66820  0.93750  Biso   1.000  Cd
  Cd10     1.0000 0.64953  0.17294  0.93163  Biso   1.000  Cd
  O25      1.0000 0.66504  0.30356  0.93603  Biso   1.000  O
  N45      1.0000 0.52140  0.00500  0.17191  Biso   1.000  N
  N46      1.0000 0.70110  0.15880  0.07473  Biso   1.000  N
  O26      1.0000 0.74510  0.56470  0.93424  Biso   1.000  O
  O27      1.0000 0.54540  0.27620  0.93174  Biso   1.000  O
  N47      1.0000 0.40953  0.05280  0.17723  Biso   1.000  N
  C133     1.0000 0.61820  0.53230  0.93857  Biso   1.000  C
  N48      1.0000 0.65990  0.17442  0.00646  Biso   1.000  N
  C134     1.0000 0.50510  0.42670  0.93629  Biso   1.000  C
  H153     1.0000 0.46680  0.39190  0.93620  Biso   1.000  H
  O28      1.0000 0.66460  0.65550  0.94466  Biso   1.000  O
  C135     1.0000 0.48960  0.50190  0.93647  Biso   1.000  C
  C136     1.0000 0.57910  0.40390  0.93621  Biso   1.000  C
  N49      1.0000 0.66050  0.18280  0.85708  Biso   1.000  N
  N50      1.0000 0.97320  0.48140  0.95083  Biso   1.000  N
  N51      1.0000 0.91440  0.58747  0.94612  Biso   1.000  N
  C137     1.0000 0.63470  0.45690  0.93771  Biso   1.000  C
  H154     1.0000 0.68420  0.44170  0.93820  Biso   1.000  H
  C138     1.0000 0.74600  0.13110  0.11254  Biso   1.000  C
  H155     1.0000 0.74770  0.16910  0.13540  Biso   1.000  H
  H156     1.0000 0.79650  0.12200  0.10260  Biso   1.000  H
  C139     1.0000 0.68010  0.58970  0.93927  Biso   1.000  C
  C140     1.0000 0.91030  0.51500  0.93933  Biso   1.000  C
  H157     1.0000 0.86880  0.49070  0.92800  Biso   1.000  H
  C141     1.0000 0.01980  0.53440  0.96581  Biso   1.000  C
  H158     1.0000 0.06790  0.52740  0.97630  Biso   1.000  H
  C142     1.0000 0.63390  0.06820  0.14568  Biso   1.000  C
  H159     1.0000 0.62960  0.11070  0.16530  Biso   1.000  H
  H160     1.0000 0.60440  0.07850  0.11950  Biso   1.000  H
  C143     1.0000 0.54480  0.55520  0.93852  Biso   1.000  C
  H161     1.0000 0.53280  0.60550  0.93980  Biso   1.000  H
  C144     1.0000 0.48110  0.06690  0.17663  Biso   1.000  C
  H162     1.0000 0.50140  0.11430  0.17920  Biso   1.000  H
  N52      1.0000 0.69040  0.15170  0.78961  Biso   1.000  N
  C145     1.0000 0.59680  0.32130  0.93453  Biso   1.000  C
  C146     1.0000 0.87410  0.24430  0.00373  Biso   1.000  C
  H163     1.0000 0.88660  0.19360  0.01180  Biso   1.000  H
  H164     1.0000 0.83730  0.24220  0.98030  Biso   1.000  H
  O29      1.0000 0.36270  0.48060  0.93450  Biso   1.000  O
  O30      1.0000 0.39870  0.59220  0.93480  Biso   1.000  O
  C147     1.0000 0.60300  0.00120  0.16839  Biso   1.000  C
  H165     1.0000 0.61680  0.95690  0.15200  Biso   1.000  H
  H166     1.0000 0.62430  0.99730  0.19780  Biso   1.000  H
  C148     1.0000 0.98360  0.59870  0.96262  Biso   1.000  C
  H167     1.0000 0.00300  0.64480  0.97060  Biso   1.000  H
  C149     1.0000 0.71430  0.05970  0.13217  Biso   1.000  C
  H168     1.0000 0.71830  0.02000  0.11050  Biso   1.000  H
  H169     1.0000 0.74350  0.04560  0.15780  Biso   1.000  H
  C150     1.0000 0.61810  0.21660  0.03516  Biso   1.000  C
  H170     1.0000 0.57840  0.24680  0.02700  Biso   1.000  H
  C151     1.0000 0.62980  0.23220  0.82880  Biso   1.000  C
  H171     1.0000 0.60060  0.27260  0.83700  Biso   1.000  H
  C152     1.0000 0.64310  0.20790  0.07662  Biso   1.000  C
  H172     1.0000 0.62450  0.23090  0.10190  Biso   1.000  H
  C153     1.0000 0.40380  0.97830  0.17274  Biso   1.000  C
  H173     1.0000 0.35920  0.95200  0.17170  Biso   1.000  H
  N53      1.0000 0.41150  0.52650  0.93525  Biso   1.000  N
  C154     1.0000 0.64770  0.21420  0.78665  Biso   1.000  C
  H174     1.0000 0.63390  0.23920  0.76100  Biso   1.000  H
  C155     1.0000 0.92890  0.36250  0.97780  Biso   1.000  C
  H175     1.0000 0.88100  0.36770  0.96320  Biso   1.000  H
  H176     1.0000 0.92540  0.38780  0.00610  Biso   1.000  H
  C156     1.0000 0.70920  0.14070  0.03168  Biso   1.000  C
  H177     1.0000 0.74530  0.10820  0.02110  Biso   1.000  H
  C157     1.0000 0.98430  0.40020  0.95120  Biso   1.000  C
  H178     1.0000 0.98200  0.38160  0.92110  Biso   1.000  H
  H179     1.0000 0.03340  0.38920  0.96280  Biso   1.000  H
  C158     1.0000 0.94190  0.28160  0.98653  Biso   1.000  C
  H180     1.0000 0.95730  0.25750  0.95930  Biso   1.000  H
  H181     1.0000 0.98190  0.27630  0.00790  Biso   1.000  H
  C159     1.0000 0.47180  0.94790  0.17005  Biso   1.000  C
  H182     1.0000 0.48290  0.89760  0.16740  Biso   1.000  H
  C160     1.0000 0.69740  0.13660  0.83280  Biso   1.000  C
  H183     1.0000 0.72550  0.09740  0.84400  Biso   1.000  H
  N54      1.0000 0.84080  0.28220  0.04288  Biso   1.000  N
  N55      1.0000 0.82308  0.31685  0.11158  Biso   1.000  N
  C161     1.0000 0.77850  0.32540  0.04327  Biso   1.000  C
  H184     1.0000 0.74890  0.33790  0.01910  Biso   1.000  H
  C162     1.0000 0.86660  0.27870  0.08450  Biso   1.000  C
  H185     1.0000 0.90910  0.25300  0.09310  Biso   1.000  H
  C163     1.0000 0.76830  0.34650  0.08564  Biso   1.000  C
  H186     1.0000 0.72990  0.37670  0.09570  Biso   1.000  H
  C164     1.0000 0.78780  0.16700  0.73309  Biso   1.000  C
  H187     1.0000 0.81370  0.14260  0.70940  Biso   1.000  H
  H188     1.0000 0.76190  0.20970  0.72190  Biso   1.000  H
  C165     1.0000 0.73260  0.11530  0.75400  Biso   1.000  C
  H189     1.0000 0.69820  0.09770  0.73160  Biso   1.000  H
  H190     1.0000 0.75860  0.07250  0.76600  Biso   1.000  H
  Cd11     1.0000 0.18097  0.33180  0.43750  Biso   1.000  Cd
  Cd12     1.0000 0.35047  0.82706  0.43163  Biso   1.000  Cd
  O31      1.0000 0.33496  0.69644  0.43603  Biso   1.000  O
  N56      1.0000 0.47860  0.99500  0.67191  Biso   1.000  N
  N57      1.0000 0.29890  0.84120  0.57473  Biso   1.000  N
  O32      1.0000 0.25490  0.43530  0.43424  Biso   1.000  O
  O33      1.0000 0.45460  0.72380  0.43174  Biso   1.000  O
  N58      1.0000 0.59047  0.94720  0.67723  Biso   1.000  N
  C166     1.0000 0.38180  0.46770  0.43857  Biso   1.000  C
  N59      1.0000 0.34010  0.82558  0.50646  Biso   1.000  N
  C167     1.0000 0.49490  0.57330  0.43629  Biso   1.000  C
  H191     1.0000 0.53320  0.60810  0.43620  Biso   1.000  H
  O34      1.0000 0.33540  0.34450  0.44466  Biso   1.000  O
  C168     1.0000 0.51040  0.49810  0.43647  Biso   1.000  C
  C169     1.0000 0.42090  0.59610  0.43621  Biso   1.000  C
  N60      1.0000 0.33950  0.81720  0.35708  Biso   1.000  N
  N61      1.0000 0.02680  0.51860  0.45083  Biso   1.000  N
  N62      1.0000 0.08560  0.41253  0.44612  Biso   1.000  N
  C170     1.0000 0.36530  0.54310  0.43771  Biso   1.000  C
  H192     1.0000 0.31580  0.55830  0.43820  Biso   1.000  H
  C171     1.0000 0.25400  0.86890  0.61254  Biso   1.000  C
  H193     1.0000 0.25230  0.83090  0.63540  Biso   1.000  H
  H194     1.0000 0.20350  0.87800  0.60260  Biso   1.000  H
  C172     1.0000 0.31990  0.41030  0.43927  Biso   1.000  C
  C173     1.0000 0.08970  0.48500  0.43933  Biso   1.000  C
  H195     1.0000 0.13120  0.50930  0.42800  Biso   1.000  H
  C174     1.0000 0.98020  0.46560  0.46581  Biso   1.000  C
  H196     1.0000 0.93210  0.47260  0.47630  Biso   1.000  H
  C175     1.0000 0.36610  0.93180  0.64568  Biso   1.000  C
  H197     1.0000 0.37040  0.88930  0.66530  Biso   1.000  H
  H198     1.0000 0.39560  0.92150  0.61950  Biso   1.000  H
  C176     1.0000 0.45520  0.44480  0.43852  Biso   1.000  C
  H199     1.0000 0.46720  0.39450  0.43980  Biso   1.000  H
  C177     1.0000 0.51890  0.93310  0.67663  Biso   1.000  C
  H200     1.0000 0.49860  0.88570  0.67920  Biso   1.000  H
  N63      1.0000 0.30960  0.84830  0.28961  Biso   1.000  N
  C178     1.0000 0.40320  0.67870  0.43453  Biso   1.000  C
  C179     1.0000 0.12590  0.75570  0.50373  Biso   1.000  C
  H201     1.0000 0.11340  0.80640  0.51180  Biso   1.000  H
  H202     1.0000 0.16270  0.75780  0.48030  Biso   1.000  H
  O35      1.0000 0.63730  0.51940  0.43450  Biso   1.000  O
  O36      1.0000 0.60130  0.40780  0.43480  Biso   1.000  O
  C180     1.0000 0.39700  0.99880  0.66839  Biso   1.000  C
  H203     1.0000 0.38320  0.04310  0.65200  Biso   1.000  H
  H204     1.0000 0.37570  0.00270  0.69780  Biso   1.000  H
  C181     1.0000 0.01640  0.40130  0.46262  Biso   1.000  C
  H205     1.0000 0.99700  0.35520  0.47060  Biso   1.000  H
  C182     1.0000 0.28570  0.94030  0.63217  Biso   1.000  C
  H206     1.0000 0.28170  0.98000  0.61050  Biso   1.000  H
  H207     1.0000 0.25650  0.95440  0.65780  Biso   1.000  H
  C183     1.0000 0.38190  0.78340  0.53516  Biso   1.000  C
  H208     1.0000 0.42160  0.75320  0.52700  Biso   1.000  H
  C184     1.0000 0.37020  0.76780  0.32880  Biso   1.000  C
  H209     1.0000 0.39940  0.72740  0.33700  Biso   1.000  H
  C185     1.0000 0.35690  0.79210  0.57662  Biso   1.000  C
  H210     1.0000 0.37550  0.76910  0.60190  Biso   1.000  H
  C186     1.0000 0.59620  0.02170  0.67274  Biso   1.000  C
  H211     1.0000 0.64080  0.04800  0.67170  Biso   1.000  H
  N64      1.0000 0.58850  0.47350  0.43525  Biso   1.000  N
  C187     1.0000 0.35230  0.78580  0.28665  Biso   1.000  C
  H212     1.0000 0.36610  0.76080  0.26100  Biso   1.000  H
  C188     1.0000 0.07110  0.63750  0.47780  Biso   1.000  C
  H213     1.0000 0.11900  0.63230  0.46320  Biso   1.000  H
  H214     1.0000 0.07460  0.61220  0.50610  Biso   1.000  H
  C189     1.0000 0.29080  0.85930  0.53168  Biso   1.000  C
  H215     1.0000 0.25470  0.89180  0.52110  Biso   1.000  H
  C190     1.0000 0.01570  0.59980  0.45120  Biso   1.000  C
  H216     1.0000 0.01800  0.61840  0.42110  Biso   1.000  H
  H217     1.0000 0.96660  0.61080  0.46280  Biso   1.000  H
  C191     1.0000 0.05810  0.71840  0.48653  Biso   1.000  C
  H218     1.0000 0.04270  0.74250  0.45930  Biso   1.000  H
  H219     1.0000 0.01810  0.72370  0.50790  Biso   1.000  H
  C192     1.0000 0.52820  0.05210  0.67005  Biso   1.000  C
  H220     1.0000 0.51710  0.10240  0.66740  Biso   1.000  H
  C193     1.0000 0.30260  0.86340  0.33280  Biso   1.000  C
  H221     1.0000 0.27450  0.90260  0.34400  Biso   1.000  H
  N65      1.0000 0.15920  0.71780  0.54288  Biso   1.000  N
  N66      1.0000 0.17692  0.68315  0.61158  Biso   1.000  N
  C194     1.0000 0.22150  0.67460  0.54327  Biso   1.000  C
  H222     1.0000 0.25110  0.66210  0.51910  Biso   1.000  H
  C195     1.0000 0.13340  0.72130  0.58450  Biso   1.000  C
  H223     1.0000 0.09090  0.74700  0.59310  Biso   1.000  H
  C196     1.0000 0.23170  0.65350  0.58564  Biso   1.000  C
  H224     1.0000 0.27010  0.62330  0.59570  Biso   1.000  H
  C197     1.0000 0.21220  0.83300  0.23309  Biso   1.000  C
  H225     1.0000 0.18630  0.85740  0.20940  Biso   1.000  H
  H226     1.0000 0.23810  0.79030  0.22190  Biso   1.000  H
  C198     1.0000 0.26740  0.88470  0.25400  Biso   1.000  C
  H227     1.0000 0.30180  0.90230  0.23160  Biso   1.000  H
  H228     1.0000 0.24140  0.92750  0.26600  Biso   1.000  H
  Cd13     1.0000 0.16820  0.68097  0.68749  Biso   1.000  Cd
  Cd14     1.0000 0.67294  0.85047  0.68163  Biso   1.000  Cd
  O37      1.0000 0.80356  0.83496  0.68603  Biso   1.000  O
  N67      1.0000 0.50500  0.97860  0.92191  Biso   1.000  N
  N68      1.0000 0.65880  0.79890  0.82473  Biso   1.000  N
  O38      1.0000 0.06470  0.75490  0.68424  Biso   1.000  O
  O39      1.0000 0.77620  0.95460  0.68174  Biso   1.000  O
  N69      1.0000 0.55280  0.09047  0.92723  Biso   1.000  N
  C199     1.0000 0.03230  0.88180  0.68857  Biso   1.000  C
  N70      1.0000 0.67442  0.84010  0.75646  Biso   1.000  N
  C200     1.0000 0.92670  0.99490  0.68629  Biso   1.000  C
  H229     1.0000 0.89190  0.03320  0.68620  Biso   1.000  H
  O40      1.0000 0.15550  0.83540  0.69466  Biso   1.000  O
  C201     1.0000 0.00190  0.01040  0.68647  Biso   1.000  C
  C202     1.0000 0.90390  0.92090  0.68621  Biso   1.000  C
  N71      1.0000 0.68280  0.83950  0.60708  Biso   1.000  N
  N72      1.0000 0.98140  0.52680  0.70083  Biso   1.000  N
  N73      1.0000 0.08747  0.58560  0.69612  Biso   1.000  N
  C203     1.0000 0.95690  0.86530  0.68771  Biso   1.000  C
  H230     1.0000 0.94170  0.81580  0.68820  Biso   1.000  H
  C204     1.0000 0.63110  0.75400  0.86254  Biso   1.000  C
  H231     1.0000 0.66910  0.75230  0.88540  Biso   1.000  H
  H232     1.0000 0.62200  0.70350  0.85260  Biso   1.000  H
  C205     1.0000 0.08970  0.81990  0.68927  Biso   1.000  C
  C206     1.0000 0.01500  0.58970  0.68933  Biso   1.000  C
  H233     1.0000 0.99070  0.63120  0.67800  Biso   1.000  H
  C207     1.0000 0.03440  0.48020  0.71581  Biso   1.000  C
  H234     1.0000 0.02740  0.43210  0.72630  Biso   1.000  H
  C208     1.0000 0.56820  0.86610  0.89568  Biso   1.000  C
  H235     1.0000 0.61070  0.87040  0.91530  Biso   1.000  H
  H236     1.0000 0.57850  0.89560  0.86950  Biso   1.000  H
  C209     1.0000 0.05520  0.95520  0.68852  Biso   1.000  C
  H237     1.0000 0.10550  0.96720  0.68980  Biso   1.000  H
  C210     1.0000 0.56690  0.01890  0.92663  Biso   1.000  C
  H238     1.0000 0.61430  0.99860  0.92920  Biso   1.000  H
  N74      1.0000 0.65170  0.80960  0.53961  Biso   1.000  N
  C211     1.0000 0.82130  0.90320  0.68453  Biso   1.000  C
  C212     1.0000 0.74430  0.62590  0.75373  Biso   1.000  C
  H239     1.0000 0.69360  0.61340  0.76180  Biso   1.000  H
  H240     1.0000 0.74220  0.66270  0.73030  Biso   1.000  H
  O41      1.0000 0.98060  0.13730  0.68450  Biso   1.000  O
  O42      1.0000 0.09220  0.10130  0.68480  Biso   1.000  O
  C213     1.0000 0.50120  0.89700  0.91839  Biso   1.000  C
  H241     1.0000 0.45690  0.88320  0.90200  Biso   1.000  H
  H242     1.0000 0.49730  0.87570  0.94780  Biso   1.000  H
  C214     1.0000 0.09870  0.51640  0.71262  Biso   1.000  C
  H243     1.0000 0.14480  0.49700  0.72060  Biso   1.000  H
  C215     1.0000 0.55970  0.78570  0.88217  Biso   1.000  C
  H244     1.0000 0.52000  0.78170  0.86050  Biso   1.000  H
  H245     1.0000 0.54560  0.75650  0.90780  Biso   1.000  H
  C216     1.0000 0.71660  0.88190  0.78516  Biso   1.000  C
  H246     1.0000 0.74680  0.92160  0.77700  Biso   1.000  H
  C217     1.0000 0.73220  0.87020  0.57880  Biso   1.000  C
  H247     1.0000 0.77260  0.89940  0.58700  Biso   1.000  H
  C218     1.0000 0.70790  0.85690  0.82662  Biso   1.000  C
  H248     1.0000 0.73090  0.87550  0.85190  Biso   1.000  H
  C219     1.0000 0.47830  0.09620  0.92274  Biso   1.000  C
  H249     1.0000 0.45200  0.14080  0.92170  Biso   1.000  H
  N75      1.0000 0.02650  0.08850  0.68525  Biso   1.000  N
  C220     1.0000 0.71420  0.85230  0.53665  Biso   1.000  C
  H250     1.0000 0.73920  0.86610  0.51100  Biso   1.000  H
  C221     1.0000 0.86250  0.57110  0.72780  Biso   1.000  C
  H251     1.0000 0.86770  0.61900  0.71320  Biso   1.000  H
  H252     1.0000 0.88780  0.57460  0.75610  Biso   1.000  H
  C222     1.0000 0.64070  0.79080  0.78168  Biso   1.000  C
  H253     1.0000 0.60820  0.75470  0.77110  Biso   1.000  H
  C223     1.0000 0.90020  0.51570  0.70120  Biso   1.000  C
  H254     1.0000 0.88160  0.51800  0.67110  Biso   1.000  H
  H255     1.0000 0.88920  0.46660  0.71280  Biso   1.000  H
  C224     1.0000 0.78160  0.55810  0.73653  Biso   1.000  C
  H256     1.0000 0.75750  0.54270  0.70930  Biso   1.000  H
  H257     1.0000 0.77630  0.51810  0.75790  Biso   1.000  H
  C225     1.0000 0.44790  0.02820  0.92005  Biso   1.000  C
  H258     1.0000 0.39760  0.01710  0.91740  Biso   1.000  H
  C226     1.0000 0.63660  0.80260  0.58280  Biso   1.000  C
  H259     1.0000 0.59740  0.77450  0.59400  Biso   1.000  H
  N76      1.0000 0.78220  0.65920  0.79288  Biso   1.000  N
  N77      1.0000 0.81685  0.67692  0.86158  Biso   1.000  N
  C227     1.0000 0.82540  0.72150  0.79327  Biso   1.000  C
  H260     1.0000 0.83790  0.75110  0.76910  Biso   1.000  H
  C228     1.0000 0.77870  0.63340  0.83450  Biso   1.000  C
  H261     1.0000 0.75300  0.59090  0.84310  Biso   1.000  H
  C229     1.0000 0.84650  0.73170  0.83564  Biso   1.000  C
  H262     1.0000 0.87670  0.77010  0.84570  Biso   1.000  H
  C230     1.0000 0.66700  0.71220  0.48309  Biso   1.000  C
  H263     1.0000 0.64260  0.68630  0.45940  Biso   1.000  H
  H264     1.0000 0.70970  0.73810  0.47190  Biso   1.000  H
  C231     1.0000 0.61530  0.76740  0.50400  Biso   1.000  C
  H265     1.0000 0.59770  0.80180  0.48160  Biso   1.000  H
  H266     1.0000 0.57250  0.74140  0.51600  Biso   1.000  H
  Cd15     1.0000 0.83180  0.31903  0.18749  Biso   1.000  Cd
  Cd16     1.0000 0.32706  0.14953  0.18163  Biso   1.000  Cd
  O43      1.0000 0.19644  0.16504  0.18603  Biso   1.000  O
  N78      1.0000 0.49500  0.02140  0.42191  Biso   1.000  N
  N79      1.0000 0.34120  0.20110  0.32473  Biso   1.000  N
  O44      1.0000 0.93530  0.24510  0.18424  Biso   1.000  O
  O45      1.0000 0.22380  0.04540  0.18174  Biso   1.000  O
  N80      1.0000 0.44720  0.90953  0.42723  Biso   1.000  N
  C232     1.0000 0.96770  0.11820  0.18857  Biso   1.000  C
  N81      1.0000 0.32558  0.15990  0.25646  Biso   1.000  N
  C233     1.0000 0.07330  0.00510  0.18629  Biso   1.000  C
  H267     1.0000 0.10810  0.96680  0.18620  Biso   1.000  H
  O46      1.0000 0.84450  0.16460  0.19466  Biso   1.000  O
  C234     1.0000 0.99810  0.98960  0.18647  Biso   1.000  C
  C235     1.0000 0.09610  0.07910  0.18621  Biso   1.000  C
  N82      1.0000 0.31720  0.16050  0.10708  Biso   1.000  N
  N83      1.0000 0.01860  0.47320  0.20083  Biso   1.000  N
  N84      1.0000 0.91253  0.41440  0.19612  Biso   1.000  N
  C236     1.0000 0.04310  0.13470  0.18771  Biso   1.000  C
  H268     1.0000 0.05830  0.18420  0.18820  Biso   1.000  H
  C237     1.0000 0.36890  0.24600  0.36254  Biso   1.000  C
  H269     1.0000 0.33090  0.24770  0.38540  Biso   1.000  H
  H270     1.0000 0.37800  0.29650  0.35260  Biso   1.000  H
  C238     1.0000 0.91030  0.18010  0.18927  Biso   1.000  C
  C239     1.0000 0.98500  0.41030  0.18933  Biso   1.000  C
  H271     1.0000 0.00930  0.36880  0.17800  Biso   1.000  H
  C240     1.0000 0.96560  0.51980  0.21581  Biso   1.000  C
  H272     1.0000 0.97260  0.56790  0.22630  Biso   1.000  H
  C241     1.0000 0.43180  0.13390  0.39568  Biso   1.000  C
  H273     1.0000 0.38930  0.12960  0.41530  Biso   1.000  H
  H274     1.0000 0.42150  0.10440  0.36950  Biso   1.000  H
  C242     1.0000 0.94480  0.04480  0.18852  Biso   1.000  C
  H275     1.0000 0.89450  0.03280  0.18980  Biso   1.000  H
  C243     1.0000 0.43310  0.98110  0.42663  Biso   1.000  C
  H276     1.0000 0.38570  0.00140  0.42920  Biso   1.000  H
  N85      1.0000 0.34830  0.19040  0.03961  Biso   1.000  N
  C244     1.0000 0.17870  0.09680  0.18453  Biso   1.000  C
  C245     1.0000 0.25570  0.37410  0.25373  Biso   1.000  C
  H277     1.0000 0.30640  0.38660  0.26180  Biso   1.000  H
  H278     1.0000 0.25780  0.33730  0.23030  Biso   1.000  H
  O47      1.0000 0.01940  0.86270  0.18450  Biso   1.000  O
  O48      1.0000 0.90780  0.89870  0.18480  Biso   1.000  O
  C246     1.0000 0.49880  0.10300  0.41839  Biso   1.000  C
  H279     1.0000 0.54310  0.11680  0.40200  Biso   1.000  H
  H280     1.0000 0.50270  0.12430  0.44780  Biso   1.000  H
  C247     1.0000 0.90130  0.48360  0.21262  Biso   1.000  C
  H281     1.0000 0.85520  0.50300  0.22060  Biso   1.000  H
  C248     1.0000 0.44030  0.21430  0.38217  Biso   1.000  C
  H282     1.0000 0.48000  0.21830  0.36050  Biso   1.000  H
  H283     1.0000 0.45440  0.24350  0.40780  Biso   1.000  H
  C249     1.0000 0.28340  0.11810  0.28516  Biso   1.000  C
  H284     1.0000 0.25320  0.07840  0.27700  Biso   1.000  H
  C250     1.0000 0.26780  0.12980  0.07880  Biso   1.000  C
  H285     1.0000 0.22740  0.10060  0.08700  Biso   1.000  H
  C251     1.0000 0.29210  0.14310  0.32662  Biso   1.000  C
  H286     1.0000 0.26910  0.12450  0.35190  Biso   1.000  H
  C252     1.0000 0.52170  0.90380  0.42274  Biso   1.000  C
  H287     1.0000 0.54800  0.85920  0.42170  Biso   1.000  H
  N86      1.0000 0.97350  0.91150  0.18525  Biso   1.000  N
  C253     1.0000 0.28580  0.14770  0.03665  Biso   1.000  C
  H288     1.0000 0.26080  0.13390  0.01100  Biso   1.000  H
  C254     1.0000 0.13750  0.42890  0.22780  Biso   1.000  C
  H289     1.0000 0.13230  0.38100  0.21320  Biso   1.000  H
  H290     1.0000 0.11220  0.42540  0.25610  Biso   1.000  H
  C255     1.0000 0.35930  0.20920  0.28168  Biso   1.000  C
  H291     1.0000 0.39180  0.24530  0.27110  Biso   1.000  H
  C256     1.0000 0.09980  0.48430  0.20120  Biso   1.000  C
  H292     1.0000 0.11840  0.48200  0.17110  Biso   1.000  H
  H293     1.0000 0.11080  0.53340  0.21280  Biso   1.000  H
  C257     1.0000 0.21840  0.44190  0.23653  Biso   1.000  C
  H294     1.0000 0.24250  0.45730  0.20930  Biso   1.000  H
  H295     1.0000 0.22370  0.48190  0.25790  Biso   1.000  H
  C258     1.0000 0.55210  0.97180  0.42005  Biso   1.000  C
  H296     1.0000 0.60240  0.98290  0.41740  Biso   1.000  H
  C259     1.0000 0.36340  0.19740  0.08280  Biso   1.000  C
  H297     1.0000 0.40260  0.22550  0.09400  Biso   1.000  H
  N87      1.0000 0.21780  0.34080  0.29288  Biso   1.000  N
  N88      1.0000 0.18315  0.32308  0.36158  Biso   1.000  N
  C260     1.0000 0.17460  0.27850  0.29327  Biso   1.000  C
  H298     1.0000 0.16210  0.24890  0.26910  Biso   1.000  H
  C261     1.0000 0.22130  0.36660  0.33450  Biso   1.000  C
  H299     1.0000 0.24700  0.40910  0.34310  Biso   1.000  H
  C262     1.0000 0.15350  0.26830  0.33564  Biso   1.000  C
  H300     1.0000 0.12330  0.22990  0.34570  Biso   1.000  H
  C263     1.0000 0.33300  0.28780  0.98309  Biso   1.000  C
  H301     1.0000 0.35740  0.31370  0.95940  Biso   1.000  H
  H302     1.0000 0.29030  0.26190  0.97190  Biso   1.000  H
  C264     1.0000 0.38470  0.23260  0.00400  Biso   1.000  C
  H303     1.0000 0.40230  0.19820  0.98160  Biso   1.000  H
  H304     1.0000 0.42750  0.25860  0.01600  Biso   1.000  H
