data_image0
_cell_length_a       40.999
_cell_length_b       14.353
_cell_length_c       20.257
_cell_angle_alpha    90
_cell_angle_beta     108.79
_cell_angle_gamma    90

_symmetry_space_group_name_H-M    "P 1"
_symmetry_int_tables_number       1

loop_
  _symmetry_equiv_pos_as_xyz
  'x, y, z'

loop_
  _atom_site_label
  _atom_site_occupancy
  _atom_site_fract_x
  _atom_site_fract_y
  _atom_site_fract_z
  _atom_site_thermal_displace_type
  _atom_site_B_iso_or_equiv
  _atom_site_type_symbol
  Co1      1.0000 0.91797  0.53417  0.37912  Biso   1.000  Co
  Co2      1.0000 0.27665  0.34564  0.17034  Biso   1.000  Co
  N1       1.0000 0.94728  0.42020  0.39610  Biso   1.000  N
  N2       1.0000 0.98327  0.31150  0.38750  Biso   1.000  N
  N3       1.0000 0.06769  0.66870  0.11410  Biso   1.000  N
  N4       1.0000 0.06966  0.81110  0.15120  Biso   1.000  N
  N5       1.0000 0.19320  0.09120  0.74535  Biso   1.000  N
  N6       1.0000 0.16401  0.06050  0.63501  Biso   1.000  N
  N7       1.0000 0.22871  0.35200  0.17669  Biso   1.000  N
  N8       1.0000 0.18395  0.32140  0.20954  Biso   1.000  N
  O1       1.0000 0.88424  0.52980  0.43119  Biso   1.000  O
  O2       1.0000 0.93382  0.52960  0.51738  Biso   1.000  O
  O3       1.0000 0.88526  0.48660  0.78335  Biso   1.000  O
  O4       1.0000 0.93270  0.46100  0.75526  Biso   1.000  O
  O5       1.0000 0.27701  0.38770  0.08056  Biso   1.000  O
  O6       1.0000 0.27423  0.53800  0.10340  Biso   1.000  O
  O7       1.0000 0.21602  0.28400  0.84440  Biso   1.000  O
  O8       1.0000 0.22508  0.36230  0.75730  Biso   1.000  O
  C1       1.0000 0.90215  0.53000  0.49590  Biso   1.000  C
  C2       1.0000 0.88270  0.53180  0.54830  Biso   1.000  C
  C3       1.0000 0.89893  0.50740  0.61570  Biso   1.000  C
  H1       1.0000 0.92220  0.48920  0.62930  Biso   1.000  H
  C4       1.0000 0.88199  0.50880  0.66510  Biso   1.000  C
  C5       1.0000 0.84806  0.53550  0.64550  Biso   1.000  C
  H2       1.0000 0.83640  0.53640  0.67860  Biso   1.000  H
  C6       1.0000 0.83097  0.56120  0.57730  Biso   1.000  C
  H3       1.0000 0.80790  0.58060  0.56400  Biso   1.000  H
  C7       1.0000 0.84826  0.55800  0.52810  Biso   1.000  C
  H4       1.0000 0.83660  0.57370  0.48140  Biso   1.000  H
  C8       1.0000 0.90188  0.48300  0.73940  Biso   1.000  C
  C9       1.0000 0.97000  0.39370  0.36580  Biso   1.000  C
  H5       1.0000 0.97590  0.42960  0.33250  Biso   1.000  H
  C10      1.0000 0.96856  0.28100  0.43470  Biso   1.000  C
  H6       1.0000 0.97290  0.22430  0.45920  Biso   1.000  H
  C11      1.0000 0.94673  0.34730  0.43940  Biso   1.000  C
  H7       1.0000 0.93290  0.34450  0.46840  Biso   1.000  H
  C12      1.0000 0.01052  0.26400  0.36950  Biso   1.000  C
  C13      1.0000 0.03402  0.31510  0.34880  Biso   1.000  C
  H8       1.0000 0.03160  0.38010  0.34390  Biso   1.000  H
  C14      1.0000 0.06139  0.27020  0.33520  Biso   1.000  C
  H9       1.0000 0.07720  0.30540  0.32070  Biso   1.000  H
  C15      1.0000 0.06552  0.17540  0.34270  Biso   1.000  C
  C16      1.0000 0.04125  0.12670  0.36430  Biso   1.000  C
  H10      1.0000 0.04370  0.06190  0.37070  Biso   1.000  H
  C17      1.0000 0.01392  0.17070  0.37660  Biso   1.000  C
  H11      1.0000 0.99770  0.13580  0.39000  Biso   1.000  H
  C18      1.0000 0.09827  0.12450  0.34050  Biso   1.000  C
  C19      1.0000 0.07370  0.72400  0.16860  Biso   1.000  C
  H12      1.0000 0.08020  0.70260  0.21490  Biso   1.000  H
  C20      1.0000 0.06040  0.81610  0.07990  Biso   1.000  C
  H13      1.0000 0.05560  0.87020  0.05230  Biso   1.000  H
  C21      1.0000 0.05968  0.72740  0.05790  Biso   1.000  C
  H14      1.0000 0.05450  0.70880  0.01120  Biso   1.000  H
  C22      1.0000 0.07623  0.88960  0.19970  Biso   1.000  C
  C23      1.0000 0.10755  0.89690  0.25010  Biso   1.000  C
  H15      1.0000 0.12470  0.85190  0.25360  Biso   1.000  H
  C24      1.0000 0.11386  0.97110  0.29600  Biso   1.000  C
  H16      1.0000 0.13570  0.97720  0.32980  Biso   1.000  H
  C25      1.0000 0.08873  0.03660  0.29320  Biso   1.000  C
  C26      1.0000 0.05732  0.02770  0.24100  Biso   1.000  C
  H17      1.0000 0.04000  0.07210  0.23770  Biso   1.000  H
  C27      1.0000 0.05086  0.95590  0.19440  Biso   1.000  C
  H18      1.0000 0.02950  0.95150  0.15900  Biso   1.000  H
  C28      1.0000 0.17866  0.12720  0.68260  Biso   1.000  C
  H19      1.0000 0.17850  0.19110  0.67230  Biso   1.000  H
  C29      1.0000 0.16959  0.97800  0.66860  Biso   1.000  C
  H20      1.0000 0.16250  0.91900  0.64910  Biso   1.000  H
  C30      1.0000 0.18752  0.99730  0.73610  Biso   1.000  C
  H21      1.0000 0.19500  0.95240  0.77160  Biso   1.000  H
  C31      1.0000 0.14750  0.07600  0.56160  Biso   1.000  C
  C32      1.0000 0.14594  0.16330  0.53300  Biso   1.000  C
  H22      1.0000 0.15520  0.21470  0.56170  Biso   1.000  H
  C33      1.0000 0.13070  0.17550  0.46210  Biso   1.000  C
  H23      1.0000 0.12970  0.23580  0.44340  Biso   1.000  H
  C34      1.0000 0.11693  0.10220  0.41780  Biso   1.000  C
  C35      1.0000 0.11811  0.01660  0.44770  Biso   1.000  C
  H24      1.0000 0.10850  0.96530  0.41930  Biso   1.000  H
  C36      1.0000 0.13322  0.00300  0.51940  Biso   1.000  C
  H25      1.0000 0.13350  0.94320  0.53860  Biso   1.000  H
  C37      1.0000 0.21583  0.29420  0.21220  Biso   1.000  C
  H26      1.0000 0.22730  0.24140  0.23610  Biso   1.000  H
  C38      1.0000 0.17573  0.40060  0.17130  Biso   1.000  C
  H27      1.0000 0.15520  0.43490  0.16050  Biso   1.000  H
  C39      1.0000 0.20417  0.41940  0.15170  Biso   1.000  C
  H28      1.0000 0.20650  0.47110  0.12510  Biso   1.000  H
  C40      1.0000 0.16233  0.27320  0.24310  Biso   1.000  C
  C41      1.0000 0.17679  0.23190  0.30660  Biso   1.000  C
  H29      1.0000 0.20070  0.23540  0.32890  Biso   1.000  H
  C42      1.0000 0.15653  0.18560  0.33800  Biso   1.000  C
  H30      1.0000 0.16690  0.15550  0.38090  Biso   1.000  H
  C43      1.0000 0.12127  0.18230  0.30800  Biso   1.000  C
  C44      1.0000 0.10700  0.22330  0.24310  Biso   1.000  C
  H31      1.0000 0.08310  0.22030  0.22070  Biso   1.000  H
  C45      1.0000 0.12756  0.26880  0.21070  Biso   1.000  C
  H32      1.0000 0.11760  0.29660  0.16680  Biso   1.000  H
  C46      1.0000 0.27227  0.47280  0.06270  Biso   1.000  C
  C47      1.0000 0.26312  0.49170  0.98570  Biso   1.000  C
  C48      1.0000 0.24988  0.41810  0.93920  Biso   1.000  C
  H33      1.0000 0.24750  0.35820  0.95580  Biso   1.000  H
  C49      1.0000 0.24041  0.43550  0.86840  Biso   1.000  C
  C50      1.0000 0.24405  0.52320  0.84390  Biso   1.000  C
  H34      1.0000 0.23760  0.53420  0.79570  Biso   1.000  H
  C51      1.0000 0.25704  0.59400  0.89010  Biso   1.000  C
  H35      1.0000 0.25960  0.65350  0.87300  Biso   1.000  H
  C52      1.0000 0.26641  0.58000  0.96080  Biso   1.000  C
  H36      1.0000 0.27490  0.62960  0.99190  Biso   1.000  H
  C53      1.0000 0.22580  0.35620  0.81880  Biso   1.000  C
  Zn1      1.0000 0.08203  0.53417  0.12088  Biso   1.000  Zn
  Zn2      1.0000 0.22335  0.15436  0.82966  Biso   1.000  Zn
  Co3      1.0000 0.41797  0.03417  0.37912  Biso   1.000  Co
  Co4      1.0000 0.77665  0.84564  0.17034  Biso   1.000  Co
  N9       1.0000 0.44728  0.92020  0.39610  Biso   1.000  N
  N10      1.0000 0.48327  0.81150  0.38750  Biso   1.000  N
  N11      1.0000 0.56769  0.16870  0.11410  Biso   1.000  N
  N12      1.0000 0.56966  0.31110  0.15120  Biso   1.000  N
  N13      1.0000 0.69320  0.59120  0.74535  Biso   1.000  N
  N14      1.0000 0.66401  0.56050  0.63501  Biso   1.000  N
  N15      1.0000 0.72871  0.85200  0.17669  Biso   1.000  N
  N16      1.0000 0.68395  0.82140  0.20954  Biso   1.000  N
  O9       1.0000 0.38424  0.02980  0.43119  Biso   1.000  O
  O10      1.0000 0.43382  0.02960  0.51738  Biso   1.000  O
  O11      1.0000 0.38526  0.98660  0.78335  Biso   1.000  O
  O12      1.0000 0.43270  0.96100  0.75526  Biso   1.000  O
  O13      1.0000 0.77701  0.88770  0.08056  Biso   1.000  O
  O14      1.0000 0.77423  0.03800  0.10340  Biso   1.000  O
  O15      1.0000 0.71602  0.78400  0.84440  Biso   1.000  O
  O16      1.0000 0.72508  0.86230  0.75730  Biso   1.000  O
  C54      1.0000 0.40215  0.03000  0.49590  Biso   1.000  C
  C55      1.0000 0.38270  0.03180  0.54830  Biso   1.000  C
  C56      1.0000 0.39893  0.00740  0.61570  Biso   1.000  C
  H37      1.0000 0.42220  0.98920  0.62930  Biso   1.000  H
  C57      1.0000 0.38199  0.00880  0.66510  Biso   1.000  C
  C58      1.0000 0.34806  0.03550  0.64550  Biso   1.000  C
  H38      1.0000 0.33640  0.03640  0.67860  Biso   1.000  H
  C59      1.0000 0.33097  0.06120  0.57730  Biso   1.000  C
  H39      1.0000 0.30790  0.08060  0.56400  Biso   1.000  H
  C60      1.0000 0.34826  0.05800  0.52810  Biso   1.000  C
  H40      1.0000 0.33660  0.07370  0.48140  Biso   1.000  H
  C61      1.0000 0.40188  0.98300  0.73940  Biso   1.000  C
  C62      1.0000 0.47000  0.89370  0.36580  Biso   1.000  C
  H41      1.0000 0.47590  0.92960  0.33250  Biso   1.000  H
  C63      1.0000 0.46856  0.78100  0.43470  Biso   1.000  C
  H42      1.0000 0.47290  0.72430  0.45920  Biso   1.000  H
  C64      1.0000 0.44673  0.84730  0.43940  Biso   1.000  C
  H43      1.0000 0.43290  0.84450  0.46840  Biso   1.000  H
  C65      1.0000 0.51052  0.76400  0.36950  Biso   1.000  C
  C66      1.0000 0.53402  0.81510  0.34880  Biso   1.000  C
  H44      1.0000 0.53160  0.88010  0.34390  Biso   1.000  H
  C67      1.0000 0.56139  0.77020  0.33520  Biso   1.000  C
  H45      1.0000 0.57720  0.80540  0.32070  Biso   1.000  H
  C68      1.0000 0.56552  0.67540  0.34270  Biso   1.000  C
  C69      1.0000 0.54125  0.62670  0.36430  Biso   1.000  C
  H46      1.0000 0.54370  0.56190  0.37070  Biso   1.000  H
  C70      1.0000 0.51392  0.67070  0.37660  Biso   1.000  C
  H47      1.0000 0.49770  0.63580  0.39000  Biso   1.000  H
  C71      1.0000 0.59827  0.62450  0.34050  Biso   1.000  C
  C72      1.0000 0.57370  0.22400  0.16860  Biso   1.000  C
  H48      1.0000 0.58020  0.20260  0.21490  Biso   1.000  H
  C73      1.0000 0.56040  0.31610  0.07990  Biso   1.000  C
  H49      1.0000 0.55560  0.37020  0.05230  Biso   1.000  H
  C74      1.0000 0.55968  0.22740  0.05790  Biso   1.000  C
  H50      1.0000 0.55450  0.20880  0.01120  Biso   1.000  H
  C75      1.0000 0.57623  0.38960  0.19970  Biso   1.000  C
  C76      1.0000 0.60755  0.39690  0.25010  Biso   1.000  C
  H51      1.0000 0.62470  0.35190  0.25360  Biso   1.000  H
  C77      1.0000 0.61386  0.47110  0.29600  Biso   1.000  C
  H52      1.0000 0.63570  0.47720  0.32980  Biso   1.000  H
  C78      1.0000 0.58873  0.53660  0.29320  Biso   1.000  C
  C79      1.0000 0.55732  0.52770  0.24100  Biso   1.000  C
  H53      1.0000 0.54000  0.57210  0.23770  Biso   1.000  H
  C80      1.0000 0.55086  0.45590  0.19440  Biso   1.000  C
  H54      1.0000 0.52950  0.45150  0.15900  Biso   1.000  H
  C81      1.0000 0.67866  0.62720  0.68260  Biso   1.000  C
  H55      1.0000 0.67850  0.69110  0.67230  Biso   1.000  H
  C82      1.0000 0.66959  0.47800  0.66860  Biso   1.000  C
  H56      1.0000 0.66250  0.41900  0.64910  Biso   1.000  H
  C83      1.0000 0.68752  0.49730  0.73610  Biso   1.000  C
  H57      1.0000 0.69500  0.45240  0.77160  Biso   1.000  H
  C84      1.0000 0.64750  0.57600  0.56160  Biso   1.000  C
  C85      1.0000 0.64594  0.66330  0.53300  Biso   1.000  C
  H58      1.0000 0.65520  0.71470  0.56170  Biso   1.000  H
  C86      1.0000 0.63070  0.67550  0.46210  Biso   1.000  C
  H59      1.0000 0.62970  0.73580  0.44340  Biso   1.000  H
  C87      1.0000 0.61693  0.60220  0.41780  Biso   1.000  C
  C88      1.0000 0.61811  0.51660  0.44770  Biso   1.000  C
  H60      1.0000 0.60850  0.46530  0.41930  Biso   1.000  H
  C89      1.0000 0.63322  0.50300  0.51940  Biso   1.000  C
  H61      1.0000 0.63350  0.44320  0.53860  Biso   1.000  H
  C90      1.0000 0.71583  0.79420  0.21220  Biso   1.000  C
  H62      1.0000 0.72730  0.74140  0.23610  Biso   1.000  H
  C91      1.0000 0.67573  0.90060  0.17130  Biso   1.000  C
  H63      1.0000 0.65520  0.93490  0.16050  Biso   1.000  H
  C92      1.0000 0.70417  0.91940  0.15170  Biso   1.000  C
  H64      1.0000 0.70650  0.97110  0.12510  Biso   1.000  H
  C93      1.0000 0.66233  0.77320  0.24310  Biso   1.000  C
  C94      1.0000 0.67679  0.73190  0.30660  Biso   1.000  C
  H65      1.0000 0.70070  0.73540  0.32890  Biso   1.000  H
  C95      1.0000 0.65653  0.68560  0.33800  Biso   1.000  C
  H66      1.0000 0.66690  0.65550  0.38090  Biso   1.000  H
  C96      1.0000 0.62127  0.68230  0.30800  Biso   1.000  C
  C97      1.0000 0.60700  0.72330  0.24310  Biso   1.000  C
  H67      1.0000 0.58310  0.72030  0.22070  Biso   1.000  H
  C98      1.0000 0.62756  0.76880  0.21070  Biso   1.000  C
  H68      1.0000 0.61760  0.79660  0.16680  Biso   1.000  H
  C99      1.0000 0.77227  0.97280  0.06270  Biso   1.000  C
  C100     1.0000 0.76312  0.99170  0.98570  Biso   1.000  C
  C101     1.0000 0.74988  0.91810  0.93920  Biso   1.000  C
  H69      1.0000 0.74750  0.85820  0.95580  Biso   1.000  H
  C102     1.0000 0.74041  0.93550  0.86840  Biso   1.000  C
  C103     1.0000 0.74405  0.02320  0.84390  Biso   1.000  C
  H70      1.0000 0.73760  0.03420  0.79570  Biso   1.000  H
  C104     1.0000 0.75704  0.09400  0.89010  Biso   1.000  C
  H71      1.0000 0.75960  0.15350  0.87300  Biso   1.000  H
  C105     1.0000 0.76641  0.08000  0.96080  Biso   1.000  C
  H72      1.0000 0.77490  0.12960  0.99190  Biso   1.000  H
  C106     1.0000 0.72580  0.85620  0.81880  Biso   1.000  C
  Zn3      1.0000 0.58203  0.03417  0.12088  Biso   1.000  Zn
  Zn4      1.0000 0.72335  0.65436  0.82966  Biso   1.000  Zn
  Co5      1.0000 0.72335  0.34564  0.32966  Biso   1.000  Co
  N17      1.0000 0.05272  0.42020  0.10390  Biso   1.000  N
  N18      1.0000 0.01673  0.31150  0.11250  Biso   1.000  N
  N19      1.0000 0.93231  0.66870  0.38590  Biso   1.000  N
  N20      1.0000 0.93034  0.81110  0.34880  Biso   1.000  N
  N21      1.0000 0.80680  0.09120  0.75465  Biso   1.000  N
  N22      1.0000 0.83599  0.06050  0.86499  Biso   1.000  N
  N23      1.0000 0.77129  0.35200  0.32331  Biso   1.000  N
  N24      1.0000 0.81605  0.32140  0.29046  Biso   1.000  N
  O17      1.0000 0.11576  0.52980  0.06881  Biso   1.000  O
  O18      1.0000 0.06618  0.52960  0.98262  Biso   1.000  O
  O19      1.0000 0.11474  0.48660  0.71665  Biso   1.000  O
  O20      1.0000 0.06730  0.46100  0.74474  Biso   1.000  O
  O21      1.0000 0.72299  0.38770  0.41944  Biso   1.000  O
  O22      1.0000 0.72577  0.53800  0.39660  Biso   1.000  O
  O23      1.0000 0.78398  0.28400  0.65560  Biso   1.000  O
  O24      1.0000 0.77492  0.36230  0.74270  Biso   1.000  O
  C107     1.0000 0.09785  0.53000  0.00410  Biso   1.000  C
  C108     1.0000 0.11730  0.53180  0.95170  Biso   1.000  C
  C109     1.0000 0.10107  0.50740  0.88430  Biso   1.000  C
  H73      1.0000 0.07780  0.48920  0.87070  Biso   1.000  H
  C110     1.0000 0.11801  0.50880  0.83490  Biso   1.000  C
  C111     1.0000 0.15194  0.53550  0.85450  Biso   1.000  C
  H74      1.0000 0.16360  0.53640  0.82140  Biso   1.000  H
  C112     1.0000 0.16903  0.56120  0.92270  Biso   1.000  C
  H75      1.0000 0.19210  0.58060  0.93600  Biso   1.000  H
  C113     1.0000 0.15174  0.55800  0.97190  Biso   1.000  C
  H76      1.0000 0.16340  0.57370  0.01860  Biso   1.000  H
  C114     1.0000 0.09812  0.48300  0.76060  Biso   1.000  C
  C115     1.0000 0.03000  0.39370  0.13420  Biso   1.000  C
  H77      1.0000 0.02410  0.42960  0.16750  Biso   1.000  H
  C116     1.0000 0.03144  0.28100  0.06530  Biso   1.000  C
  H78      1.0000 0.02710  0.22430  0.04080  Biso   1.000  H
  C117     1.0000 0.05327  0.34730  0.06060  Biso   1.000  C
  H79      1.0000 0.06710  0.34450  0.03160  Biso   1.000  H
  C118     1.0000 0.98948  0.26400  0.13050  Biso   1.000  C
  C119     1.0000 0.96598  0.31510  0.15120  Biso   1.000  C
  H80      1.0000 0.96840  0.38010  0.15610  Biso   1.000  H
  C120     1.0000 0.93861  0.27020  0.16480  Biso   1.000  C
  H81      1.0000 0.92280  0.30540  0.17930  Biso   1.000  H
  C121     1.0000 0.93448  0.17540  0.15730  Biso   1.000  C
  C122     1.0000 0.95875  0.12670  0.13570  Biso   1.000  C
  H82      1.0000 0.95630  0.06190  0.12930  Biso   1.000  H
  C123     1.0000 0.98608  0.17070  0.12340  Biso   1.000  C
  H83      1.0000 0.00230  0.13580  0.11000  Biso   1.000  H
  C124     1.0000 0.90173  0.12450  0.15950  Biso   1.000  C
  C125     1.0000 0.92630  0.72400  0.33140  Biso   1.000  C
  H84      1.0000 0.91980  0.70260  0.28510  Biso   1.000  H
  C126     1.0000 0.93960  0.81610  0.42010  Biso   1.000  C
  H85      1.0000 0.94440  0.87020  0.44770  Biso   1.000  H
  C127     1.0000 0.94032  0.72740  0.44210  Biso   1.000  C
  H86      1.0000 0.94550  0.70880  0.48880  Biso   1.000  H
  C128     1.0000 0.92377  0.88960  0.30030  Biso   1.000  C
  C129     1.0000 0.89245  0.89690  0.24990  Biso   1.000  C
  H87      1.0000 0.87530  0.85190  0.24640  Biso   1.000  H
  C130     1.0000 0.88614  0.97110  0.20400  Biso   1.000  C
  H88      1.0000 0.86430  0.97720  0.17020  Biso   1.000  H
  C131     1.0000 0.91127  0.03660  0.20680  Biso   1.000  C
  C132     1.0000 0.94268  0.02770  0.25900  Biso   1.000  C
  H89      1.0000 0.96000  0.07210  0.26230  Biso   1.000  H
  C133     1.0000 0.94914  0.95590  0.30560  Biso   1.000  C
  H90      1.0000 0.97050  0.95150  0.34100  Biso   1.000  H
  C134     1.0000 0.82134  0.12720  0.81740  Biso   1.000  C
  H91      1.0000 0.82150  0.19110  0.82770  Biso   1.000  H
  C135     1.0000 0.83041  0.97800  0.83140  Biso   1.000  C
  H92      1.0000 0.83750  0.91900  0.85090  Biso   1.000  H
  C136     1.0000 0.81248  0.99730  0.76390  Biso   1.000  C
  H93      1.0000 0.80500  0.95240  0.72840  Biso   1.000  H
  C137     1.0000 0.85250  0.07600  0.93840  Biso   1.000  C
  C138     1.0000 0.85406  0.16330  0.96700  Biso   1.000  C
  H94      1.0000 0.84480  0.21470  0.93830  Biso   1.000  H
  C139     1.0000 0.86930  0.17550  0.03790  Biso   1.000  C
  H95      1.0000 0.87030  0.23580  0.05660  Biso   1.000  H
  C140     1.0000 0.88307  0.10220  0.08220  Biso   1.000  C
  C141     1.0000 0.88189  0.01660  0.05230  Biso   1.000  C
  H96      1.0000 0.89150  0.96530  0.08070  Biso   1.000  H
  C142     1.0000 0.86678  0.00300  0.98060  Biso   1.000  C
  H97      1.0000 0.86650  0.94320  0.96140  Biso   1.000  H
  C143     1.0000 0.78417  0.29420  0.28780  Biso   1.000  C
  H98      1.0000 0.77270  0.24140  0.26390  Biso   1.000  H
  C144     1.0000 0.82427  0.40060  0.32870  Biso   1.000  C
  H99      1.0000 0.84480  0.43490  0.33950  Biso   1.000  H
  C145     1.0000 0.79583  0.41940  0.34830  Biso   1.000  C
  H100     1.0000 0.79350  0.47110  0.37490  Biso   1.000  H
  C146     1.0000 0.83767  0.27320  0.25690  Biso   1.000  C
  C147     1.0000 0.82321  0.23190  0.19340  Biso   1.000  C
  H101     1.0000 0.79930  0.23540  0.17110  Biso   1.000  H
  C148     1.0000 0.84347  0.18560  0.16200  Biso   1.000  C
  H102     1.0000 0.83310  0.15550  0.11910  Biso   1.000  H
  C149     1.0000 0.87873  0.18230  0.19200  Biso   1.000  C
  C150     1.0000 0.89300  0.22330  0.25690  Biso   1.000  C
  H103     1.0000 0.91690  0.22030  0.27930  Biso   1.000  H
  C151     1.0000 0.87244  0.26880  0.28930  Biso   1.000  C
  H104     1.0000 0.88240  0.29660  0.33320  Biso   1.000  H
  C152     1.0000 0.72773  0.47280  0.43730  Biso   1.000  C
  C153     1.0000 0.73688  0.49170  0.51430  Biso   1.000  C
  C154     1.0000 0.75012  0.41810  0.56080  Biso   1.000  C
  H105     1.0000 0.75250  0.35820  0.54420  Biso   1.000  H
  C155     1.0000 0.75959  0.43550  0.63160  Biso   1.000  C
  C156     1.0000 0.75595  0.52320  0.65610  Biso   1.000  C
  H106     1.0000 0.76240  0.53420  0.70430  Biso   1.000  H
  C157     1.0000 0.74296  0.59400  0.60990  Biso   1.000  C
  H107     1.0000 0.74040  0.65350  0.62700  Biso   1.000  H
  C158     1.0000 0.73359  0.58000  0.53920  Biso   1.000  C
  H108     1.0000 0.72510  0.62960  0.50810  Biso   1.000  H
  C159     1.0000 0.77420  0.35620  0.68120  Biso   1.000  C
  Zn5      1.0000 0.77665  0.15436  0.67034  Biso   1.000  Zn
  Co6      1.0000 0.22335  0.84564  0.32966  Biso   1.000  Co
  N25      1.0000 0.55272  0.92020  0.10390  Biso   1.000  N
  N26      1.0000 0.51673  0.81150  0.11250  Biso   1.000  N
  N27      1.0000 0.43231  0.16870  0.38590  Biso   1.000  N
  N28      1.0000 0.43034  0.31110  0.34880  Biso   1.000  N
  N29      1.0000 0.30680  0.59120  0.75465  Biso   1.000  N
  N30      1.0000 0.33599  0.56050  0.86499  Biso   1.000  N
  N31      1.0000 0.27129  0.85200  0.32331  Biso   1.000  N
  N32      1.0000 0.31605  0.82140  0.29046  Biso   1.000  N
  O25      1.0000 0.61576  0.02980  0.06881  Biso   1.000  O
  O26      1.0000 0.56618  0.02960  0.98262  Biso   1.000  O
  O27      1.0000 0.61474  0.98660  0.71665  Biso   1.000  O
  O28      1.0000 0.56730  0.96100  0.74474  Biso   1.000  O
  O29      1.0000 0.22299  0.88770  0.41944  Biso   1.000  O
  O30      1.0000 0.22577  0.03800  0.39660  Biso   1.000  O
  O31      1.0000 0.28398  0.78400  0.65560  Biso   1.000  O
  O32      1.0000 0.27492  0.86230  0.74270  Biso   1.000  O
  C160     1.0000 0.59785  0.03000  0.00410  Biso   1.000  C
  C161     1.0000 0.61730  0.03180  0.95170  Biso   1.000  C
  C162     1.0000 0.60107  0.00740  0.88430  Biso   1.000  C
  H109     1.0000 0.57780  0.98920  0.87070  Biso   1.000  H
  C163     1.0000 0.61801  0.00880  0.83490  Biso   1.000  C
  C164     1.0000 0.65194  0.03550  0.85450  Biso   1.000  C
  H110     1.0000 0.66360  0.03640  0.82140  Biso   1.000  H
  C165     1.0000 0.66903  0.06120  0.92270  Biso   1.000  C
  H111     1.0000 0.69210  0.08060  0.93600  Biso   1.000  H
  C166     1.0000 0.65174  0.05800  0.97190  Biso   1.000  C
  H112     1.0000 0.66340  0.07370  0.01860  Biso   1.000  H
  C167     1.0000 0.59812  0.98300  0.76060  Biso   1.000  C
  C168     1.0000 0.53000  0.89370  0.13420  Biso   1.000  C
  H113     1.0000 0.52410  0.92960  0.16750  Biso   1.000  H
  C169     1.0000 0.53144  0.78100  0.06530  Biso   1.000  C
  H114     1.0000 0.52710  0.72430  0.04080  Biso   1.000  H
  C170     1.0000 0.55327  0.84730  0.06060  Biso   1.000  C
  H115     1.0000 0.56710  0.84450  0.03160  Biso   1.000  H
  C171     1.0000 0.48948  0.76400  0.13050  Biso   1.000  C
  C172     1.0000 0.46598  0.81510  0.15120  Biso   1.000  C
  H116     1.0000 0.46840  0.88010  0.15610  Biso   1.000  H
  C173     1.0000 0.43861  0.77020  0.16480  Biso   1.000  C
  H117     1.0000 0.42280  0.80540  0.17930  Biso   1.000  H
  C174     1.0000 0.43448  0.67540  0.15730  Biso   1.000  C
  C175     1.0000 0.45875  0.62670  0.13570  Biso   1.000  C
  H118     1.0000 0.45630  0.56190  0.12930  Biso   1.000  H
  C176     1.0000 0.48608  0.67070  0.12340  Biso   1.000  C
  H119     1.0000 0.50230  0.63580  0.11000  Biso   1.000  H
  C177     1.0000 0.40173  0.62450  0.15950  Biso   1.000  C
  C178     1.0000 0.42630  0.22400  0.33140  Biso   1.000  C
  H120     1.0000 0.41980  0.20260  0.28510  Biso   1.000  H
  C179     1.0000 0.43960  0.31610  0.42010  Biso   1.000  C
  H121     1.0000 0.44440  0.37020  0.44770  Biso   1.000  H
  C180     1.0000 0.44032  0.22740  0.44210  Biso   1.000  C
  H122     1.0000 0.44550  0.20880  0.48880  Biso   1.000  H
  C181     1.0000 0.42377  0.38960  0.30030  Biso   1.000  C
  C182     1.0000 0.39245  0.39690  0.24990  Biso   1.000  C
  H123     1.0000 0.37530  0.35190  0.24640  Biso   1.000  H
  C183     1.0000 0.38614  0.47110  0.20400  Biso   1.000  C
  H124     1.0000 0.36430  0.47720  0.17020  Biso   1.000  H
  C184     1.0000 0.41127  0.53660  0.20680  Biso   1.000  C
  C185     1.0000 0.44268  0.52770  0.25900  Biso   1.000  C
  H125     1.0000 0.46000  0.57210  0.26230  Biso   1.000  H
  C186     1.0000 0.44914  0.45590  0.30560  Biso   1.000  C
  H126     1.0000 0.47050  0.45150  0.34100  Biso   1.000  H
  C187     1.0000 0.32134  0.62720  0.81740  Biso   1.000  C
  H127     1.0000 0.32150  0.69110  0.82770  Biso   1.000  H
  C188     1.0000 0.33041  0.47800  0.83140  Biso   1.000  C
  H128     1.0000 0.33750  0.41900  0.85090  Biso   1.000  H
  C189     1.0000 0.31248  0.49730  0.76390  Biso   1.000  C
  H129     1.0000 0.30500  0.45240  0.72840  Biso   1.000  H
  C190     1.0000 0.35250  0.57600  0.93840  Biso   1.000  C
  C191     1.0000 0.35406  0.66330  0.96700  Biso   1.000  C
  H130     1.0000 0.34480  0.71470  0.93830  Biso   1.000  H
  C192     1.0000 0.36930  0.67550  0.03790  Biso   1.000  C
  H131     1.0000 0.37030  0.73580  0.05660  Biso   1.000  H
  C193     1.0000 0.38307  0.60220  0.08220  Biso   1.000  C
  C194     1.0000 0.38189  0.51660  0.05230  Biso   1.000  C
  H132     1.0000 0.39150  0.46530  0.08070  Biso   1.000  H
  C195     1.0000 0.36678  0.50300  0.98060  Biso   1.000  C
  H133     1.0000 0.36650  0.44320  0.96140  Biso   1.000  H
  C196     1.0000 0.28417  0.79420  0.28780  Biso   1.000  C
  H134     1.0000 0.27270  0.74140  0.26390  Biso   1.000  H
  C197     1.0000 0.32427  0.90060  0.32870  Biso   1.000  C
  H135     1.0000 0.34480  0.93490  0.33950  Biso   1.000  H
  C198     1.0000 0.29583  0.91940  0.34830  Biso   1.000  C
  H136     1.0000 0.29350  0.97110  0.37490  Biso   1.000  H
  C199     1.0000 0.33767  0.77320  0.25690  Biso   1.000  C
  C200     1.0000 0.32321  0.73190  0.19340  Biso   1.000  C
  H137     1.0000 0.29930  0.73540  0.17110  Biso   1.000  H
  C201     1.0000 0.34347  0.68560  0.16200  Biso   1.000  C
  H138     1.0000 0.33310  0.65550  0.11910  Biso   1.000  H
  C202     1.0000 0.37873  0.68230  0.19200  Biso   1.000  C
  C203     1.0000 0.39300  0.72330  0.25690  Biso   1.000  C
  H139     1.0000 0.41690  0.72030  0.27930  Biso   1.000  H
  C204     1.0000 0.37244  0.76880  0.28930  Biso   1.000  C
  H140     1.0000 0.38240  0.79660  0.33320  Biso   1.000  H
  C205     1.0000 0.22773  0.97280  0.43730  Biso   1.000  C
  C206     1.0000 0.23688  0.99170  0.51430  Biso   1.000  C
  C207     1.0000 0.25012  0.91810  0.56080  Biso   1.000  C
  H141     1.0000 0.25250  0.85820  0.54420  Biso   1.000  H
  C208     1.0000 0.25959  0.93550  0.63160  Biso   1.000  C
  C209     1.0000 0.25595  0.02320  0.65610  Biso   1.000  C
  H142     1.0000 0.26240  0.03420  0.70430  Biso   1.000  H
  C210     1.0000 0.24296  0.09400  0.60990  Biso   1.000  C
  H143     1.0000 0.24040  0.15350  0.62700  Biso   1.000  H
  C211     1.0000 0.23359  0.08000  0.53920  Biso   1.000  C
  H144     1.0000 0.22510  0.12960  0.50810  Biso   1.000  H
  C212     1.0000 0.27420  0.85620  0.68120  Biso   1.000  C
  Zn6      1.0000 0.27665  0.65436  0.67034  Biso   1.000  Zn
  Co7      1.0000 0.08203  0.46583  0.62088  Biso   1.000  Co
  N33      1.0000 0.05272  0.57980  0.60390  Biso   1.000  N
  N34      1.0000 0.01673  0.68850  0.61250  Biso   1.000  N
  N35      1.0000 0.93231  0.33130  0.88590  Biso   1.000  N
  N36      1.0000 0.93034  0.18890  0.84880  Biso   1.000  N
  N37      1.0000 0.80680  0.90880  0.25465  Biso   1.000  N
  N38      1.0000 0.83599  0.93950  0.36499  Biso   1.000  N
  N39      1.0000 0.77129  0.64800  0.82331  Biso   1.000  N
  N40      1.0000 0.81605  0.67860  0.79046  Biso   1.000  N
  O33      1.0000 0.11576  0.47020  0.56881  Biso   1.000  O
  O34      1.0000 0.06618  0.47040  0.48262  Biso   1.000  O
  O35      1.0000 0.11474  0.51340  0.21665  Biso   1.000  O
  O36      1.0000 0.06730  0.53900  0.24474  Biso   1.000  O
  O37      1.0000 0.72299  0.61230  0.91944  Biso   1.000  O
  O38      1.0000 0.72577  0.46200  0.89660  Biso   1.000  O
  O39      1.0000 0.78398  0.71600  0.15560  Biso   1.000  O
  O40      1.0000 0.77492  0.63770  0.24270  Biso   1.000  O
  C213     1.0000 0.09785  0.47000  0.50410  Biso   1.000  C
  C214     1.0000 0.11730  0.46820  0.45170  Biso   1.000  C
  C215     1.0000 0.10107  0.49260  0.38430  Biso   1.000  C
  H145     1.0000 0.07780  0.51080  0.37070  Biso   1.000  H
  C216     1.0000 0.11801  0.49120  0.33490  Biso   1.000  C
  C217     1.0000 0.15194  0.46450  0.35450  Biso   1.000  C
  H146     1.0000 0.16360  0.46360  0.32140  Biso   1.000  H
  C218     1.0000 0.16903  0.43880  0.42270  Biso   1.000  C
  H147     1.0000 0.19210  0.41940  0.43600  Biso   1.000  H
  C219     1.0000 0.15174  0.44200  0.47190  Biso   1.000  C
  H148     1.0000 0.16340  0.42630  0.51860  Biso   1.000  H
  C220     1.0000 0.09812  0.51700  0.26060  Biso   1.000  C
  C221     1.0000 0.03000  0.60630  0.63420  Biso   1.000  C
  H149     1.0000 0.02410  0.57040  0.66750  Biso   1.000  H
  C222     1.0000 0.03144  0.71900  0.56530  Biso   1.000  C
  H150     1.0000 0.02710  0.77570  0.54080  Biso   1.000  H
  C223     1.0000 0.05327  0.65270  0.56060  Biso   1.000  C
  H151     1.0000 0.06710  0.65550  0.53160  Biso   1.000  H
  C224     1.0000 0.98948  0.73600  0.63050  Biso   1.000  C
  C225     1.0000 0.96598  0.68490  0.65120  Biso   1.000  C
  H152     1.0000 0.96840  0.61990  0.65610  Biso   1.000  H
  C226     1.0000 0.93861  0.72980  0.66480  Biso   1.000  C
  H153     1.0000 0.92280  0.69460  0.67930  Biso   1.000  H
  C227     1.0000 0.93448  0.82460  0.65730  Biso   1.000  C
  C228     1.0000 0.95875  0.87330  0.63570  Biso   1.000  C
  H154     1.0000 0.95630  0.93810  0.62930  Biso   1.000  H
  C229     1.0000 0.98608  0.82930  0.62340  Biso   1.000  C
  H155     1.0000 0.00230  0.86420  0.61000  Biso   1.000  H
  C230     1.0000 0.90173  0.87550  0.65950  Biso   1.000  C
  C231     1.0000 0.92630  0.27600  0.83140  Biso   1.000  C
  H156     1.0000 0.91980  0.29740  0.78510  Biso   1.000  H
  C232     1.0000 0.93960  0.18390  0.92010  Biso   1.000  C
  H157     1.0000 0.94440  0.12980  0.94770  Biso   1.000  H
  C233     1.0000 0.94032  0.27260  0.94210  Biso   1.000  C
  H158     1.0000 0.94550  0.29120  0.98880  Biso   1.000  H
  C234     1.0000 0.92377  0.11040  0.80030  Biso   1.000  C
  C235     1.0000 0.89245  0.10310  0.74990  Biso   1.000  C
  H159     1.0000 0.87530  0.14810  0.74640  Biso   1.000  H
  C236     1.0000 0.88614  0.02890  0.70400  Biso   1.000  C
  H160     1.0000 0.86430  0.02280  0.67020  Biso   1.000  H
  C237     1.0000 0.91127  0.96340  0.70680  Biso   1.000  C
  C238     1.0000 0.94268  0.97230  0.75900  Biso   1.000  C
  H161     1.0000 0.96000  0.92790  0.76230  Biso   1.000  H
  C239     1.0000 0.94914  0.04410  0.80560  Biso   1.000  C
  H162     1.0000 0.97050  0.04850  0.84100  Biso   1.000  H
  C240     1.0000 0.82134  0.87280  0.31740  Biso   1.000  C
  H163     1.0000 0.82150  0.80890  0.32770  Biso   1.000  H
  C241     1.0000 0.83041  0.02200  0.33140  Biso   1.000  C
  H164     1.0000 0.83750  0.08100  0.35090  Biso   1.000  H
  C242     1.0000 0.81248  0.00270  0.26390  Biso   1.000  C
  H165     1.0000 0.80500  0.04760  0.22840  Biso   1.000  H
  C243     1.0000 0.85250  0.92400  0.43840  Biso   1.000  C
  C244     1.0000 0.85406  0.83670  0.46700  Biso   1.000  C
  H166     1.0000 0.84480  0.78530  0.43830  Biso   1.000  H
  C245     1.0000 0.86930  0.82450  0.53790  Biso   1.000  C
  H167     1.0000 0.87030  0.76420  0.55660  Biso   1.000  H
  C246     1.0000 0.88307  0.89780  0.58220  Biso   1.000  C
  C247     1.0000 0.88189  0.98340  0.55230  Biso   1.000  C
  H168     1.0000 0.89150  0.03470  0.58070  Biso   1.000  H
  C248     1.0000 0.86678  0.99700  0.48060  Biso   1.000  C
  H169     1.0000 0.86650  0.05680  0.46140  Biso   1.000  H
  C249     1.0000 0.78417  0.70580  0.78780  Biso   1.000  C
  H170     1.0000 0.77270  0.75860  0.76390  Biso   1.000  H
  C250     1.0000 0.82427  0.59940  0.82870  Biso   1.000  C
  H171     1.0000 0.84480  0.56510  0.83950  Biso   1.000  H
  C251     1.0000 0.79583  0.58060  0.84830  Biso   1.000  C
  H172     1.0000 0.79350  0.52890  0.87490  Biso   1.000  H
  C252     1.0000 0.83767  0.72680  0.75690  Biso   1.000  C
  C253     1.0000 0.82321  0.76810  0.69340  Biso   1.000  C
  H173     1.0000 0.79930  0.76460  0.67110  Biso   1.000  H
  C254     1.0000 0.84347  0.81440  0.66200  Biso   1.000  C
  H174     1.0000 0.83310  0.84450  0.61910  Biso   1.000  H
  C255     1.0000 0.87873  0.81770  0.69200  Biso   1.000  C
  C256     1.0000 0.89300  0.77670  0.75690  Biso   1.000  C
  H175     1.0000 0.91690  0.77970  0.77930  Biso   1.000  H
  C257     1.0000 0.87244  0.73120  0.78930  Biso   1.000  C
  H176     1.0000 0.88240  0.70340  0.83320  Biso   1.000  H
  C258     1.0000 0.72773  0.52720  0.93730  Biso   1.000  C
  C259     1.0000 0.73688  0.50830  0.01430  Biso   1.000  C
  C260     1.0000 0.75012  0.58190  0.06080  Biso   1.000  C
  H177     1.0000 0.75250  0.64180  0.04420  Biso   1.000  H
  C261     1.0000 0.75959  0.56450  0.13160  Biso   1.000  C
  C262     1.0000 0.75595  0.47680  0.15610  Biso   1.000  C
  H178     1.0000 0.76240  0.46580  0.20430  Biso   1.000  H
  C263     1.0000 0.74296  0.40600  0.10990  Biso   1.000  C
  H179     1.0000 0.74040  0.34650  0.12700  Biso   1.000  H
  C264     1.0000 0.73359  0.42000  0.03920  Biso   1.000  C
  H180     1.0000 0.72510  0.37040  0.00810  Biso   1.000  H
  C265     1.0000 0.77420  0.64380  0.18120  Biso   1.000  C
  Zn7      1.0000 0.91797  0.46583  0.87912  Biso   1.000  Zn
  Co8      1.0000 0.58203  0.96583  0.62088  Biso   1.000  Co
  N41      1.0000 0.55272  0.07980  0.60390  Biso   1.000  N
  N42      1.0000 0.51673  0.18850  0.61250  Biso   1.000  N
  N43      1.0000 0.43231  0.83130  0.88590  Biso   1.000  N
  N44      1.0000 0.43034  0.68890  0.84880  Biso   1.000  N
  N45      1.0000 0.30680  0.40880  0.25465  Biso   1.000  N
  N46      1.0000 0.33599  0.43950  0.36499  Biso   1.000  N
  N47      1.0000 0.27129  0.14800  0.82331  Biso   1.000  N
  N48      1.0000 0.31605  0.17860  0.79046  Biso   1.000  N
  O41      1.0000 0.61576  0.97020  0.56881  Biso   1.000  O
  O42      1.0000 0.56618  0.97040  0.48262  Biso   1.000  O
  O43      1.0000 0.61474  0.01340  0.21665  Biso   1.000  O
  O44      1.0000 0.56730  0.03900  0.24474  Biso   1.000  O
  O45      1.0000 0.22299  0.11230  0.91944  Biso   1.000  O
  O46      1.0000 0.22577  0.96200  0.89660  Biso   1.000  O
  O47      1.0000 0.28398  0.21600  0.15560  Biso   1.000  O
  O48      1.0000 0.27492  0.13770  0.24270  Biso   1.000  O
  C266     1.0000 0.59785  0.97000  0.50410  Biso   1.000  C
  C267     1.0000 0.61730  0.96820  0.45170  Biso   1.000  C
  C268     1.0000 0.60107  0.99260  0.38430  Biso   1.000  C
  H181     1.0000 0.57780  0.01080  0.37070  Biso   1.000  H
  C269     1.0000 0.61801  0.99120  0.33490  Biso   1.000  C
  C270     1.0000 0.65194  0.96450  0.35450  Biso   1.000  C
  H182     1.0000 0.66360  0.96360  0.32140  Biso   1.000  H
  C271     1.0000 0.66903  0.93880  0.42270  Biso   1.000  C
  H183     1.0000 0.69210  0.91940  0.43600  Biso   1.000  H
  C272     1.0000 0.65174  0.94200  0.47190  Biso   1.000  C
  H184     1.0000 0.66340  0.92630  0.51860  Biso   1.000  H
  C273     1.0000 0.59812  0.01700  0.26060  Biso   1.000  C
  C274     1.0000 0.53000  0.10630  0.63420  Biso   1.000  C
  H185     1.0000 0.52410  0.07040  0.66750  Biso   1.000  H
  C275     1.0000 0.53144  0.21900  0.56530  Biso   1.000  C
  H186     1.0000 0.52710  0.27570  0.54080  Biso   1.000  H
  C276     1.0000 0.55327  0.15270  0.56060  Biso   1.000  C
  H187     1.0000 0.56710  0.15550  0.53160  Biso   1.000  H
  C277     1.0000 0.48948  0.23600  0.63050  Biso   1.000  C
  C278     1.0000 0.46598  0.18490  0.65120  Biso   1.000  C
  H188     1.0000 0.46840  0.11990  0.65610  Biso   1.000  H
  C279     1.0000 0.43861  0.22980  0.66480  Biso   1.000  C
  H189     1.0000 0.42280  0.19460  0.67930  Biso   1.000  H
  C280     1.0000 0.43448  0.32460  0.65730  Biso   1.000  C
  C281     1.0000 0.45875  0.37330  0.63570  Biso   1.000  C
  H190     1.0000 0.45630  0.43810  0.62930  Biso   1.000  H
  C282     1.0000 0.48608  0.32930  0.62340  Biso   1.000  C
  H191     1.0000 0.50230  0.36420  0.61000  Biso   1.000  H
  C283     1.0000 0.40173  0.37550  0.65950  Biso   1.000  C
  C284     1.0000 0.42630  0.77600  0.83140  Biso   1.000  C
  H192     1.0000 0.41980  0.79740  0.78510  Biso   1.000  H
  C285     1.0000 0.43960  0.68390  0.92010  Biso   1.000  C
  H193     1.0000 0.44440  0.62980  0.94770  Biso   1.000  H
  C286     1.0000 0.44032  0.77260  0.94210  Biso   1.000  C
  H194     1.0000 0.44550  0.79120  0.98880  Biso   1.000  H
  C287     1.0000 0.42377  0.61040  0.80030  Biso   1.000  C
  C288     1.0000 0.39245  0.60310  0.74990  Biso   1.000  C
  H195     1.0000 0.37530  0.64810  0.74640  Biso   1.000  H
  C289     1.0000 0.38614  0.52890  0.70400  Biso   1.000  C
  H196     1.0000 0.36430  0.52280  0.67020  Biso   1.000  H
  C290     1.0000 0.41127  0.46340  0.70680  Biso   1.000  C
  C291     1.0000 0.44268  0.47230  0.75900  Biso   1.000  C
  H197     1.0000 0.46000  0.42790  0.76230  Biso   1.000  H
  C292     1.0000 0.44914  0.54410  0.80560  Biso   1.000  C
  H198     1.0000 0.47050  0.54850  0.84100  Biso   1.000  H
  C293     1.0000 0.32134  0.37280  0.31740  Biso   1.000  C
  H199     1.0000 0.32150  0.30890  0.32770  Biso   1.000  H
  C294     1.0000 0.33041  0.52200  0.33140  Biso   1.000  C
  H200     1.0000 0.33750  0.58100  0.35090  Biso   1.000  H
  C295     1.0000 0.31248  0.50270  0.26390  Biso   1.000  C
  H201     1.0000 0.30500  0.54760  0.22840  Biso   1.000  H
  C296     1.0000 0.35250  0.42400  0.43840  Biso   1.000  C
  C297     1.0000 0.35406  0.33670  0.46700  Biso   1.000  C
  H202     1.0000 0.34480  0.28530  0.43830  Biso   1.000  H
  C298     1.0000 0.36930  0.32450  0.53790  Biso   1.000  C
  H203     1.0000 0.37030  0.26420  0.55660  Biso   1.000  H
  C299     1.0000 0.38307  0.39780  0.58220  Biso   1.000  C
  C300     1.0000 0.38189  0.48340  0.55230  Biso   1.000  C
  H204     1.0000 0.39150  0.53470  0.58070  Biso   1.000  H
  C301     1.0000 0.36678  0.49700  0.48060  Biso   1.000  C
  H205     1.0000 0.36650  0.55680  0.46140  Biso   1.000  H
  C302     1.0000 0.28417  0.20580  0.78780  Biso   1.000  C
  H206     1.0000 0.27270  0.25860  0.76390  Biso   1.000  H
  C303     1.0000 0.32427  0.09940  0.82870  Biso   1.000  C
  H207     1.0000 0.34480  0.06510  0.83950  Biso   1.000  H
  C304     1.0000 0.29583  0.08060  0.84830  Biso   1.000  C
  H208     1.0000 0.29350  0.02890  0.87490  Biso   1.000  H
  C305     1.0000 0.33767  0.22680  0.75690  Biso   1.000  C
  C306     1.0000 0.32321  0.26810  0.69340  Biso   1.000  C
  H209     1.0000 0.29930  0.26460  0.67110  Biso   1.000  H
  C307     1.0000 0.34347  0.31440  0.66200  Biso   1.000  C
  H210     1.0000 0.33310  0.34450  0.61910  Biso   1.000  H
  C308     1.0000 0.37873  0.31770  0.69200  Biso   1.000  C
  C309     1.0000 0.39300  0.27670  0.75690  Biso   1.000  C
  H211     1.0000 0.41690  0.27970  0.77930  Biso   1.000  H
  C310     1.0000 0.37244  0.23120  0.78930  Biso   1.000  C
  H212     1.0000 0.38240  0.20340  0.83320  Biso   1.000  H
  C311     1.0000 0.22773  0.02720  0.93730  Biso   1.000  C
  C312     1.0000 0.23688  0.00830  0.01430  Biso   1.000  C
  C313     1.0000 0.25012  0.08190  0.06080  Biso   1.000  C
  H213     1.0000 0.25250  0.14180  0.04420  Biso   1.000  H
  C314     1.0000 0.25959  0.06450  0.13160  Biso   1.000  C
  C315     1.0000 0.25595  0.97680  0.15610  Biso   1.000  C
  H214     1.0000 0.26240  0.96580  0.20430  Biso   1.000  H
  C316     1.0000 0.24296  0.90600  0.10990  Biso   1.000  C
  H215     1.0000 0.24040  0.84650  0.12700  Biso   1.000  H
  C317     1.0000 0.23359  0.92000  0.03920  Biso   1.000  C
  H216     1.0000 0.22510  0.87040  0.00810  Biso   1.000  H
  C318     1.0000 0.27420  0.14380  0.18120  Biso   1.000  C
  Zn8      1.0000 0.41797  0.96583  0.87912  Biso   1.000  Zn
  N49      1.0000 0.94728  0.57980  0.89610  Biso   1.000  N
  N50      1.0000 0.98327  0.68850  0.88750  Biso   1.000  N
  N51      1.0000 0.06769  0.33130  0.61410  Biso   1.000  N
  N52      1.0000 0.06966  0.18890  0.65120  Biso   1.000  N
  N53      1.0000 0.19320  0.90880  0.24535  Biso   1.000  N
  N54      1.0000 0.16401  0.93950  0.13501  Biso   1.000  N
  N55      1.0000 0.22871  0.64800  0.67669  Biso   1.000  N
  N56      1.0000 0.18395  0.67860  0.70954  Biso   1.000  N
  O49      1.0000 0.88424  0.47020  0.93119  Biso   1.000  O
  O50      1.0000 0.93382  0.47040  0.01738  Biso   1.000  O
  O51      1.0000 0.88526  0.51340  0.28335  Biso   1.000  O
  O52      1.0000 0.93270  0.53900  0.25526  Biso   1.000  O
  O53      1.0000 0.27701  0.61230  0.58056  Biso   1.000  O
  O54      1.0000 0.27423  0.46200  0.60340  Biso   1.000  O
  O55      1.0000 0.21602  0.71600  0.34440  Biso   1.000  O
  O56      1.0000 0.22508  0.63770  0.25730  Biso   1.000  O
  C319     1.0000 0.90215  0.47000  0.99590  Biso   1.000  C
  C320     1.0000 0.88270  0.46820  0.04830  Biso   1.000  C
  C321     1.0000 0.89893  0.49260  0.11570  Biso   1.000  C
  H217     1.0000 0.92220  0.51080  0.12930  Biso   1.000  H
  C322     1.0000 0.88199  0.49120  0.16510  Biso   1.000  C
  C323     1.0000 0.84806  0.46450  0.14550  Biso   1.000  C
  H218     1.0000 0.83640  0.46360  0.17860  Biso   1.000  H
  C324     1.0000 0.83097  0.43880  0.07730  Biso   1.000  C
  H219     1.0000 0.80790  0.41940  0.06400  Biso   1.000  H
  C325     1.0000 0.84826  0.44200  0.02810  Biso   1.000  C
  H220     1.0000 0.83660  0.42630  0.98140  Biso   1.000  H
  C326     1.0000 0.90188  0.51700  0.23940  Biso   1.000  C
  C327     1.0000 0.97000  0.60630  0.86580  Biso   1.000  C
  H221     1.0000 0.97590  0.57040  0.83250  Biso   1.000  H
  C328     1.0000 0.96856  0.71900  0.93470  Biso   1.000  C
  H222     1.0000 0.97290  0.77570  0.95920  Biso   1.000  H
  C329     1.0000 0.94673  0.65270  0.93940  Biso   1.000  C
  H223     1.0000 0.93290  0.65550  0.96840  Biso   1.000  H
  C330     1.0000 0.01052  0.73600  0.86950  Biso   1.000  C
  C331     1.0000 0.03402  0.68490  0.84880  Biso   1.000  C
  H224     1.0000 0.03160  0.61990  0.84390  Biso   1.000  H
  C332     1.0000 0.06139  0.72980  0.83520  Biso   1.000  C
  H225     1.0000 0.07720  0.69460  0.82070  Biso   1.000  H
  C333     1.0000 0.06552  0.82460  0.84270  Biso   1.000  C
  C334     1.0000 0.04125  0.87330  0.86430  Biso   1.000  C
  H226     1.0000 0.04370  0.93810  0.87070  Biso   1.000  H
  C335     1.0000 0.01392  0.82930  0.87660  Biso   1.000  C
  H227     1.0000 0.99770  0.86420  0.89000  Biso   1.000  H
  C336     1.0000 0.09827  0.87550  0.84050  Biso   1.000  C
  C337     1.0000 0.07370  0.27600  0.66860  Biso   1.000  C
  H228     1.0000 0.08020  0.29740  0.71490  Biso   1.000  H
  C338     1.0000 0.06040  0.18390  0.57990  Biso   1.000  C
  H229     1.0000 0.05560  0.12980  0.55230  Biso   1.000  H
  C339     1.0000 0.05968  0.27260  0.55790  Biso   1.000  C
  H230     1.0000 0.05450  0.29120  0.51120  Biso   1.000  H
  C340     1.0000 0.07623  0.11040  0.69970  Biso   1.000  C
  C341     1.0000 0.10755  0.10310  0.75010  Biso   1.000  C
  H231     1.0000 0.12470  0.14810  0.75360  Biso   1.000  H
  C342     1.0000 0.11386  0.02890  0.79600  Biso   1.000  C
  H232     1.0000 0.13570  0.02280  0.82980  Biso   1.000  H
  C343     1.0000 0.08873  0.96340  0.79320  Biso   1.000  C
  C344     1.0000 0.05732  0.97230  0.74100  Biso   1.000  C
  H233     1.0000 0.04000  0.92790  0.73770  Biso   1.000  H
  C345     1.0000 0.05086  0.04410  0.69440  Biso   1.000  C
  H234     1.0000 0.02950  0.04850  0.65900  Biso   1.000  H
  C346     1.0000 0.17866  0.87280  0.18260  Biso   1.000  C
  H235     1.0000 0.17850  0.80890  0.17230  Biso   1.000  H
  C347     1.0000 0.16959  0.02200  0.16860  Biso   1.000  C
  H236     1.0000 0.16250  0.08100  0.14910  Biso   1.000  H
  C348     1.0000 0.18752  0.00270  0.23610  Biso   1.000  C
  H237     1.0000 0.19500  0.04760  0.27160  Biso   1.000  H
  C349     1.0000 0.14750  0.92400  0.06160  Biso   1.000  C
  C350     1.0000 0.14594  0.83670  0.03300  Biso   1.000  C
  H238     1.0000 0.15520  0.78530  0.06170  Biso   1.000  H
  C351     1.0000 0.13070  0.82450  0.96210  Biso   1.000  C
  H239     1.0000 0.12970  0.76420  0.94340  Biso   1.000  H
  C352     1.0000 0.11693  0.89780  0.91780  Biso   1.000  C
  C353     1.0000 0.11811  0.98340  0.94770  Biso   1.000  C
  H240     1.0000 0.10850  0.03470  0.91930  Biso   1.000  H
  C354     1.0000 0.13322  0.99700  0.01940  Biso   1.000  C
  H241     1.0000 0.13350  0.05680  0.03860  Biso   1.000  H
  C355     1.0000 0.21583  0.70580  0.71220  Biso   1.000  C
  H242     1.0000 0.22730  0.75860  0.73610  Biso   1.000  H
  C356     1.0000 0.17573  0.59940  0.67130  Biso   1.000  C
  H243     1.0000 0.15520  0.56510  0.66050  Biso   1.000  H
  C357     1.0000 0.20417  0.58060  0.65170  Biso   1.000  C
  H244     1.0000 0.20650  0.52890  0.62510  Biso   1.000  H
  C358     1.0000 0.16233  0.72680  0.74310  Biso   1.000  C
  C359     1.0000 0.17679  0.76810  0.80660  Biso   1.000  C
  H245     1.0000 0.20070  0.76460  0.82890  Biso   1.000  H
  C360     1.0000 0.15653  0.81440  0.83800  Biso   1.000  C
  H246     1.0000 0.16690  0.84450  0.88090  Biso   1.000  H
  C361     1.0000 0.12127  0.81770  0.80800  Biso   1.000  C
  C362     1.0000 0.10700  0.77670  0.74310  Biso   1.000  C
  H247     1.0000 0.08310  0.77970  0.72070  Biso   1.000  H
  C363     1.0000 0.12756  0.73120  0.71070  Biso   1.000  C
  H248     1.0000 0.11760  0.70340  0.66680  Biso   1.000  H
  C364     1.0000 0.27227  0.52720  0.56270  Biso   1.000  C
  C365     1.0000 0.26312  0.50830  0.48570  Biso   1.000  C
  C366     1.0000 0.24988  0.58190  0.43920  Biso   1.000  C
  H249     1.0000 0.24750  0.64180  0.45580  Biso   1.000  H
  C367     1.0000 0.24041  0.56450  0.36840  Biso   1.000  C
  C368     1.0000 0.24405  0.47680  0.34390  Biso   1.000  C
  H250     1.0000 0.23760  0.46580  0.29570  Biso   1.000  H
  C369     1.0000 0.25704  0.40600  0.39010  Biso   1.000  C
  H251     1.0000 0.25960  0.34650  0.37300  Biso   1.000  H
  C370     1.0000 0.26641  0.42000  0.46080  Biso   1.000  C
  H252     1.0000 0.27490  0.37040  0.49190  Biso   1.000  H
  C371     1.0000 0.22580  0.64380  0.31880  Biso   1.000  C
  N57      1.0000 0.44728  0.07980  0.89610  Biso   1.000  N
  N58      1.0000 0.48327  0.18850  0.88750  Biso   1.000  N
  N59      1.0000 0.56769  0.83130  0.61410  Biso   1.000  N
  N60      1.0000 0.56966  0.68890  0.65120  Biso   1.000  N
  N61      1.0000 0.69320  0.40880  0.24535  Biso   1.000  N
  N62      1.0000 0.66401  0.43950  0.13501  Biso   1.000  N
  N63      1.0000 0.72871  0.14800  0.67669  Biso   1.000  N
  N64      1.0000 0.68395  0.17860  0.70954  Biso   1.000  N
  O57      1.0000 0.38424  0.97020  0.93119  Biso   1.000  O
  O58      1.0000 0.43382  0.97040  0.01738  Biso   1.000  O
  O59      1.0000 0.38526  0.01340  0.28335  Biso   1.000  O
  O60      1.0000 0.43270  0.03900  0.25526  Biso   1.000  O
  O61      1.0000 0.77701  0.11230  0.58056  Biso   1.000  O
  O62      1.0000 0.77423  0.96200  0.60340  Biso   1.000  O
  O63      1.0000 0.71602  0.21600  0.34440  Biso   1.000  O
  O64      1.0000 0.72508  0.13770  0.25730  Biso   1.000  O
  C372     1.0000 0.40215  0.97000  0.99590  Biso   1.000  C
  C373     1.0000 0.38270  0.96820  0.04830  Biso   1.000  C
  C374     1.0000 0.39893  0.99260  0.11570  Biso   1.000  C
  H253     1.0000 0.42220  0.01080  0.12930  Biso   1.000  H
  C375     1.0000 0.38199  0.99120  0.16510  Biso   1.000  C
  C376     1.0000 0.34806  0.96450  0.14550  Biso   1.000  C
  H254     1.0000 0.33640  0.96360  0.17860  Biso   1.000  H
  C377     1.0000 0.33097  0.93880  0.07730  Biso   1.000  C
  H255     1.0000 0.30790  0.91940  0.06400  Biso   1.000  H
  C378     1.0000 0.34826  0.94200  0.02810  Biso   1.000  C
  H256     1.0000 0.33660  0.92630  0.98140  Biso   1.000  H
  C379     1.0000 0.40188  0.01700  0.23940  Biso   1.000  C
  C380     1.0000 0.47000  0.10630  0.86580  Biso   1.000  C
  H257     1.0000 0.47590  0.07040  0.83250  Biso   1.000  H
  C381     1.0000 0.46856  0.21900  0.93470  Biso   1.000  C
  H258     1.0000 0.47290  0.27570  0.95920  Biso   1.000  H
  C382     1.0000 0.44673  0.15270  0.93940  Biso   1.000  C
  H259     1.0000 0.43290  0.15550  0.96840  Biso   1.000  H
  C383     1.0000 0.51052  0.23600  0.86950  Biso   1.000  C
  C384     1.0000 0.53402  0.18490  0.84880  Biso   1.000  C
  H260     1.0000 0.53160  0.11990  0.84390  Biso   1.000  H
  C385     1.0000 0.56139  0.22980  0.83520  Biso   1.000  C
  H261     1.0000 0.57720  0.19460  0.82070  Biso   1.000  H
  C386     1.0000 0.56552  0.32460  0.84270  Biso   1.000  C
  C387     1.0000 0.54125  0.37330  0.86430  Biso   1.000  C
  H262     1.0000 0.54370  0.43810  0.87070  Biso   1.000  H
  C388     1.0000 0.51392  0.32930  0.87660  Biso   1.000  C
  H263     1.0000 0.49770  0.36420  0.89000  Biso   1.000  H
  C389     1.0000 0.59827  0.37550  0.84050  Biso   1.000  C
  C390     1.0000 0.57370  0.77600  0.66860  Biso   1.000  C
  H264     1.0000 0.58020  0.79740  0.71490  Biso   1.000  H
  C391     1.0000 0.56040  0.68390  0.57990  Biso   1.000  C
  H265     1.0000 0.55560  0.62980  0.55230  Biso   1.000  H
  C392     1.0000 0.55968  0.77260  0.55790  Biso   1.000  C
  H266     1.0000 0.55450  0.79120  0.51120  Biso   1.000  H
  C393     1.0000 0.57623  0.61040  0.69970  Biso   1.000  C
  C394     1.0000 0.60755  0.60310  0.75010  Biso   1.000  C
  H267     1.0000 0.62470  0.64810  0.75360  Biso   1.000  H
  C395     1.0000 0.61386  0.52890  0.79600  Biso   1.000  C
  H268     1.0000 0.63570  0.52280  0.82980  Biso   1.000  H
  C396     1.0000 0.58873  0.46340  0.79320  Biso   1.000  C
  C397     1.0000 0.55732  0.47230  0.74100  Biso   1.000  C
  H269     1.0000 0.54000  0.42790  0.73770  Biso   1.000  H
  C398     1.0000 0.55086  0.54410  0.69440  Biso   1.000  C
  H270     1.0000 0.52950  0.54850  0.65900  Biso   1.000  H
  C399     1.0000 0.67866  0.37280  0.18260  Biso   1.000  C
  H271     1.0000 0.67850  0.30890  0.17230  Biso   1.000  H
  C400     1.0000 0.66959  0.52200  0.16860  Biso   1.000  C
  H272     1.0000 0.66250  0.58100  0.14910  Biso   1.000  H
  C401     1.0000 0.68752  0.50270  0.23610  Biso   1.000  C
  H273     1.0000 0.69500  0.54760  0.27160  Biso   1.000  H
  C402     1.0000 0.64750  0.42400  0.06160  Biso   1.000  C
  C403     1.0000 0.64594  0.33670  0.03300  Biso   1.000  C
  H274     1.0000 0.65520  0.28530  0.06170  Biso   1.000  H
  C404     1.0000 0.63070  0.32450  0.96210  Biso   1.000  C
  H275     1.0000 0.62970  0.26420  0.94340  Biso   1.000  H
  C405     1.0000 0.61693  0.39780  0.91780  Biso   1.000  C
  C406     1.0000 0.61811  0.48340  0.94770  Biso   1.000  C
  H276     1.0000 0.60850  0.53470  0.91930  Biso   1.000  H
  C407     1.0000 0.63322  0.49700  0.01940  Biso   1.000  C
  H277     1.0000 0.63350  0.55680  0.03860  Biso   1.000  H
  C408     1.0000 0.71583  0.20580  0.71220  Biso   1.000  C
  H278     1.0000 0.72730  0.25860  0.73610  Biso   1.000  H
  C409     1.0000 0.67573  0.09940  0.67130  Biso   1.000  C
  H279     1.0000 0.65520  0.06510  0.66050  Biso   1.000  H
  C410     1.0000 0.70417  0.08060  0.65170  Biso   1.000  C
  H280     1.0000 0.70650  0.02890  0.62510  Biso   1.000  H
  C411     1.0000 0.66233  0.22680  0.74310  Biso   1.000  C
  C412     1.0000 0.67679  0.26810  0.80660  Biso   1.000  C
  H281     1.0000 0.70070  0.26460  0.82890  Biso   1.000  H
  C413     1.0000 0.65653  0.31440  0.83800  Biso   1.000  C
  H282     1.0000 0.66690  0.34450  0.88090  Biso   1.000  H
  C414     1.0000 0.62127  0.31770  0.80800  Biso   1.000  C
  C415     1.0000 0.60700  0.27670  0.74310  Biso   1.000  C
  H283     1.0000 0.58310  0.27970  0.72070  Biso   1.000  H
  C416     1.0000 0.62756  0.23120  0.71070  Biso   1.000  C
  H284     1.0000 0.61760  0.20340  0.66680  Biso   1.000  H
  C417     1.0000 0.77227  0.02720  0.56270  Biso   1.000  C
  C418     1.0000 0.76312  0.00830  0.48570  Biso   1.000  C
  C419     1.0000 0.74988  0.08190  0.43920  Biso   1.000  C
  H285     1.0000 0.74750  0.14180  0.45580  Biso   1.000  H
  C420     1.0000 0.74041  0.06450  0.36840  Biso   1.000  C
  C421     1.0000 0.74405  0.97680  0.34390  Biso   1.000  C
  H286     1.0000 0.73760  0.96580  0.29570  Biso   1.000  H
  C422     1.0000 0.75704  0.90600  0.39010  Biso   1.000  C
  H287     1.0000 0.75960  0.84650  0.37300  Biso   1.000  H
  C423     1.0000 0.76641  0.92000  0.46080  Biso   1.000  C
  H288     1.0000 0.77490  0.87040  0.49190  Biso   1.000  H
  C424     1.0000 0.72580  0.14380  0.31880  Biso   1.000  C
