data_image0
_cell_length_a       49.92
_cell_length_b       49.92
_cell_length_c       16.195
_cell_angle_alpha    90
_cell_angle_beta     90
_cell_angle_gamma    120

_symmetry_space_group_name_H-M    "P 1"
_symmetry_int_tables_number       1

loop_
  _symmetry_equiv_pos_as_xyz
  'x, y, z'

loop_
  _atom_site_label
  _atom_site_occupancy
  _atom_site_fract_x
  _atom_site_fract_y
  _atom_site_fract_z
  _atom_site_thermal_displace_type
  _atom_site_B_iso_or_equiv
  _atom_site_type_symbol
  O1       1.0000 0.51681  0.08157  0.07241  Biso   1.000  O
  O2       1.0000 0.47708  0.04667  0.14781  Biso   1.000  O
  C1       1.0000 0.49728  0.07573  0.13295  Biso   1.000  C
  C2       1.0000 0.49915  0.10284  0.18222  Biso   1.000  C
  C3       1.0000 0.47376  0.09887  0.22750  Biso   1.000  C
  C4       1.0000 0.47545  0.12346  0.27218  Biso   1.000  C
  C5       1.0000 0.50223  0.15226  0.27269  Biso   1.000  C
  C6       1.0000 0.52793  0.15597  0.22628  Biso   1.000  C
  C7       1.0000 0.52623  0.13139  0.18161  Biso   1.000  C
  C8       1.0000 0.50336  0.17834  0.32150  Biso   1.000  C
  C9       1.0000 0.47618  0.17852  0.33902  Biso   1.000  C
  C10      1.0000 0.47722  0.20269  0.38425  Biso   1.000  C
  C11      1.0000 0.50541  0.22670  0.41202  Biso   1.000  C
  C12      1.0000 0.53261  0.22650  0.39446  Biso   1.000  C
  C13      1.0000 0.53157  0.20233  0.34922  Biso   1.000  C
  H1       1.0000 0.45427  0.07834  0.22794  Biso   1.000  H
  H2       1.0000 0.45718  0.12060  0.30475  Biso   1.000  H
  H3       1.0000 0.54752  0.17642  0.22545  Biso   1.000  H
  H4       1.0000 0.54450  0.13425  0.14903  Biso   1.000  H
  H5       1.0000 0.45589  0.16126  0.31907  Biso   1.000  H
  H6       1.0000 0.45766  0.20279  0.39681  Biso   1.000  H
  H7       1.0000 0.55291  0.24375  0.41438  Biso   1.000  H
  H8       1.0000 0.55112  0.20220  0.33662  Biso   1.000  H
  F1       1.0000 0.49852  0.02672  0.39491  Biso   1.000  F
  O3       1.0000 0.91843  0.43524  0.07241  Biso   1.000  O
  O4       1.0000 0.95333  0.43041  0.14781  Biso   1.000  O
  C14      1.0000 0.92427  0.42155  0.13295  Biso   1.000  C
  C15      1.0000 0.89716  0.39631  0.18222  Biso   1.000  C
  C16      1.0000 0.90113  0.37489  0.22750  Biso   1.000  C
  C17      1.0000 0.87654  0.35199  0.27218  Biso   1.000  C
  C18      1.0000 0.84774  0.34997  0.27269  Biso   1.000  C
  C19      1.0000 0.84403  0.37196  0.22628  Biso   1.000  C
  C20      1.0000 0.86861  0.39484  0.18161  Biso   1.000  C
  C21      1.0000 0.82166  0.32502  0.32150  Biso   1.000  C
  C22      1.0000 0.82148  0.29766  0.33902  Biso   1.000  C
  C23      1.0000 0.79731  0.27453  0.38425  Biso   1.000  C
  C24      1.0000 0.77330  0.27871  0.41202  Biso   1.000  C
  C25      1.0000 0.77350  0.30611  0.39446  Biso   1.000  C
  C26      1.0000 0.79767  0.32924  0.34922  Biso   1.000  C
  H9       1.0000 0.92166  0.37593  0.22794  Biso   1.000  H
  H10      1.0000 0.87940  0.33658  0.30475  Biso   1.000  H
  H11      1.0000 0.82358  0.37110  0.22545  Biso   1.000  H
  H12      1.0000 0.86575  0.41025  0.14903  Biso   1.000  H
  H13      1.0000 0.83874  0.29463  0.31907  Biso   1.000  H
  H14      1.0000 0.79721  0.25487  0.39681  Biso   1.000  H
  H15      1.0000 0.75625  0.30916  0.41438  Biso   1.000  H
  H16      1.0000 0.79780  0.34892  0.33662  Biso   1.000  H
  F2       1.0000 0.97328  0.47180  0.39491  Biso   1.000  F
  O5       1.0000 0.56476  0.48319  0.07241  Biso   1.000  O
  O6       1.0000 0.56959  0.52292  0.14781  Biso   1.000  O
  C27      1.0000 0.57845  0.50272  0.13295  Biso   1.000  C
  C28      1.0000 0.60369  0.50085  0.18222  Biso   1.000  C
  C29      1.0000 0.62511  0.52624  0.22750  Biso   1.000  C
  C30      1.0000 0.64801  0.52455  0.27218  Biso   1.000  C
  C31      1.0000 0.65003  0.49777  0.27269  Biso   1.000  C
  C32      1.0000 0.62804  0.47207  0.22628  Biso   1.000  C
  C33      1.0000 0.60516  0.47377  0.18161  Biso   1.000  C
  C34      1.0000 0.67498  0.49664  0.32150  Biso   1.000  C
  C35      1.0000 0.70234  0.52382  0.33902  Biso   1.000  C
  C36      1.0000 0.72547  0.52278  0.38425  Biso   1.000  C
  C37      1.0000 0.72129  0.49459  0.41202  Biso   1.000  C
  C38      1.0000 0.69389  0.46739  0.39446  Biso   1.000  C
  C39      1.0000 0.67076  0.46843  0.34922  Biso   1.000  C
  H17      1.0000 0.62407  0.54573  0.22794  Biso   1.000  H
  H18      1.0000 0.66342  0.54282  0.30475  Biso   1.000  H
  H19      1.0000 0.62890  0.45248  0.22545  Biso   1.000  H
  H20      1.0000 0.58975  0.45550  0.14903  Biso   1.000  H
  H21      1.0000 0.70537  0.54411  0.31907  Biso   1.000  H
  H22      1.0000 0.74513  0.54234  0.39681  Biso   1.000  H
  H23      1.0000 0.69084  0.44709  0.41438  Biso   1.000  H
  H24      1.0000 0.65108  0.44888  0.33662  Biso   1.000  H
  F3       1.0000 0.52820  0.50148  0.39491  Biso   1.000  F
  O7       1.0000 0.48319  0.91843  0.07241  Biso   1.000  O
  O8       1.0000 0.52292  0.95333  0.14781  Biso   1.000  O
  C40      1.0000 0.50272  0.92427  0.13295  Biso   1.000  C
  C41      1.0000 0.50085  0.89716  0.18222  Biso   1.000  C
  C42      1.0000 0.52624  0.90113  0.22750  Biso   1.000  C
  C43      1.0000 0.52455  0.87654  0.27218  Biso   1.000  C
  C44      1.0000 0.49777  0.84774  0.27269  Biso   1.000  C
  C45      1.0000 0.47207  0.84403  0.22628  Biso   1.000  C
  C46      1.0000 0.47377  0.86861  0.18161  Biso   1.000  C
  C47      1.0000 0.49664  0.82166  0.32150  Biso   1.000  C
  C48      1.0000 0.52382  0.82148  0.33902  Biso   1.000  C
  C49      1.0000 0.52278  0.79731  0.38425  Biso   1.000  C
  C50      1.0000 0.49459  0.77330  0.41202  Biso   1.000  C
  C51      1.0000 0.46739  0.77350  0.39446  Biso   1.000  C
  C52      1.0000 0.46843  0.79767  0.34922  Biso   1.000  C
  H25      1.0000 0.54573  0.92166  0.22794  Biso   1.000  H
  H26      1.0000 0.54282  0.87940  0.30475  Biso   1.000  H
  H27      1.0000 0.45248  0.82358  0.22545  Biso   1.000  H
  H28      1.0000 0.45550  0.86575  0.14903  Biso   1.000  H
  H29      1.0000 0.54411  0.83874  0.31907  Biso   1.000  H
  H30      1.0000 0.54234  0.79721  0.39681  Biso   1.000  H
  H31      1.0000 0.44709  0.75625  0.41438  Biso   1.000  H
  H32      1.0000 0.44888  0.79780  0.33662  Biso   1.000  H
  F4       1.0000 0.50148  0.97328  0.39491  Biso   1.000  F
  O9       1.0000 0.08157  0.56476  0.07241  Biso   1.000  O
  O10      1.0000 0.04667  0.56959  0.14781  Biso   1.000  O
  C53      1.0000 0.07573  0.57845  0.13295  Biso   1.000  C
  C54      1.0000 0.10284  0.60369  0.18222  Biso   1.000  C
  C55      1.0000 0.09887  0.62511  0.22750  Biso   1.000  C
  C56      1.0000 0.12346  0.64801  0.27218  Biso   1.000  C
  C57      1.0000 0.15226  0.65003  0.27269  Biso   1.000  C
  C58      1.0000 0.15597  0.62804  0.22628  Biso   1.000  C
  C59      1.0000 0.13139  0.60516  0.18161  Biso   1.000  C
  C60      1.0000 0.17834  0.67498  0.32150  Biso   1.000  C
  C61      1.0000 0.17852  0.70234  0.33902  Biso   1.000  C
  C62      1.0000 0.20269  0.72547  0.38425  Biso   1.000  C
  C63      1.0000 0.22670  0.72129  0.41202  Biso   1.000  C
  C64      1.0000 0.22650  0.69389  0.39446  Biso   1.000  C
  C65      1.0000 0.20233  0.67076  0.34922  Biso   1.000  C
  H33      1.0000 0.07834  0.62407  0.22794  Biso   1.000  H
  H34      1.0000 0.12060  0.66342  0.30475  Biso   1.000  H
  H35      1.0000 0.17642  0.62890  0.22545  Biso   1.000  H
  H36      1.0000 0.13425  0.58975  0.14903  Biso   1.000  H
  H37      1.0000 0.16126  0.70537  0.31907  Biso   1.000  H
  H38      1.0000 0.20279  0.74513  0.39681  Biso   1.000  H
  H39      1.0000 0.24375  0.69084  0.41438  Biso   1.000  H
  H40      1.0000 0.20220  0.65108  0.33662  Biso   1.000  H
  F5       1.0000 0.02672  0.52820  0.39491  Biso   1.000  F
  O11      1.0000 0.43524  0.51681  0.07241  Biso   1.000  O
  O12      1.0000 0.43041  0.47708  0.14781  Biso   1.000  O
  C66      1.0000 0.42155  0.49728  0.13295  Biso   1.000  C
  C67      1.0000 0.39631  0.49915  0.18222  Biso   1.000  C
  C68      1.0000 0.37489  0.47376  0.22750  Biso   1.000  C
  C69      1.0000 0.35199  0.47545  0.27218  Biso   1.000  C
  C70      1.0000 0.34997  0.50223  0.27269  Biso   1.000  C
  C71      1.0000 0.37196  0.52793  0.22628  Biso   1.000  C
  C72      1.0000 0.39484  0.52623  0.18161  Biso   1.000  C
  C73      1.0000 0.32502  0.50336  0.32150  Biso   1.000  C
  C74      1.0000 0.29766  0.47618  0.33902  Biso   1.000  C
  C75      1.0000 0.27453  0.47722  0.38425  Biso   1.000  C
  C76      1.0000 0.27871  0.50541  0.41202  Biso   1.000  C
  C77      1.0000 0.30611  0.53261  0.39446  Biso   1.000  C
  C78      1.0000 0.32924  0.53157  0.34922  Biso   1.000  C
  H41      1.0000 0.37593  0.45427  0.22794  Biso   1.000  H
  H42      1.0000 0.33658  0.45718  0.30475  Biso   1.000  H
  H43      1.0000 0.37110  0.54752  0.22545  Biso   1.000  H
  H44      1.0000 0.41025  0.54450  0.14903  Biso   1.000  H
  H45      1.0000 0.29463  0.45589  0.31907  Biso   1.000  H
  H46      1.0000 0.25487  0.45766  0.39681  Biso   1.000  H
  H47      1.0000 0.30916  0.55291  0.41438  Biso   1.000  H
  H48      1.0000 0.34892  0.55112  0.33662  Biso   1.000  H
  F6       1.0000 0.47180  0.49852  0.39491  Biso   1.000  F
  O13      1.0000 0.08157  0.51681  0.92759  Biso   1.000  O
  O14      1.0000 0.04667  0.47708  0.85219  Biso   1.000  O
  C79      1.0000 0.07573  0.49728  0.86705  Biso   1.000  C
  C80      1.0000 0.10284  0.49915  0.81778  Biso   1.000  C
  C81      1.0000 0.09887  0.47376  0.77250  Biso   1.000  C
  C82      1.0000 0.12346  0.47545  0.72782  Biso   1.000  C
  C83      1.0000 0.15226  0.50223  0.72731  Biso   1.000  C
  C84      1.0000 0.15597  0.52793  0.77372  Biso   1.000  C
  C85      1.0000 0.13139  0.52623  0.81839  Biso   1.000  C
  C86      1.0000 0.17834  0.50336  0.67850  Biso   1.000  C
  C87      1.0000 0.17852  0.47618  0.66098  Biso   1.000  C
  C88      1.0000 0.20269  0.47722  0.61575  Biso   1.000  C
  C89      1.0000 0.22670  0.50541  0.58798  Biso   1.000  C
  C90      1.0000 0.22650  0.53261  0.60554  Biso   1.000  C
  C91      1.0000 0.20233  0.53157  0.65078  Biso   1.000  C
  H49      1.0000 0.07834  0.45427  0.77206  Biso   1.000  H
  H50      1.0000 0.12060  0.45718  0.69525  Biso   1.000  H
  H51      1.0000 0.17642  0.54752  0.77455  Biso   1.000  H
  H52      1.0000 0.13425  0.54450  0.85097  Biso   1.000  H
  H53      1.0000 0.16126  0.45589  0.68093  Biso   1.000  H
  H54      1.0000 0.20279  0.45766  0.60319  Biso   1.000  H
  H55      1.0000 0.24375  0.55291  0.58562  Biso   1.000  H
  H56      1.0000 0.20220  0.55112  0.66338  Biso   1.000  H
  F7       1.0000 0.02672  0.49852  0.60509  Biso   1.000  F
  O15      1.0000 0.43524  0.91843  0.92759  Biso   1.000  O
  O16      1.0000 0.43041  0.95333  0.85219  Biso   1.000  O
  C92      1.0000 0.42155  0.92427  0.86705  Biso   1.000  C
  C93      1.0000 0.39631  0.89716  0.81778  Biso   1.000  C
  C94      1.0000 0.37489  0.90113  0.77250  Biso   1.000  C
  C95      1.0000 0.35199  0.87654  0.72782  Biso   1.000  C
  C96      1.0000 0.34997  0.84774  0.72731  Biso   1.000  C
  C97      1.0000 0.37196  0.84403  0.77372  Biso   1.000  C
  C98      1.0000 0.39484  0.86861  0.81839  Biso   1.000  C
  C99      1.0000 0.32502  0.82166  0.67850  Biso   1.000  C
  C100     1.0000 0.29766  0.82148  0.66098  Biso   1.000  C
  C101     1.0000 0.27453  0.79731  0.61575  Biso   1.000  C
  C102     1.0000 0.27871  0.77330  0.58798  Biso   1.000  C
  C103     1.0000 0.30611  0.77350  0.60554  Biso   1.000  C
  C104     1.0000 0.32924  0.79767  0.65078  Biso   1.000  C
  H57      1.0000 0.37593  0.92166  0.77206  Biso   1.000  H
  H58      1.0000 0.33658  0.87940  0.69525  Biso   1.000  H
  H59      1.0000 0.37110  0.82358  0.77455  Biso   1.000  H
  H60      1.0000 0.41025  0.86575  0.85097  Biso   1.000  H
  H61      1.0000 0.29463  0.83874  0.68093  Biso   1.000  H
  H62      1.0000 0.25487  0.79721  0.60319  Biso   1.000  H
  H63      1.0000 0.30916  0.75625  0.58562  Biso   1.000  H
  H64      1.0000 0.34892  0.79780  0.66338  Biso   1.000  H
  F8       1.0000 0.47180  0.97328  0.60509  Biso   1.000  F
  O17      1.0000 0.48319  0.56476  0.92759  Biso   1.000  O
  O18      1.0000 0.52292  0.56959  0.85219  Biso   1.000  O
  C105     1.0000 0.50272  0.57845  0.86705  Biso   1.000  C
  C106     1.0000 0.50085  0.60369  0.81778  Biso   1.000  C
  C107     1.0000 0.52624  0.62511  0.77250  Biso   1.000  C
  C108     1.0000 0.52455  0.64801  0.72782  Biso   1.000  C
  C109     1.0000 0.49777  0.65003  0.72731  Biso   1.000  C
  C110     1.0000 0.47207  0.62804  0.77372  Biso   1.000  C
  C111     1.0000 0.47377  0.60516  0.81839  Biso   1.000  C
  C112     1.0000 0.49664  0.67498  0.67850  Biso   1.000  C
  C113     1.0000 0.52382  0.70234  0.66098  Biso   1.000  C
  C114     1.0000 0.52278  0.72547  0.61575  Biso   1.000  C
  C115     1.0000 0.49459  0.72129  0.58798  Biso   1.000  C
  C116     1.0000 0.46739  0.69389  0.60554  Biso   1.000  C
  C117     1.0000 0.46843  0.67076  0.65078  Biso   1.000  C
  H65      1.0000 0.54573  0.62407  0.77206  Biso   1.000  H
  H66      1.0000 0.54282  0.66342  0.69525  Biso   1.000  H
  H67      1.0000 0.45248  0.62890  0.77455  Biso   1.000  H
  H68      1.0000 0.45550  0.58975  0.85097  Biso   1.000  H
  H69      1.0000 0.54411  0.70537  0.68093  Biso   1.000  H
  H70      1.0000 0.54234  0.74513  0.60319  Biso   1.000  H
  H71      1.0000 0.44709  0.69084  0.58562  Biso   1.000  H
  H72      1.0000 0.44888  0.65108  0.66338  Biso   1.000  H
  F9       1.0000 0.50148  0.52820  0.60509  Biso   1.000  F
  O19      1.0000 0.91843  0.48319  0.92759  Biso   1.000  O
  O20      1.0000 0.95333  0.52292  0.85219  Biso   1.000  O
  C118     1.0000 0.92427  0.50272  0.86705  Biso   1.000  C
  C119     1.0000 0.89716  0.50085  0.81778  Biso   1.000  C
  C120     1.0000 0.90113  0.52624  0.77250  Biso   1.000  C
  C121     1.0000 0.87654  0.52455  0.72782  Biso   1.000  C
  C122     1.0000 0.84774  0.49777  0.72731  Biso   1.000  C
  C123     1.0000 0.84403  0.47207  0.77372  Biso   1.000  C
  C124     1.0000 0.86861  0.47377  0.81839  Biso   1.000  C
  C125     1.0000 0.82166  0.49664  0.67850  Biso   1.000  C
  C126     1.0000 0.82148  0.52382  0.66098  Biso   1.000  C
  C127     1.0000 0.79731  0.52278  0.61575  Biso   1.000  C
  C128     1.0000 0.77330  0.49459  0.58798  Biso   1.000  C
  C129     1.0000 0.77350  0.46739  0.60554  Biso   1.000  C
  C130     1.0000 0.79767  0.46843  0.65078  Biso   1.000  C
  H73      1.0000 0.92166  0.54573  0.77206  Biso   1.000  H
  H74      1.0000 0.87940  0.54282  0.69525  Biso   1.000  H
  H75      1.0000 0.82358  0.45248  0.77455  Biso   1.000  H
  H76      1.0000 0.86575  0.45550  0.85097  Biso   1.000  H
  H77      1.0000 0.83874  0.54411  0.68093  Biso   1.000  H
  H78      1.0000 0.79721  0.54234  0.60319  Biso   1.000  H
  H79      1.0000 0.75625  0.44709  0.58562  Biso   1.000  H
  H80      1.0000 0.79780  0.44888  0.66338  Biso   1.000  H
  F10      1.0000 0.97328  0.50148  0.60509  Biso   1.000  F
  O21      1.0000 0.56476  0.08157  0.92759  Biso   1.000  O
  O22      1.0000 0.56959  0.04667  0.85219  Biso   1.000  O
  C131     1.0000 0.57845  0.07573  0.86705  Biso   1.000  C
  C132     1.0000 0.60369  0.10284  0.81778  Biso   1.000  C
  C133     1.0000 0.62511  0.09887  0.77250  Biso   1.000  C
  C134     1.0000 0.64801  0.12346  0.72782  Biso   1.000  C
  C135     1.0000 0.65003  0.15226  0.72731  Biso   1.000  C
  C136     1.0000 0.62804  0.15597  0.77372  Biso   1.000  C
  C137     1.0000 0.60516  0.13139  0.81839  Biso   1.000  C
  C138     1.0000 0.67498  0.17834  0.67850  Biso   1.000  C
  C139     1.0000 0.70234  0.17852  0.66098  Biso   1.000  C
  C140     1.0000 0.72547  0.20269  0.61575  Biso   1.000  C
  C141     1.0000 0.72129  0.22670  0.58798  Biso   1.000  C
  C142     1.0000 0.69389  0.22650  0.60554  Biso   1.000  C
  C143     1.0000 0.67076  0.20233  0.65078  Biso   1.000  C
  H81      1.0000 0.62407  0.07834  0.77206  Biso   1.000  H
  H82      1.0000 0.66342  0.12060  0.69525  Biso   1.000  H
  H83      1.0000 0.62890  0.17642  0.77455  Biso   1.000  H
  H84      1.0000 0.58975  0.13425  0.85097  Biso   1.000  H
  H85      1.0000 0.70537  0.16126  0.68093  Biso   1.000  H
  H86      1.0000 0.74513  0.20279  0.60319  Biso   1.000  H
  H87      1.0000 0.69084  0.24375  0.58562  Biso   1.000  H
  H88      1.0000 0.65108  0.20220  0.66338  Biso   1.000  H
  F11      1.0000 0.52820  0.02672  0.60509  Biso   1.000  F
  O23      1.0000 0.51681  0.43524  0.92759  Biso   1.000  O
  O24      1.0000 0.47708  0.43041  0.85219  Biso   1.000  O
  C144     1.0000 0.49728  0.42155  0.86705  Biso   1.000  C
  C145     1.0000 0.49915  0.39631  0.81778  Biso   1.000  C
  C146     1.0000 0.47376  0.37489  0.77250  Biso   1.000  C
  C147     1.0000 0.47545  0.35199  0.72782  Biso   1.000  C
  C148     1.0000 0.50223  0.34997  0.72731  Biso   1.000  C
  C149     1.0000 0.52793  0.37196  0.77372  Biso   1.000  C
  C150     1.0000 0.52623  0.39484  0.81839  Biso   1.000  C
  C151     1.0000 0.50336  0.32502  0.67850  Biso   1.000  C
  C152     1.0000 0.47618  0.29766  0.66098  Biso   1.000  C
  C153     1.0000 0.47722  0.27453  0.61575  Biso   1.000  C
  C154     1.0000 0.50541  0.27871  0.58798  Biso   1.000  C
  C155     1.0000 0.53261  0.30611  0.60554  Biso   1.000  C
  C156     1.0000 0.53157  0.32924  0.65078  Biso   1.000  C
  H89      1.0000 0.45427  0.37593  0.77206  Biso   1.000  H
  H90      1.0000 0.45718  0.33658  0.69525  Biso   1.000  H
  H91      1.0000 0.54752  0.37110  0.77455  Biso   1.000  H
  H92      1.0000 0.54450  0.41025  0.85097  Biso   1.000  H
  H93      1.0000 0.45589  0.29463  0.68093  Biso   1.000  H
  H94      1.0000 0.45766  0.25487  0.60319  Biso   1.000  H
  H95      1.0000 0.55291  0.30916  0.58562  Biso   1.000  H
  H96      1.0000 0.55112  0.34892  0.66338  Biso   1.000  H
  F12      1.0000 0.49852  0.47180  0.60509  Biso   1.000  F
  O25      1.0000 0.48319  0.91843  0.92759  Biso   1.000  O
  O26      1.0000 0.52292  0.95333  0.85219  Biso   1.000  O
  C157     1.0000 0.50272  0.92427  0.86705  Biso   1.000  C
  C158     1.0000 0.50085  0.89716  0.81778  Biso   1.000  C
  C159     1.0000 0.52624  0.90113  0.77250  Biso   1.000  C
  C160     1.0000 0.52455  0.87654  0.72782  Biso   1.000  C
  C161     1.0000 0.49777  0.84774  0.72731  Biso   1.000  C
  C162     1.0000 0.47207  0.84403  0.77372  Biso   1.000  C
  C163     1.0000 0.47377  0.86861  0.81839  Biso   1.000  C
  C164     1.0000 0.49664  0.82166  0.67850  Biso   1.000  C
  C165     1.0000 0.52382  0.82148  0.66098  Biso   1.000  C
  C166     1.0000 0.52278  0.79731  0.61575  Biso   1.000  C
  C167     1.0000 0.49459  0.77330  0.58798  Biso   1.000  C
  C168     1.0000 0.46739  0.77350  0.60554  Biso   1.000  C
  C169     1.0000 0.46843  0.79767  0.65078  Biso   1.000  C
  H97      1.0000 0.54573  0.92166  0.77206  Biso   1.000  H
  H98      1.0000 0.54282  0.87940  0.69525  Biso   1.000  H
  H99      1.0000 0.45248  0.82358  0.77455  Biso   1.000  H
  H100     1.0000 0.45550  0.86575  0.85097  Biso   1.000  H
  H101     1.0000 0.54411  0.83874  0.68093  Biso   1.000  H
  H102     1.0000 0.54234  0.79721  0.60319  Biso   1.000  H
  H103     1.0000 0.44709  0.75625  0.58562  Biso   1.000  H
  H104     1.0000 0.44888  0.79780  0.66338  Biso   1.000  H
  F13      1.0000 0.50148  0.97328  0.60509  Biso   1.000  F
  O27      1.0000 0.08157  0.56476  0.92759  Biso   1.000  O
  O28      1.0000 0.04667  0.56959  0.85219  Biso   1.000  O
  C170     1.0000 0.07573  0.57845  0.86705  Biso   1.000  C
  C171     1.0000 0.10284  0.60369  0.81778  Biso   1.000  C
  C172     1.0000 0.09887  0.62511  0.77250  Biso   1.000  C
  C173     1.0000 0.12346  0.64801  0.72782  Biso   1.000  C
  C174     1.0000 0.15226  0.65003  0.72731  Biso   1.000  C
  C175     1.0000 0.15597  0.62804  0.77372  Biso   1.000  C
  C176     1.0000 0.13139  0.60516  0.81839  Biso   1.000  C
  C177     1.0000 0.17834  0.67498  0.67850  Biso   1.000  C
  C178     1.0000 0.17852  0.70234  0.66098  Biso   1.000  C
  C179     1.0000 0.20269  0.72547  0.61575  Biso   1.000  C
  C180     1.0000 0.22670  0.72129  0.58798  Biso   1.000  C
  C181     1.0000 0.22650  0.69389  0.60554  Biso   1.000  C
  C182     1.0000 0.20233  0.67076  0.65078  Biso   1.000  C
  H105     1.0000 0.07834  0.62407  0.77206  Biso   1.000  H
  H106     1.0000 0.12060  0.66342  0.69525  Biso   1.000  H
  H107     1.0000 0.17642  0.62890  0.77455  Biso   1.000  H
  H108     1.0000 0.13425  0.58975  0.85097  Biso   1.000  H
  H109     1.0000 0.16126  0.70537  0.68093  Biso   1.000  H
  H110     1.0000 0.20279  0.74513  0.60319  Biso   1.000  H
  H111     1.0000 0.24375  0.69084  0.58562  Biso   1.000  H
  H112     1.0000 0.20220  0.65108  0.66338  Biso   1.000  H
  F14      1.0000 0.02672  0.52820  0.60509  Biso   1.000  F
  O29      1.0000 0.43524  0.51681  0.92759  Biso   1.000  O
  O30      1.0000 0.43041  0.47708  0.85219  Biso   1.000  O
  C183     1.0000 0.42155  0.49728  0.86705  Biso   1.000  C
  C184     1.0000 0.39631  0.49915  0.81778  Biso   1.000  C
  C185     1.0000 0.37489  0.47376  0.77250  Biso   1.000  C
  C186     1.0000 0.35199  0.47545  0.72782  Biso   1.000  C
  C187     1.0000 0.34997  0.50223  0.72731  Biso   1.000  C
  C188     1.0000 0.37196  0.52793  0.77372  Biso   1.000  C
  C189     1.0000 0.39484  0.52623  0.81839  Biso   1.000  C
  C190     1.0000 0.32502  0.50336  0.67850  Biso   1.000  C
  C191     1.0000 0.29766  0.47618  0.66098  Biso   1.000  C
  C192     1.0000 0.27453  0.47722  0.61575  Biso   1.000  C
  C193     1.0000 0.27871  0.50541  0.58798  Biso   1.000  C
  C194     1.0000 0.30611  0.53261  0.60554  Biso   1.000  C
  C195     1.0000 0.32924  0.53157  0.65078  Biso   1.000  C
  H113     1.0000 0.37593  0.45427  0.77206  Biso   1.000  H
  H114     1.0000 0.33658  0.45718  0.69525  Biso   1.000  H
  H115     1.0000 0.37110  0.54752  0.77455  Biso   1.000  H
  H116     1.0000 0.41025  0.54450  0.85097  Biso   1.000  H
  H117     1.0000 0.29463  0.45589  0.68093  Biso   1.000  H
  H118     1.0000 0.25487  0.45766  0.60319  Biso   1.000  H
  H119     1.0000 0.30916  0.55291  0.58562  Biso   1.000  H
  H120     1.0000 0.34892  0.55112  0.66338  Biso   1.000  H
  F15      1.0000 0.47180  0.49852  0.60509  Biso   1.000  F
  O31      1.0000 0.51681  0.08157  0.92759  Biso   1.000  O
  O32      1.0000 0.47708  0.04667  0.85219  Biso   1.000  O
  C196     1.0000 0.49728  0.07573  0.86705  Biso   1.000  C
  C197     1.0000 0.49915  0.10284  0.81778  Biso   1.000  C
  C198     1.0000 0.47376  0.09887  0.77250  Biso   1.000  C
  C199     1.0000 0.47545  0.12346  0.72782  Biso   1.000  C
  C200     1.0000 0.50223  0.15226  0.72731  Biso   1.000  C
  C201     1.0000 0.52793  0.15597  0.77372  Biso   1.000  C
  C202     1.0000 0.52623  0.13139  0.81839  Biso   1.000  C
  C203     1.0000 0.50336  0.17834  0.67850  Biso   1.000  C
  C204     1.0000 0.47618  0.17852  0.66098  Biso   1.000  C
  C205     1.0000 0.47722  0.20269  0.61575  Biso   1.000  C
  C206     1.0000 0.50541  0.22670  0.58798  Biso   1.000  C
  C207     1.0000 0.53261  0.22650  0.60554  Biso   1.000  C
  C208     1.0000 0.53157  0.20233  0.65078  Biso   1.000  C
  H121     1.0000 0.45427  0.07834  0.77206  Biso   1.000  H
  H122     1.0000 0.45718  0.12060  0.69525  Biso   1.000  H
  H123     1.0000 0.54752  0.17642  0.77455  Biso   1.000  H
  H124     1.0000 0.54450  0.13425  0.85097  Biso   1.000  H
  H125     1.0000 0.45589  0.16126  0.68093  Biso   1.000  H
  H126     1.0000 0.45766  0.20279  0.60319  Biso   1.000  H
  H127     1.0000 0.55291  0.24375  0.58562  Biso   1.000  H
  H128     1.0000 0.55112  0.20220  0.66338  Biso   1.000  H
  F16      1.0000 0.49852  0.02672  0.60509  Biso   1.000  F
  O33      1.0000 0.91843  0.43524  0.92759  Biso   1.000  O
  O34      1.0000 0.95333  0.43041  0.85219  Biso   1.000  O
  C209     1.0000 0.92427  0.42155  0.86705  Biso   1.000  C
  C210     1.0000 0.89716  0.39631  0.81778  Biso   1.000  C
  C211     1.0000 0.90113  0.37489  0.77250  Biso   1.000  C
  C212     1.0000 0.87654  0.35199  0.72782  Biso   1.000  C
  C213     1.0000 0.84774  0.34997  0.72731  Biso   1.000  C
  C214     1.0000 0.84403  0.37196  0.77372  Biso   1.000  C
  C215     1.0000 0.86861  0.39484  0.81839  Biso   1.000  C
  C216     1.0000 0.82166  0.32502  0.67850  Biso   1.000  C
  C217     1.0000 0.82148  0.29766  0.66098  Biso   1.000  C
  C218     1.0000 0.79731  0.27453  0.61575  Biso   1.000  C
  C219     1.0000 0.77330  0.27871  0.58798  Biso   1.000  C
  C220     1.0000 0.77350  0.30611  0.60554  Biso   1.000  C
  C221     1.0000 0.79767  0.32924  0.65078  Biso   1.000  C
  H129     1.0000 0.92166  0.37593  0.77206  Biso   1.000  H
  H130     1.0000 0.87940  0.33658  0.69525  Biso   1.000  H
  H131     1.0000 0.82358  0.37110  0.77455  Biso   1.000  H
  H132     1.0000 0.86575  0.41025  0.85097  Biso   1.000  H
  H133     1.0000 0.83874  0.29463  0.68093  Biso   1.000  H
  H134     1.0000 0.79721  0.25487  0.60319  Biso   1.000  H
  H135     1.0000 0.75625  0.30916  0.58562  Biso   1.000  H
  H136     1.0000 0.79780  0.34892  0.66338  Biso   1.000  H
  F17      1.0000 0.97328  0.47180  0.60509  Biso   1.000  F
  O35      1.0000 0.56476  0.48319  0.92759  Biso   1.000  O
  O36      1.0000 0.56959  0.52292  0.85219  Biso   1.000  O
  C222     1.0000 0.57845  0.50272  0.86705  Biso   1.000  C
  C223     1.0000 0.60369  0.50085  0.81778  Biso   1.000  C
  C224     1.0000 0.62511  0.52624  0.77250  Biso   1.000  C
  C225     1.0000 0.64801  0.52455  0.72782  Biso   1.000  C
  C226     1.0000 0.65003  0.49777  0.72731  Biso   1.000  C
  C227     1.0000 0.62804  0.47207  0.77372  Biso   1.000  C
  C228     1.0000 0.60516  0.47377  0.81839  Biso   1.000  C
  C229     1.0000 0.67498  0.49664  0.67850  Biso   1.000  C
  C230     1.0000 0.70234  0.52382  0.66098  Biso   1.000  C
  C231     1.0000 0.72547  0.52278  0.61575  Biso   1.000  C
  C232     1.0000 0.72129  0.49459  0.58798  Biso   1.000  C
  C233     1.0000 0.69389  0.46739  0.60554  Biso   1.000  C
  C234     1.0000 0.67076  0.46843  0.65078  Biso   1.000  C
  H137     1.0000 0.62407  0.54573  0.77206  Biso   1.000  H
  H138     1.0000 0.66342  0.54282  0.69525  Biso   1.000  H
  H139     1.0000 0.62890  0.45248  0.77455  Biso   1.000  H
  H140     1.0000 0.58975  0.45550  0.85097  Biso   1.000  H
  H141     1.0000 0.70537  0.54411  0.68093  Biso   1.000  H
  H142     1.0000 0.74513  0.54234  0.60319  Biso   1.000  H
  H143     1.0000 0.69084  0.44709  0.58562  Biso   1.000  H
  H144     1.0000 0.65108  0.44888  0.66338  Biso   1.000  H
  F18      1.0000 0.52820  0.50148  0.60509  Biso   1.000  F
  O37      1.0000 0.91843  0.48319  0.07241  Biso   1.000  O
  O38      1.0000 0.95333  0.52292  0.14781  Biso   1.000  O
  C235     1.0000 0.92427  0.50272  0.13295  Biso   1.000  C
  C236     1.0000 0.89716  0.50085  0.18222  Biso   1.000  C
  C237     1.0000 0.90113  0.52624  0.22750  Biso   1.000  C
  C238     1.0000 0.87654  0.52455  0.27218  Biso   1.000  C
  C239     1.0000 0.84774  0.49777  0.27269  Biso   1.000  C
  C240     1.0000 0.84403  0.47207  0.22628  Biso   1.000  C
  C241     1.0000 0.86861  0.47377  0.18161  Biso   1.000  C
  C242     1.0000 0.82166  0.49664  0.32150  Biso   1.000  C
  C243     1.0000 0.82148  0.52382  0.33902  Biso   1.000  C
  C244     1.0000 0.79731  0.52278  0.38425  Biso   1.000  C
  C245     1.0000 0.77330  0.49459  0.41202  Biso   1.000  C
  C246     1.0000 0.77350  0.46739  0.39446  Biso   1.000  C
  C247     1.0000 0.79767  0.46843  0.34922  Biso   1.000  C
  H145     1.0000 0.92166  0.54573  0.22794  Biso   1.000  H
  H146     1.0000 0.87940  0.54282  0.30475  Biso   1.000  H
  H147     1.0000 0.82358  0.45248  0.22545  Biso   1.000  H
  H148     1.0000 0.86575  0.45550  0.14903  Biso   1.000  H
  H149     1.0000 0.83874  0.54411  0.31907  Biso   1.000  H
  H150     1.0000 0.79721  0.54234  0.39681  Biso   1.000  H
  H151     1.0000 0.75625  0.44709  0.41438  Biso   1.000  H
  H152     1.0000 0.79780  0.44888  0.33662  Biso   1.000  H
  F19      1.0000 0.97328  0.50148  0.39491  Biso   1.000  F
  O39      1.0000 0.56476  0.08157  0.07241  Biso   1.000  O
  O40      1.0000 0.56959  0.04667  0.14781  Biso   1.000  O
  C248     1.0000 0.57845  0.07573  0.13295  Biso   1.000  C
  C249     1.0000 0.60369  0.10284  0.18222  Biso   1.000  C
  C250     1.0000 0.62511  0.09887  0.22750  Biso   1.000  C
  C251     1.0000 0.64801  0.12346  0.27218  Biso   1.000  C
  C252     1.0000 0.65003  0.15226  0.27269  Biso   1.000  C
  C253     1.0000 0.62804  0.15597  0.22628  Biso   1.000  C
  C254     1.0000 0.60516  0.13139  0.18161  Biso   1.000  C
  C255     1.0000 0.67498  0.17834  0.32150  Biso   1.000  C
  C256     1.0000 0.70234  0.17852  0.33902  Biso   1.000  C
  C257     1.0000 0.72547  0.20269  0.38425  Biso   1.000  C
  C258     1.0000 0.72129  0.22670  0.41202  Biso   1.000  C
  C259     1.0000 0.69389  0.22650  0.39446  Biso   1.000  C
  C260     1.0000 0.67076  0.20233  0.34922  Biso   1.000  C
  H153     1.0000 0.62407  0.07834  0.22794  Biso   1.000  H
  H154     1.0000 0.66342  0.12060  0.30475  Biso   1.000  H
  H155     1.0000 0.62890  0.17642  0.22545  Biso   1.000  H
  H156     1.0000 0.58975  0.13425  0.14903  Biso   1.000  H
  H157     1.0000 0.70537  0.16126  0.31907  Biso   1.000  H
  H158     1.0000 0.74513  0.20279  0.39681  Biso   1.000  H
  H159     1.0000 0.69084  0.24375  0.41438  Biso   1.000  H
  H160     1.0000 0.65108  0.20220  0.33662  Biso   1.000  H
  F20      1.0000 0.52820  0.02672  0.39491  Biso   1.000  F
  O41      1.0000 0.51681  0.43524  0.07241  Biso   1.000  O
  O42      1.0000 0.47708  0.43041  0.14781  Biso   1.000  O
  C261     1.0000 0.49728  0.42155  0.13295  Biso   1.000  C
  C262     1.0000 0.49915  0.39631  0.18222  Biso   1.000  C
  C263     1.0000 0.47376  0.37489  0.22750  Biso   1.000  C
  C264     1.0000 0.47545  0.35199  0.27218  Biso   1.000  C
  C265     1.0000 0.50223  0.34997  0.27269  Biso   1.000  C
  C266     1.0000 0.52793  0.37196  0.22628  Biso   1.000  C
  C267     1.0000 0.52623  0.39484  0.18161  Biso   1.000  C
  C268     1.0000 0.50336  0.32502  0.32150  Biso   1.000  C
  C269     1.0000 0.47618  0.29766  0.33902  Biso   1.000  C
  C270     1.0000 0.47722  0.27453  0.38425  Biso   1.000  C
  C271     1.0000 0.50541  0.27871  0.41202  Biso   1.000  C
  C272     1.0000 0.53261  0.30611  0.39446  Biso   1.000  C
  C273     1.0000 0.53157  0.32924  0.34922  Biso   1.000  C
  H161     1.0000 0.45427  0.37593  0.22794  Biso   1.000  H
  H162     1.0000 0.45718  0.33658  0.30475  Biso   1.000  H
  H163     1.0000 0.54752  0.37110  0.22545  Biso   1.000  H
  H164     1.0000 0.54450  0.41025  0.14903  Biso   1.000  H
  H165     1.0000 0.45589  0.29463  0.31907  Biso   1.000  H
  H166     1.0000 0.45766  0.25487  0.39681  Biso   1.000  H
  H167     1.0000 0.55291  0.30916  0.41438  Biso   1.000  H
  H168     1.0000 0.55112  0.34892  0.33662  Biso   1.000  H
  F21      1.0000 0.49852  0.47180  0.39491  Biso   1.000  F
  O43      1.0000 0.08157  0.51681  0.07241  Biso   1.000  O
  O44      1.0000 0.04667  0.47708  0.14781  Biso   1.000  O
  C274     1.0000 0.07573  0.49728  0.13295  Biso   1.000  C
  C275     1.0000 0.10284  0.49915  0.18222  Biso   1.000  C
  C276     1.0000 0.09887  0.47376  0.22750  Biso   1.000  C
  C277     1.0000 0.12346  0.47545  0.27218  Biso   1.000  C
  C278     1.0000 0.15226  0.50223  0.27269  Biso   1.000  C
  C279     1.0000 0.15597  0.52793  0.22628  Biso   1.000  C
  C280     1.0000 0.13139  0.52623  0.18161  Biso   1.000  C
  C281     1.0000 0.17834  0.50336  0.32150  Biso   1.000  C
  C282     1.0000 0.17852  0.47618  0.33902  Biso   1.000  C
  C283     1.0000 0.20269  0.47722  0.38425  Biso   1.000  C
  C284     1.0000 0.22670  0.50541  0.41202  Biso   1.000  C
  C285     1.0000 0.22650  0.53261  0.39446  Biso   1.000  C
  C286     1.0000 0.20233  0.53157  0.34922  Biso   1.000  C
  H169     1.0000 0.07834  0.45427  0.22794  Biso   1.000  H
  H170     1.0000 0.12060  0.45718  0.30475  Biso   1.000  H
  H171     1.0000 0.17642  0.54752  0.22545  Biso   1.000  H
  H172     1.0000 0.13425  0.54450  0.14903  Biso   1.000  H
  H173     1.0000 0.16126  0.45589  0.31907  Biso   1.000  H
  H174     1.0000 0.20279  0.45766  0.39681  Biso   1.000  H
  H175     1.0000 0.24375  0.55291  0.41438  Biso   1.000  H
  H176     1.0000 0.20220  0.55112  0.33662  Biso   1.000  H
  F22      1.0000 0.02672  0.49852  0.39491  Biso   1.000  F
  O45      1.0000 0.43524  0.91843  0.07241  Biso   1.000  O
  O46      1.0000 0.43041  0.95333  0.14781  Biso   1.000  O
  C287     1.0000 0.42155  0.92427  0.13295  Biso   1.000  C
  C288     1.0000 0.39631  0.89716  0.18222  Biso   1.000  C
  C289     1.0000 0.37489  0.90113  0.22750  Biso   1.000  C
  C290     1.0000 0.35199  0.87654  0.27218  Biso   1.000  C
  C291     1.0000 0.34997  0.84774  0.27269  Biso   1.000  C
  C292     1.0000 0.37196  0.84403  0.22628  Biso   1.000  C
  C293     1.0000 0.39484  0.86861  0.18161  Biso   1.000  C
  C294     1.0000 0.32502  0.82166  0.32150  Biso   1.000  C
  C295     1.0000 0.29766  0.82148  0.33902  Biso   1.000  C
  C296     1.0000 0.27453  0.79731  0.38425  Biso   1.000  C
  C297     1.0000 0.27871  0.77330  0.41202  Biso   1.000  C
  C298     1.0000 0.30611  0.77350  0.39446  Biso   1.000  C
  C299     1.0000 0.32924  0.79767  0.34922  Biso   1.000  C
  H177     1.0000 0.37593  0.92166  0.22794  Biso   1.000  H
  H178     1.0000 0.33658  0.87940  0.30475  Biso   1.000  H
  H179     1.0000 0.37110  0.82358  0.22545  Biso   1.000  H
  H180     1.0000 0.41025  0.86575  0.14903  Biso   1.000  H
  H181     1.0000 0.29463  0.83874  0.31907  Biso   1.000  H
  H182     1.0000 0.25487  0.79721  0.39681  Biso   1.000  H
  H183     1.0000 0.30916  0.75625  0.41438  Biso   1.000  H
  H184     1.0000 0.34892  0.79780  0.33662  Biso   1.000  H
  F23      1.0000 0.47180  0.97328  0.39491  Biso   1.000  F
  O47      1.0000 0.48319  0.56476  0.07241  Biso   1.000  O
  O48      1.0000 0.52292  0.56959  0.14781  Biso   1.000  O
  C300     1.0000 0.50272  0.57845  0.13295  Biso   1.000  C
  C301     1.0000 0.50085  0.60369  0.18222  Biso   1.000  C
  C302     1.0000 0.52624  0.62511  0.22750  Biso   1.000  C
  C303     1.0000 0.52455  0.64801  0.27218  Biso   1.000  C
  C304     1.0000 0.49777  0.65003  0.27269  Biso   1.000  C
  C305     1.0000 0.47207  0.62804  0.22628  Biso   1.000  C
  C306     1.0000 0.47377  0.60516  0.18161  Biso   1.000  C
  C307     1.0000 0.49664  0.67498  0.32150  Biso   1.000  C
  C308     1.0000 0.52382  0.70234  0.33902  Biso   1.000  C
  C309     1.0000 0.52278  0.72547  0.38425  Biso   1.000  C
  C310     1.0000 0.49459  0.72129  0.41202  Biso   1.000  C
  C311     1.0000 0.46739  0.69389  0.39446  Biso   1.000  C
  C312     1.0000 0.46843  0.67076  0.34922  Biso   1.000  C
  H185     1.0000 0.54573  0.62407  0.22794  Biso   1.000  H
  H186     1.0000 0.54282  0.66342  0.30475  Biso   1.000  H
  H187     1.0000 0.45248  0.62890  0.22545  Biso   1.000  H
  H188     1.0000 0.45550  0.58975  0.14903  Biso   1.000  H
  H189     1.0000 0.54411  0.70537  0.31907  Biso   1.000  H
  H190     1.0000 0.54234  0.74513  0.39681  Biso   1.000  H
  H191     1.0000 0.44709  0.69084  0.41438  Biso   1.000  H
  H192     1.0000 0.44888  0.65108  0.33662  Biso   1.000  H
  F24      1.0000 0.50148  0.52820  0.39491  Biso   1.000  F
  Zr1      1.0000 0.46388  0.00000  0.10830  Biso   1.000  Zr
  O49      1.0000 0.47616  0.00000  0.23155  Biso   1.000  O
  F25      1.0000 0.47145  0.00000  0.39491  Biso   1.000  F
  Zr2      1.0000 0.00000  0.46388  0.10830  Biso   1.000  Zr
  O50      1.0000 0.00000  0.47616  0.23155  Biso   1.000  O
  F26      1.0000 0.00000  0.47145  0.39491  Biso   1.000  F
  Zr3      1.0000 0.53612  0.53612  0.10830  Biso   1.000  Zr
  O51      1.0000 0.52384  0.52384  0.23155  Biso   1.000  O
  F27      1.0000 0.52855  0.52855  0.39491  Biso   1.000  F
  Zr4      1.0000 0.53612  0.00000  0.10830  Biso   1.000  Zr
  O52      1.0000 0.52384  0.00000  0.23155  Biso   1.000  O
  F28      1.0000 0.52855  0.00000  0.39491  Biso   1.000  F
  Zr5      1.0000 0.00000  0.53612  0.10830  Biso   1.000  Zr
  O53      1.0000 0.00000  0.52384  0.23155  Biso   1.000  O
  F29      1.0000 0.00000  0.52855  0.39491  Biso   1.000  F
  Zr6      1.0000 0.46388  0.46388  0.10830  Biso   1.000  Zr
  O54      1.0000 0.47616  0.47616  0.23155  Biso   1.000  O
  F30      1.0000 0.47145  0.47145  0.39491  Biso   1.000  F
  Zr7      1.0000 0.00000  0.46388  0.89170  Biso   1.000  Zr
  O55      1.0000 0.00000  0.47616  0.76845  Biso   1.000  O
  F31      1.0000 0.00000  0.47145  0.60509  Biso   1.000  F
  Zr8      1.0000 0.46388  0.00000  0.89170  Biso   1.000  Zr
  O56      1.0000 0.47616  0.00000  0.76845  Biso   1.000  O
  F32      1.0000 0.47145  0.00000  0.60509  Biso   1.000  F
  Zr9      1.0000 0.53612  0.53612  0.89170  Biso   1.000  Zr
  O57      1.0000 0.52384  0.52384  0.76845  Biso   1.000  O
  F33      1.0000 0.52855  0.52855  0.60509  Biso   1.000  F
  Zr10     1.0000 0.00000  0.53612  0.89170  Biso   1.000  Zr
  O58      1.0000 0.00000  0.52384  0.76845  Biso   1.000  O
  F34      1.0000 0.00000  0.52855  0.60509  Biso   1.000  F
  Zr11     1.0000 0.53612  0.00000  0.89170  Biso   1.000  Zr
  O59      1.0000 0.52384  0.00000  0.76845  Biso   1.000  O
  F35      1.0000 0.52855  0.00000  0.60509  Biso   1.000  F
  Zr12     1.0000 0.46388  0.46388  0.89170  Biso   1.000  Zr
  O60      1.0000 0.47616  0.47616  0.76845  Biso   1.000  O
  F36      1.0000 0.47145  0.47145  0.60509  Biso   1.000  F
  Zr13     1.0000 0.52669  0.05338  0.00000  Biso   1.000  Zr
  Zr14     1.0000 0.94662  0.47331  0.00000  Biso   1.000  Zr
  Zr15     1.0000 0.52669  0.47331  0.00000  Biso   1.000  Zr
  Zr16     1.0000 0.47331  0.94662  0.00000  Biso   1.000  Zr
  Zr17     1.0000 0.05338  0.52669  0.00000  Biso   1.000  Zr
  Zr18     1.0000 0.47331  0.52669  0.00000  Biso   1.000  Zr
  O61      1.0000 0.51338  0.02676  0.10884  Biso   1.000  O
  O62      1.0000 0.97324  0.48662  0.10884  Biso   1.000  O
  O63      1.0000 0.51338  0.48662  0.10884  Biso   1.000  O
  O64      1.0000 0.48662  0.97324  0.10884  Biso   1.000  O
  O65      1.0000 0.02676  0.51338  0.10884  Biso   1.000  O
  O66      1.0000 0.48662  0.51338  0.10884  Biso   1.000  O
  O67      1.0000 0.02676  0.51338  0.89116  Biso   1.000  O
  O68      1.0000 0.48662  0.97324  0.89116  Biso   1.000  O
  O69      1.0000 0.48662  0.51338  0.89116  Biso   1.000  O
  O70      1.0000 0.97324  0.48662  0.89116  Biso   1.000  O
  O71      1.0000 0.51338  0.02676  0.89116  Biso   1.000  O
  O72      1.0000 0.51338  0.48662  0.89116  Biso   1.000  O
  O73      1.0000 0.47682  0.03079  0.00000  Biso   1.000  O
  O74      1.0000 0.96921  0.44603  0.00000  Biso   1.000  O
  O75      1.0000 0.55397  0.52318  0.00000  Biso   1.000  O
  O76      1.0000 0.52318  0.96921  0.00000  Biso   1.000  O
  O77      1.0000 0.03079  0.55397  0.00000  Biso   1.000  O
  O78      1.0000 0.44603  0.47682  0.00000  Biso   1.000  O
  O79      1.0000 0.03079  0.47682  0.00000  Biso   1.000  O
  O80      1.0000 0.44603  0.96921  0.00000  Biso   1.000  O
  O81      1.0000 0.52318  0.55397  0.00000  Biso   1.000  O
  O82      1.0000 0.96921  0.52318  0.00000  Biso   1.000  O
  O83      1.0000 0.55397  0.03079  0.00000  Biso   1.000  O
  O84      1.0000 0.47682  0.44603  0.00000  Biso   1.000  O
  C313     1.0000 0.50980  0.25490  0.45802  Biso   1.000  C
  C314     1.0000 0.74510  0.25490  0.45802  Biso   1.000  C
  C315     1.0000 0.74510  0.49020  0.45802  Biso   1.000  C
  C316     1.0000 0.49020  0.74510  0.45802  Biso   1.000  C
  C317     1.0000 0.25490  0.74510  0.45802  Biso   1.000  C
  C318     1.0000 0.25490  0.50980  0.45802  Biso   1.000  C
  C319     1.0000 0.25490  0.50980  0.54198  Biso   1.000  C
  C320     1.0000 0.25490  0.74510  0.54198  Biso   1.000  C
  C321     1.0000 0.49020  0.74510  0.54198  Biso   1.000  C
  C322     1.0000 0.74510  0.49020  0.54198  Biso   1.000  C
  C323     1.0000 0.74510  0.25490  0.54198  Biso   1.000  C
  C324     1.0000 0.50980  0.25490  0.54198  Biso   1.000  C
  C325     1.0000 0.50000  0.00000  0.27106  Biso   1.000  C
  C326     1.0000 0.50000  0.00000  0.36606  Biso   1.000  C
  C327     1.0000 0.00000  0.50000  0.27106  Biso   1.000  C
  C328     1.0000 0.00000  0.50000  0.36606  Biso   1.000  C
  C329     1.0000 0.50000  0.50000  0.27106  Biso   1.000  C
  C330     1.0000 0.50000  0.50000  0.36606  Biso   1.000  C
  C331     1.0000 0.00000  0.50000  0.72894  Biso   1.000  C
  C332     1.0000 0.00000  0.50000  0.63394  Biso   1.000  C
  C333     1.0000 0.50000  0.00000  0.72894  Biso   1.000  C
  C334     1.0000 0.50000  0.00000  0.63394  Biso   1.000  C
  C335     1.0000 0.50000  0.50000  0.72894  Biso   1.000  C
  C336     1.0000 0.50000  0.50000  0.63394  Biso   1.000  C
