data_image0
_cell_length_a       36.6289
_cell_length_b       36.6289
_cell_length_c       36.6289
_cell_angle_alpha    90
_cell_angle_beta     90
_cell_angle_gamma    90

_symmetry_space_group_name_H-M    "P 1"
_symmetry_int_tables_number       1

loop_
  _symmetry_equiv_pos_as_xyz
  'x, y, z'

loop_
  _atom_site_label
  _atom_site_occupancy
  _atom_site_fract_x
  _atom_site_fract_y
  _atom_site_fract_z
  _atom_site_thermal_displace_type
  _atom_site_B_iso_or_equiv
  _atom_site_type_symbol
  Cu1      1.0000 0.89082  0.67057  0.58486  Biso   1.000  Cu
  Cu2      1.0000 0.95317  0.73158  0.55455  Biso   1.000  Cu
  S1       1.0000 0.96856  0.71126  0.45732  Biso   1.000  S
  S2       1.0000 0.83097  0.68308  0.60115  Biso   1.000  S
  N1       1.0000 0.93046  0.69639  0.51997  Biso   1.000  N
  N2       1.0000 0.90285  0.67220  0.53156  Biso   1.000  N
  N3       1.0000 0.91510  0.66213  0.47385  Biso   1.000  N
  H1       1.0000 0.91400  0.65310  0.45220  Biso   1.000  H
  N4       1.0000 0.86874  0.62535  0.50242  Biso   1.000  N
  H2       1.0000 0.85560  0.62090  0.52140  Biso   1.000  H
  H3       1.0000 0.86540  0.61310  0.48270  Biso   1.000  H
  N5       1.0000 0.80408  0.61843  0.57441  Biso   1.000  N
  N6       1.0000 0.78040  0.60739  0.54661  Biso   1.000  N
  N7       1.0000 0.78426  0.66660  0.54587  Biso   1.000  N
  H4       1.0000 0.78070  0.68900  0.53980  Biso   1.000  H
  N8       1.0000 0.74514  0.63883  0.50221  Biso   1.000  N
  H5       1.0000 0.73560  0.61920  0.49360  Biso   1.000  H
  H6       1.0000 0.73940  0.65970  0.49310  Biso   1.000  H
  C1       1.0000 0.93712  0.68958  0.48572  Biso   1.000  C
  C2       1.0000 0.89514  0.65207  0.50372  Biso   1.000  C
  C3       1.0000 0.80605  0.65440  0.57310  Biso   1.000  C
  C4       1.0000 0.76916  0.63691  0.53009  Biso   1.000  C
  Cu3      1.0000 0.89082  0.17057  0.08486  Biso   1.000  Cu
  Cu4      1.0000 0.95317  0.23158  0.05455  Biso   1.000  Cu
  S3       1.0000 0.96856  0.21126  0.95732  Biso   1.000  S
  S4       1.0000 0.83097  0.18308  0.10115  Biso   1.000  S
  N9       1.0000 0.93046  0.19639  0.01997  Biso   1.000  N
  N10      1.0000 0.90285  0.17220  0.03156  Biso   1.000  N
  N11      1.0000 0.91510  0.16213  0.97385  Biso   1.000  N
  H7       1.0000 0.91400  0.15310  0.95220  Biso   1.000  H
  N12      1.0000 0.86874  0.12535  0.00242  Biso   1.000  N
  H8       1.0000 0.85560  0.12090  0.02140  Biso   1.000  H
  H9       1.0000 0.86540  0.11310  0.98270  Biso   1.000  H
  N13      1.0000 0.80408  0.11843  0.07441  Biso   1.000  N
  N14      1.0000 0.78040  0.10739  0.04661  Biso   1.000  N
  N15      1.0000 0.78426  0.16660  0.04587  Biso   1.000  N
  H10      1.0000 0.78070  0.18900  0.03980  Biso   1.000  H
  N16      1.0000 0.74514  0.13883  0.00221  Biso   1.000  N
  H11      1.0000 0.73560  0.11920  0.99360  Biso   1.000  H
  H12      1.0000 0.73940  0.15970  0.99310  Biso   1.000  H
  C5       1.0000 0.93712  0.18958  0.98572  Biso   1.000  C
  C6       1.0000 0.89514  0.15207  0.00372  Biso   1.000  C
  C7       1.0000 0.80605  0.15440  0.07310  Biso   1.000  C
  C8       1.0000 0.76916  0.13691  0.03009  Biso   1.000  C
  Cu5      1.0000 0.39082  0.67057  0.08486  Biso   1.000  Cu
  Cu6      1.0000 0.45317  0.73158  0.05455  Biso   1.000  Cu
  S5       1.0000 0.46856  0.71126  0.95732  Biso   1.000  S
  S6       1.0000 0.33097  0.68308  0.10115  Biso   1.000  S
  N17      1.0000 0.43046  0.69639  0.01997  Biso   1.000  N
  N18      1.0000 0.40285  0.67220  0.03156  Biso   1.000  N
  N19      1.0000 0.41510  0.66213  0.97385  Biso   1.000  N
  H13      1.0000 0.41400  0.65310  0.95220  Biso   1.000  H
  N20      1.0000 0.36874  0.62535  0.00242  Biso   1.000  N
  H14      1.0000 0.35560  0.62090  0.02140  Biso   1.000  H
  H15      1.0000 0.36540  0.61310  0.98270  Biso   1.000  H
  N21      1.0000 0.30408  0.61843  0.07441  Biso   1.000  N
  N22      1.0000 0.28040  0.60739  0.04661  Biso   1.000  N
  N23      1.0000 0.28426  0.66660  0.04587  Biso   1.000  N
  H16      1.0000 0.28070  0.68900  0.03980  Biso   1.000  H
  N24      1.0000 0.24514  0.63883  0.00221  Biso   1.000  N
  H17      1.0000 0.23560  0.61920  0.99360  Biso   1.000  H
  H18      1.0000 0.23940  0.65970  0.99310  Biso   1.000  H
  C9       1.0000 0.43712  0.68958  0.98572  Biso   1.000  C
  C10      1.0000 0.39514  0.65207  0.00372  Biso   1.000  C
  C11      1.0000 0.30605  0.65440  0.07310  Biso   1.000  C
  C12      1.0000 0.26916  0.63691  0.03009  Biso   1.000  C
  Cu7      1.0000 0.39082  0.17057  0.58486  Biso   1.000  Cu
  Cu8      1.0000 0.45317  0.23158  0.55455  Biso   1.000  Cu
  S7       1.0000 0.46856  0.21126  0.45732  Biso   1.000  S
  S8       1.0000 0.33097  0.18308  0.60115  Biso   1.000  S
  N25      1.0000 0.43046  0.19639  0.51997  Biso   1.000  N
  N26      1.0000 0.40285  0.17220  0.53156  Biso   1.000  N
  N27      1.0000 0.41510  0.16213  0.47385  Biso   1.000  N
  H19      1.0000 0.41400  0.15310  0.45220  Biso   1.000  H
  N28      1.0000 0.36874  0.12535  0.50242  Biso   1.000  N
  H20      1.0000 0.35560  0.12090  0.52140  Biso   1.000  H
  H21      1.0000 0.36540  0.11310  0.48270  Biso   1.000  H
  N29      1.0000 0.30408  0.11843  0.57441  Biso   1.000  N
  N30      1.0000 0.28040  0.10739  0.54661  Biso   1.000  N
  N31      1.0000 0.28426  0.16660  0.54587  Biso   1.000  N
  H22      1.0000 0.28070  0.18900  0.53980  Biso   1.000  H
  N32      1.0000 0.24514  0.13883  0.50221  Biso   1.000  N
  H23      1.0000 0.23560  0.11920  0.49360  Biso   1.000  H
  H24      1.0000 0.23940  0.15970  0.49310  Biso   1.000  H
  C13      1.0000 0.43712  0.18958  0.48572  Biso   1.000  C
  C14      1.0000 0.39514  0.15207  0.50372  Biso   1.000  C
  C15      1.0000 0.30605  0.15440  0.57310  Biso   1.000  C
  C16      1.0000 0.26916  0.13691  0.53009  Biso   1.000  C
  Cu9      1.0000 0.10918  0.32943  0.58486  Biso   1.000  Cu
  Cu10     1.0000 0.04683  0.26842  0.55455  Biso   1.000  Cu
  S9       1.0000 0.03144  0.28874  0.45732  Biso   1.000  S
  S10      1.0000 0.16903  0.31692  0.60115  Biso   1.000  S
  N33      1.0000 0.06954  0.30361  0.51997  Biso   1.000  N
  N34      1.0000 0.09715  0.32780  0.53156  Biso   1.000  N
  N35      1.0000 0.08490  0.33787  0.47385  Biso   1.000  N
  H25      1.0000 0.08600  0.34690  0.45220  Biso   1.000  H
  N36      1.0000 0.13126  0.37465  0.50242  Biso   1.000  N
  H26      1.0000 0.14440  0.37910  0.52140  Biso   1.000  H
  H27      1.0000 0.13460  0.38690  0.48270  Biso   1.000  H
  N37      1.0000 0.19592  0.38157  0.57441  Biso   1.000  N
  N38      1.0000 0.21960  0.39261  0.54661  Biso   1.000  N
  N39      1.0000 0.21574  0.33340  0.54587  Biso   1.000  N
  H28      1.0000 0.21930  0.31100  0.53980  Biso   1.000  H
  N40      1.0000 0.25486  0.36117  0.50221  Biso   1.000  N
  H29      1.0000 0.26440  0.38080  0.49360  Biso   1.000  H
  H30      1.0000 0.26060  0.34030  0.49310  Biso   1.000  H
  C17      1.0000 0.06288  0.31042  0.48572  Biso   1.000  C
  C18      1.0000 0.10486  0.34793  0.50372  Biso   1.000  C
  C19      1.0000 0.19395  0.34560  0.57310  Biso   1.000  C
  C20      1.0000 0.23084  0.36309  0.53009  Biso   1.000  C
  Cu11     1.0000 0.10918  0.82943  0.08486  Biso   1.000  Cu
  Cu12     1.0000 0.04683  0.76842  0.05455  Biso   1.000  Cu
  S11      1.0000 0.03144  0.78874  0.95732  Biso   1.000  S
  S12      1.0000 0.16903  0.81692  0.10115  Biso   1.000  S
  N41      1.0000 0.06954  0.80361  0.01997  Biso   1.000  N
  N42      1.0000 0.09715  0.82780  0.03156  Biso   1.000  N
  N43      1.0000 0.08490  0.83787  0.97385  Biso   1.000  N
  H31      1.0000 0.08600  0.84690  0.95220  Biso   1.000  H
  N44      1.0000 0.13126  0.87465  0.00242  Biso   1.000  N
  H32      1.0000 0.14440  0.87910  0.02140  Biso   1.000  H
  H33      1.0000 0.13460  0.88690  0.98270  Biso   1.000  H
  N45      1.0000 0.19592  0.88157  0.07441  Biso   1.000  N
  N46      1.0000 0.21960  0.89261  0.04661  Biso   1.000  N
  N47      1.0000 0.21574  0.83340  0.04587  Biso   1.000  N
  H34      1.0000 0.21930  0.81100  0.03980  Biso   1.000  H
  N48      1.0000 0.25486  0.86117  0.00221  Biso   1.000  N
  H35      1.0000 0.26440  0.88080  0.99360  Biso   1.000  H
  H36      1.0000 0.26060  0.84030  0.99310  Biso   1.000  H
  C21      1.0000 0.06288  0.81042  0.98572  Biso   1.000  C
  C22      1.0000 0.10486  0.84793  0.00372  Biso   1.000  C
  C23      1.0000 0.19395  0.84560  0.07310  Biso   1.000  C
  C24      1.0000 0.23084  0.86309  0.03009  Biso   1.000  C
  Cu13     1.0000 0.60918  0.32943  0.08486  Biso   1.000  Cu
  Cu14     1.0000 0.54683  0.26842  0.05455  Biso   1.000  Cu
  S13      1.0000 0.53144  0.28874  0.95732  Biso   1.000  S
  S14      1.0000 0.66903  0.31692  0.10115  Biso   1.000  S
  N49      1.0000 0.56954  0.30361  0.01997  Biso   1.000  N
  N50      1.0000 0.59715  0.32780  0.03156  Biso   1.000  N
  N51      1.0000 0.58490  0.33787  0.97385  Biso   1.000  N
  H37      1.0000 0.58600  0.34690  0.95220  Biso   1.000  H
  N52      1.0000 0.63126  0.37465  0.00242  Biso   1.000  N
  H38      1.0000 0.64440  0.37910  0.02140  Biso   1.000  H
  H39      1.0000 0.63460  0.38690  0.98270  Biso   1.000  H
  N53      1.0000 0.69592  0.38157  0.07441  Biso   1.000  N
  N54      1.0000 0.71960  0.39261  0.04661  Biso   1.000  N
  N55      1.0000 0.71574  0.33340  0.04587  Biso   1.000  N
  H40      1.0000 0.71930  0.31100  0.03980  Biso   1.000  H
  N56      1.0000 0.75486  0.36117  0.00221  Biso   1.000  N
  H41      1.0000 0.76440  0.38080  0.99360  Biso   1.000  H
  H42      1.0000 0.76060  0.34030  0.99310  Biso   1.000  H
  C25      1.0000 0.56288  0.31042  0.98572  Biso   1.000  C
  C26      1.0000 0.60486  0.34793  0.00372  Biso   1.000  C
  C27      1.0000 0.69395  0.34560  0.07310  Biso   1.000  C
  C28      1.0000 0.73084  0.36309  0.03009  Biso   1.000  C
  Cu15     1.0000 0.60918  0.82943  0.58486  Biso   1.000  Cu
  Cu16     1.0000 0.54683  0.76842  0.55455  Biso   1.000  Cu
  S15      1.0000 0.53144  0.78874  0.45732  Biso   1.000  S
  S16      1.0000 0.66903  0.81692  0.60115  Biso   1.000  S
  N57      1.0000 0.56954  0.80361  0.51997  Biso   1.000  N
  N58      1.0000 0.59715  0.82780  0.53156  Biso   1.000  N
  N59      1.0000 0.58490  0.83787  0.47385  Biso   1.000  N
  H43      1.0000 0.58600  0.84690  0.45220  Biso   1.000  H
  N60      1.0000 0.63126  0.87465  0.50242  Biso   1.000  N
  H44      1.0000 0.64440  0.87910  0.52140  Biso   1.000  H
  H45      1.0000 0.63460  0.88690  0.48270  Biso   1.000  H
  N61      1.0000 0.69592  0.88157  0.57441  Biso   1.000  N
  N62      1.0000 0.71960  0.89261  0.54661  Biso   1.000  N
  N63      1.0000 0.71574  0.83340  0.54587  Biso   1.000  N
  H46      1.0000 0.71930  0.81100  0.53980  Biso   1.000  H
  N64      1.0000 0.75486  0.86117  0.50221  Biso   1.000  N
  H47      1.0000 0.76440  0.88080  0.49360  Biso   1.000  H
  H48      1.0000 0.76060  0.84030  0.49310  Biso   1.000  H
  C29      1.0000 0.56288  0.81042  0.48572  Biso   1.000  C
  C30      1.0000 0.60486  0.84793  0.50372  Biso   1.000  C
  C31      1.0000 0.69395  0.84560  0.57310  Biso   1.000  C
  C32      1.0000 0.73084  0.86309  0.53009  Biso   1.000  C
  Cu17     1.0000 0.10918  0.67057  0.41514  Biso   1.000  Cu
  Cu18     1.0000 0.04683  0.73158  0.44545  Biso   1.000  Cu
  S17      1.0000 0.03144  0.71126  0.54268  Biso   1.000  S
  S18      1.0000 0.16903  0.68308  0.39885  Biso   1.000  S
  N65      1.0000 0.06954  0.69639  0.48003  Biso   1.000  N
  N66      1.0000 0.09715  0.67220  0.46844  Biso   1.000  N
  N67      1.0000 0.08490  0.66213  0.52615  Biso   1.000  N
  H49      1.0000 0.08600  0.65310  0.54780  Biso   1.000  H
  N68      1.0000 0.13126  0.62535  0.49758  Biso   1.000  N
  H50      1.0000 0.14440  0.62090  0.47860  Biso   1.000  H
  H51      1.0000 0.13460  0.61310  0.51730  Biso   1.000  H
  N69      1.0000 0.19592  0.61843  0.42559  Biso   1.000  N
  N70      1.0000 0.21960  0.60739  0.45339  Biso   1.000  N
  N71      1.0000 0.21574  0.66660  0.45413  Biso   1.000  N
  H52      1.0000 0.21930  0.68900  0.46020  Biso   1.000  H
  N72      1.0000 0.25486  0.63883  0.49779  Biso   1.000  N
  H53      1.0000 0.26440  0.61920  0.50640  Biso   1.000  H
  H54      1.0000 0.26060  0.65970  0.50690  Biso   1.000  H
  C33      1.0000 0.06288  0.68958  0.51428  Biso   1.000  C
  C34      1.0000 0.10486  0.65207  0.49628  Biso   1.000  C
  C35      1.0000 0.19395  0.65440  0.42690  Biso   1.000  C
  C36      1.0000 0.23084  0.63691  0.46991  Biso   1.000  C
  Cu19     1.0000 0.10918  0.17057  0.91514  Biso   1.000  Cu
  Cu20     1.0000 0.04683  0.23158  0.94545  Biso   1.000  Cu
  S19      1.0000 0.03144  0.21126  0.04268  Biso   1.000  S
  S20      1.0000 0.16903  0.18308  0.89885  Biso   1.000  S
  N73      1.0000 0.06954  0.19639  0.98003  Biso   1.000  N
  N74      1.0000 0.09715  0.17220  0.96844  Biso   1.000  N
  N75      1.0000 0.08490  0.16213  0.02615  Biso   1.000  N
  H55      1.0000 0.08600  0.15310  0.04780  Biso   1.000  H
  N76      1.0000 0.13126  0.12535  0.99758  Biso   1.000  N
  H56      1.0000 0.14440  0.12090  0.97860  Biso   1.000  H
  H57      1.0000 0.13460  0.11310  0.01730  Biso   1.000  H
  N77      1.0000 0.19592  0.11843  0.92559  Biso   1.000  N
  N78      1.0000 0.21960  0.10739  0.95339  Biso   1.000  N
  N79      1.0000 0.21574  0.16660  0.95413  Biso   1.000  N
  H58      1.0000 0.21930  0.18900  0.96020  Biso   1.000  H
  N80      1.0000 0.25486  0.13883  0.99779  Biso   1.000  N
  H59      1.0000 0.26440  0.11920  0.00640  Biso   1.000  H
  H60      1.0000 0.26060  0.15970  0.00690  Biso   1.000  H
  C37      1.0000 0.06288  0.18958  0.01428  Biso   1.000  C
  C38      1.0000 0.10486  0.15207  0.99628  Biso   1.000  C
  C39      1.0000 0.19395  0.15440  0.92690  Biso   1.000  C
  C40      1.0000 0.23084  0.13691  0.96991  Biso   1.000  C
  Cu21     1.0000 0.60918  0.67057  0.91514  Biso   1.000  Cu
  Cu22     1.0000 0.54683  0.73158  0.94545  Biso   1.000  Cu
  S21      1.0000 0.53144  0.71126  0.04268  Biso   1.000  S
  S22      1.0000 0.66903  0.68308  0.89885  Biso   1.000  S
  N81      1.0000 0.56954  0.69639  0.98003  Biso   1.000  N
  N82      1.0000 0.59715  0.67220  0.96844  Biso   1.000  N
  N83      1.0000 0.58490  0.66213  0.02615  Biso   1.000  N
  H61      1.0000 0.58600  0.65310  0.04780  Biso   1.000  H
  N84      1.0000 0.63126  0.62535  0.99758  Biso   1.000  N
  H62      1.0000 0.64440  0.62090  0.97860  Biso   1.000  H
  H63      1.0000 0.63460  0.61310  0.01730  Biso   1.000  H
  N85      1.0000 0.69592  0.61843  0.92559  Biso   1.000  N
  N86      1.0000 0.71960  0.60739  0.95339  Biso   1.000  N
  N87      1.0000 0.71574  0.66660  0.95413  Biso   1.000  N
  H64      1.0000 0.71930  0.68900  0.96020  Biso   1.000  H
  N88      1.0000 0.75486  0.63883  0.99779  Biso   1.000  N
  H65      1.0000 0.76440  0.61920  0.00640  Biso   1.000  H
  H66      1.0000 0.76060  0.65970  0.00690  Biso   1.000  H
  C41      1.0000 0.56288  0.68958  0.01428  Biso   1.000  C
  C42      1.0000 0.60486  0.65207  0.99628  Biso   1.000  C
  C43      1.0000 0.69395  0.65440  0.92690  Biso   1.000  C
  C44      1.0000 0.73084  0.63691  0.96991  Biso   1.000  C
  Cu23     1.0000 0.60918  0.17057  0.41514  Biso   1.000  Cu
  Cu24     1.0000 0.54683  0.23158  0.44545  Biso   1.000  Cu
  S23      1.0000 0.53144  0.21126  0.54268  Biso   1.000  S
  S24      1.0000 0.66903  0.18308  0.39885  Biso   1.000  S
  N89      1.0000 0.56954  0.19639  0.48003  Biso   1.000  N
  N90      1.0000 0.59715  0.17220  0.46844  Biso   1.000  N
  N91      1.0000 0.58490  0.16213  0.52615  Biso   1.000  N
  H67      1.0000 0.58600  0.15310  0.54780  Biso   1.000  H
  N92      1.0000 0.63126  0.12535  0.49758  Biso   1.000  N
  H68      1.0000 0.64440  0.12090  0.47860  Biso   1.000  H
  H69      1.0000 0.63460  0.11310  0.51730  Biso   1.000  H
  N93      1.0000 0.69592  0.11843  0.42559  Biso   1.000  N
  N94      1.0000 0.71960  0.10739  0.45339  Biso   1.000  N
  N95      1.0000 0.71574  0.16660  0.45413  Biso   1.000  N
  H70      1.0000 0.71930  0.18900  0.46020  Biso   1.000  H
  N96      1.0000 0.75486  0.13883  0.49779  Biso   1.000  N
  H71      1.0000 0.76440  0.11920  0.50640  Biso   1.000  H
  H72      1.0000 0.76060  0.15970  0.50690  Biso   1.000  H
  C45      1.0000 0.56288  0.18958  0.51428  Biso   1.000  C
  C46      1.0000 0.60486  0.15207  0.49628  Biso   1.000  C
  C47      1.0000 0.69395  0.15440  0.42690  Biso   1.000  C
  C48      1.0000 0.73084  0.13691  0.46991  Biso   1.000  C
  Cu25     1.0000 0.89082  0.32943  0.41514  Biso   1.000  Cu
  Cu26     1.0000 0.95317  0.26842  0.44545  Biso   1.000  Cu
  S25      1.0000 0.96856  0.28874  0.54268  Biso   1.000  S
  S26      1.0000 0.83097  0.31692  0.39885  Biso   1.000  S
  N97      1.0000 0.93046  0.30361  0.48003  Biso   1.000  N
  N98      1.0000 0.90285  0.32780  0.46844  Biso   1.000  N
  N99      1.0000 0.91510  0.33787  0.52615  Biso   1.000  N
  H73      1.0000 0.91400  0.34690  0.54780  Biso   1.000  H
  N100     1.0000 0.86874  0.37465  0.49758  Biso   1.000  N
  H74      1.0000 0.85560  0.37910  0.47860  Biso   1.000  H
  H75      1.0000 0.86540  0.38690  0.51730  Biso   1.000  H
  N101     1.0000 0.80408  0.38157  0.42559  Biso   1.000  N
  N102     1.0000 0.78040  0.39261  0.45339  Biso   1.000  N
  N103     1.0000 0.78426  0.33340  0.45413  Biso   1.000  N
  H76      1.0000 0.78070  0.31100  0.46020  Biso   1.000  H
  N104     1.0000 0.74514  0.36117  0.49779  Biso   1.000  N
  H77      1.0000 0.73560  0.38080  0.50640  Biso   1.000  H
  H78      1.0000 0.73940  0.34030  0.50690  Biso   1.000  H
  C49      1.0000 0.93712  0.31042  0.51428  Biso   1.000  C
  C50      1.0000 0.89514  0.34793  0.49628  Biso   1.000  C
  C51      1.0000 0.80605  0.34560  0.42690  Biso   1.000  C
  C52      1.0000 0.76916  0.36309  0.46991  Biso   1.000  C
  Cu27     1.0000 0.89082  0.82943  0.91514  Biso   1.000  Cu
  Cu28     1.0000 0.95317  0.76842  0.94545  Biso   1.000  Cu
  S27      1.0000 0.96856  0.78874  0.04268  Biso   1.000  S
  S28      1.0000 0.83097  0.81692  0.89885  Biso   1.000  S
  N105     1.0000 0.93046  0.80361  0.98003  Biso   1.000  N
  N106     1.0000 0.90285  0.82780  0.96844  Biso   1.000  N
  N107     1.0000 0.91510  0.83787  0.02615  Biso   1.000  N
  H79      1.0000 0.91400  0.84690  0.04780  Biso   1.000  H
  N108     1.0000 0.86874  0.87465  0.99758  Biso   1.000  N
  H80      1.0000 0.85560  0.87910  0.97860  Biso   1.000  H
  H81      1.0000 0.86540  0.88690  0.01730  Biso   1.000  H
  N109     1.0000 0.80408  0.88157  0.92559  Biso   1.000  N
  N110     1.0000 0.78040  0.89261  0.95339  Biso   1.000  N
  N111     1.0000 0.78426  0.83340  0.95413  Biso   1.000  N
  H82      1.0000 0.78070  0.81100  0.96020  Biso   1.000  H
  N112     1.0000 0.74514  0.86117  0.99779  Biso   1.000  N
  H83      1.0000 0.73560  0.88080  0.00640  Biso   1.000  H
  H84      1.0000 0.73940  0.84030  0.00690  Biso   1.000  H
  C53      1.0000 0.93712  0.81042  0.01428  Biso   1.000  C
  C54      1.0000 0.89514  0.84793  0.99628  Biso   1.000  C
  C55      1.0000 0.80605  0.84560  0.92690  Biso   1.000  C
  C56      1.0000 0.76916  0.86309  0.96991  Biso   1.000  C
  Cu29     1.0000 0.39082  0.32943  0.91514  Biso   1.000  Cu
  Cu30     1.0000 0.45317  0.26842  0.94545  Biso   1.000  Cu
  S29      1.0000 0.46856  0.28874  0.04268  Biso   1.000  S
  S30      1.0000 0.33097  0.31692  0.89885  Biso   1.000  S
  N113     1.0000 0.43046  0.30361  0.98003  Biso   1.000  N
  N114     1.0000 0.40285  0.32780  0.96844  Biso   1.000  N
  N115     1.0000 0.41510  0.33787  0.02615  Biso   1.000  N
  H85      1.0000 0.41400  0.34690  0.04780  Biso   1.000  H
  N116     1.0000 0.36874  0.37465  0.99758  Biso   1.000  N
  H86      1.0000 0.35560  0.37910  0.97860  Biso   1.000  H
  H87      1.0000 0.36540  0.38690  0.01730  Biso   1.000  H
  N117     1.0000 0.30408  0.38157  0.92559  Biso   1.000  N
  N118     1.0000 0.28040  0.39261  0.95339  Biso   1.000  N
  N119     1.0000 0.28426  0.33340  0.95413  Biso   1.000  N
  H88      1.0000 0.28070  0.31100  0.96020  Biso   1.000  H
  N120     1.0000 0.24514  0.36117  0.99779  Biso   1.000  N
  H89      1.0000 0.23560  0.38080  0.00640  Biso   1.000  H
  H90      1.0000 0.23940  0.34030  0.00690  Biso   1.000  H
  C57      1.0000 0.43712  0.31042  0.01428  Biso   1.000  C
  C58      1.0000 0.39514  0.34793  0.99628  Biso   1.000  C
  C59      1.0000 0.30605  0.34560  0.92690  Biso   1.000  C
  C60      1.0000 0.26916  0.36309  0.96991  Biso   1.000  C
  Cu31     1.0000 0.39082  0.82943  0.41514  Biso   1.000  Cu
  Cu32     1.0000 0.45317  0.76842  0.44545  Biso   1.000  Cu
  S31      1.0000 0.46856  0.78874  0.54268  Biso   1.000  S
  S32      1.0000 0.33097  0.81692  0.39885  Biso   1.000  S
  N121     1.0000 0.43046  0.80361  0.48003  Biso   1.000  N
  N122     1.0000 0.40285  0.82780  0.46844  Biso   1.000  N
  N123     1.0000 0.41510  0.83787  0.52615  Biso   1.000  N
  H91      1.0000 0.41400  0.84690  0.54780  Biso   1.000  H
  N124     1.0000 0.36874  0.87465  0.49758  Biso   1.000  N
  H92      1.0000 0.35560  0.87910  0.47860  Biso   1.000  H
  H93      1.0000 0.36540  0.88690  0.51730  Biso   1.000  H
  N125     1.0000 0.30408  0.88157  0.42559  Biso   1.000  N
  N126     1.0000 0.28040  0.89261  0.45339  Biso   1.000  N
  N127     1.0000 0.28426  0.83340  0.45413  Biso   1.000  N
  H94      1.0000 0.28070  0.81100  0.46020  Biso   1.000  H
  N128     1.0000 0.24514  0.86117  0.49779  Biso   1.000  N
  H95      1.0000 0.23560  0.88080  0.50640  Biso   1.000  H
  H96      1.0000 0.23940  0.84030  0.50690  Biso   1.000  H
  C61      1.0000 0.43712  0.81042  0.51428  Biso   1.000  C
  C62      1.0000 0.39514  0.84793  0.49628  Biso   1.000  C
  C63      1.0000 0.30605  0.84560  0.42690  Biso   1.000  C
  C64      1.0000 0.26916  0.86309  0.46991  Biso   1.000  C
  Cu33     1.0000 0.58486  0.89082  0.67057  Biso   1.000  Cu
  Cu34     1.0000 0.55455  0.95317  0.73158  Biso   1.000  Cu
  S33      1.0000 0.45732  0.96856  0.71126  Biso   1.000  S
  S34      1.0000 0.60115  0.83097  0.68308  Biso   1.000  S
  N129     1.0000 0.51997  0.93046  0.69639  Biso   1.000  N
  N130     1.0000 0.53156  0.90285  0.67220  Biso   1.000  N
  N131     1.0000 0.47385  0.91510  0.66213  Biso   1.000  N
  H97      1.0000 0.45220  0.91400  0.65310  Biso   1.000  H
  N132     1.0000 0.50242  0.86874  0.62535  Biso   1.000  N
  H98      1.0000 0.52140  0.85560  0.62090  Biso   1.000  H
  H99      1.0000 0.48270  0.86540  0.61310  Biso   1.000  H
  N133     1.0000 0.57441  0.80408  0.61843  Biso   1.000  N
  N134     1.0000 0.54661  0.78040  0.60739  Biso   1.000  N
  N135     1.0000 0.54587  0.78426  0.66660  Biso   1.000  N
  H100     1.0000 0.53980  0.78070  0.68900  Biso   1.000  H
  N136     1.0000 0.50221  0.74514  0.63883  Biso   1.000  N
  H101     1.0000 0.49360  0.73560  0.61920  Biso   1.000  H
  H102     1.0000 0.49310  0.73940  0.65970  Biso   1.000  H
  C65      1.0000 0.48572  0.93712  0.68958  Biso   1.000  C
  C66      1.0000 0.50372  0.89514  0.65207  Biso   1.000  C
  C67      1.0000 0.57310  0.80605  0.65440  Biso   1.000  C
  C68      1.0000 0.53009  0.76916  0.63691  Biso   1.000  C
  Cu35     1.0000 0.58486  0.39082  0.17057  Biso   1.000  Cu
  Cu36     1.0000 0.55455  0.45317  0.23158  Biso   1.000  Cu
  S35      1.0000 0.45732  0.46856  0.21126  Biso   1.000  S
  S36      1.0000 0.60115  0.33097  0.18308  Biso   1.000  S
  N137     1.0000 0.51997  0.43046  0.19639  Biso   1.000  N
  N138     1.0000 0.53156  0.40285  0.17220  Biso   1.000  N
  N139     1.0000 0.47385  0.41510  0.16213  Biso   1.000  N
  H103     1.0000 0.45220  0.41400  0.15310  Biso   1.000  H
  N140     1.0000 0.50242  0.36874  0.12535  Biso   1.000  N
  H104     1.0000 0.52140  0.35560  0.12090  Biso   1.000  H
  H105     1.0000 0.48270  0.36540  0.11310  Biso   1.000  H
  N141     1.0000 0.57441  0.30408  0.11843  Biso   1.000  N
  N142     1.0000 0.54661  0.28040  0.10739  Biso   1.000  N
  N143     1.0000 0.54587  0.28426  0.16660  Biso   1.000  N
  H106     1.0000 0.53980  0.28070  0.18900  Biso   1.000  H
  N144     1.0000 0.50221  0.24514  0.13883  Biso   1.000  N
  H107     1.0000 0.49360  0.23560  0.11920  Biso   1.000  H
  H108     1.0000 0.49310  0.23940  0.15970  Biso   1.000  H
  C69      1.0000 0.48572  0.43712  0.18958  Biso   1.000  C
  C70      1.0000 0.50372  0.39514  0.15207  Biso   1.000  C
  C71      1.0000 0.57310  0.30605  0.15440  Biso   1.000  C
  C72      1.0000 0.53009  0.26916  0.13691  Biso   1.000  C
  Cu37     1.0000 0.08486  0.89082  0.17057  Biso   1.000  Cu
  Cu38     1.0000 0.05455  0.95317  0.23158  Biso   1.000  Cu
  S37      1.0000 0.95732  0.96856  0.21126  Biso   1.000  S
  S38      1.0000 0.10115  0.83097  0.18308  Biso   1.000  S
  N145     1.0000 0.01997  0.93046  0.19639  Biso   1.000  N
  N146     1.0000 0.03156  0.90285  0.17220  Biso   1.000  N
  N147     1.0000 0.97385  0.91510  0.16213  Biso   1.000  N
  H109     1.0000 0.95220  0.91400  0.15310  Biso   1.000  H
  N148     1.0000 0.00242  0.86874  0.12535  Biso   1.000  N
  H110     1.0000 0.02140  0.85560  0.12090  Biso   1.000  H
  H111     1.0000 0.98270  0.86540  0.11310  Biso   1.000  H
  N149     1.0000 0.07441  0.80408  0.11843  Biso   1.000  N
  N150     1.0000 0.04661  0.78040  0.10739  Biso   1.000  N
  N151     1.0000 0.04587  0.78426  0.16660  Biso   1.000  N
  H112     1.0000 0.03980  0.78070  0.18900  Biso   1.000  H
  N152     1.0000 0.00221  0.74514  0.13883  Biso   1.000  N
  H113     1.0000 0.99360  0.73560  0.11920  Biso   1.000  H
  H114     1.0000 0.99310  0.73940  0.15970  Biso   1.000  H
  C73      1.0000 0.98572  0.93712  0.18958  Biso   1.000  C
  C74      1.0000 0.00372  0.89514  0.15207  Biso   1.000  C
  C75      1.0000 0.07310  0.80605  0.15440  Biso   1.000  C
  C76      1.0000 0.03009  0.76916  0.13691  Biso   1.000  C
  Cu39     1.0000 0.08486  0.39082  0.67057  Biso   1.000  Cu
  Cu40     1.0000 0.05455  0.45317  0.73158  Biso   1.000  Cu
  S39      1.0000 0.95732  0.46856  0.71126  Biso   1.000  S
  S40      1.0000 0.10115  0.33097  0.68308  Biso   1.000  S
  N153     1.0000 0.01997  0.43046  0.69639  Biso   1.000  N
  N154     1.0000 0.03156  0.40285  0.67220  Biso   1.000  N
  N155     1.0000 0.97385  0.41510  0.66213  Biso   1.000  N
  H115     1.0000 0.95220  0.41400  0.65310  Biso   1.000  H
  N156     1.0000 0.00242  0.36874  0.62535  Biso   1.000  N
  H116     1.0000 0.02140  0.35560  0.62090  Biso   1.000  H
  H117     1.0000 0.98270  0.36540  0.61310  Biso   1.000  H
  N157     1.0000 0.07441  0.30408  0.61843  Biso   1.000  N
  N158     1.0000 0.04661  0.28040  0.60739  Biso   1.000  N
  N159     1.0000 0.04587  0.28426  0.66660  Biso   1.000  N
  H118     1.0000 0.03980  0.28070  0.68900  Biso   1.000  H
  N160     1.0000 0.00221  0.24514  0.63883  Biso   1.000  N
  H119     1.0000 0.99360  0.23560  0.61920  Biso   1.000  H
  H120     1.0000 0.99310  0.23940  0.65970  Biso   1.000  H
  C77      1.0000 0.98572  0.43712  0.68958  Biso   1.000  C
  C78      1.0000 0.00372  0.39514  0.65207  Biso   1.000  C
  C79      1.0000 0.07310  0.30605  0.65440  Biso   1.000  C
  C80      1.0000 0.03009  0.26916  0.63691  Biso   1.000  C
  Cu41     1.0000 0.58486  0.10918  0.32943  Biso   1.000  Cu
  Cu42     1.0000 0.55455  0.04683  0.26842  Biso   1.000  Cu
  S41      1.0000 0.45732  0.03144  0.28874  Biso   1.000  S
  S42      1.0000 0.60115  0.16903  0.31692  Biso   1.000  S
  N161     1.0000 0.51997  0.06954  0.30361  Biso   1.000  N
  N162     1.0000 0.53156  0.09715  0.32780  Biso   1.000  N
  N163     1.0000 0.47385  0.08490  0.33787  Biso   1.000  N
  H121     1.0000 0.45220  0.08600  0.34690  Biso   1.000  H
  N164     1.0000 0.50242  0.13126  0.37465  Biso   1.000  N
  H122     1.0000 0.52140  0.14440  0.37910  Biso   1.000  H
  H123     1.0000 0.48270  0.13460  0.38690  Biso   1.000  H
  N165     1.0000 0.57441  0.19592  0.38157  Biso   1.000  N
  N166     1.0000 0.54661  0.21960  0.39261  Biso   1.000  N
  N167     1.0000 0.54587  0.21574  0.33340  Biso   1.000  N
  H124     1.0000 0.53980  0.21930  0.31100  Biso   1.000  H
  N168     1.0000 0.50221  0.25486  0.36117  Biso   1.000  N
  H125     1.0000 0.49360  0.26440  0.38080  Biso   1.000  H
  H126     1.0000 0.49310  0.26060  0.34030  Biso   1.000  H
  C81      1.0000 0.48572  0.06288  0.31042  Biso   1.000  C
  C82      1.0000 0.50372  0.10486  0.34793  Biso   1.000  C
  C83      1.0000 0.57310  0.19395  0.34560  Biso   1.000  C
  C84      1.0000 0.53009  0.23084  0.36309  Biso   1.000  C
  Cu43     1.0000 0.58486  0.60918  0.82943  Biso   1.000  Cu
  Cu44     1.0000 0.55455  0.54683  0.76842  Biso   1.000  Cu
  S43      1.0000 0.45732  0.53144  0.78874  Biso   1.000  S
  S44      1.0000 0.60115  0.66903  0.81692  Biso   1.000  S
  N169     1.0000 0.51997  0.56954  0.80361  Biso   1.000  N
  N170     1.0000 0.53156  0.59715  0.82780  Biso   1.000  N
  N171     1.0000 0.47385  0.58490  0.83787  Biso   1.000  N
  H127     1.0000 0.45220  0.58600  0.84690  Biso   1.000  H
  N172     1.0000 0.50242  0.63126  0.87465  Biso   1.000  N
  H128     1.0000 0.52140  0.64440  0.87910  Biso   1.000  H
  H129     1.0000 0.48270  0.63460  0.88690  Biso   1.000  H
  N173     1.0000 0.57441  0.69592  0.88157  Biso   1.000  N
  N174     1.0000 0.54661  0.71960  0.89261  Biso   1.000  N
  N175     1.0000 0.54587  0.71574  0.83340  Biso   1.000  N
  H130     1.0000 0.53980  0.71930  0.81100  Biso   1.000  H
  N176     1.0000 0.50221  0.75486  0.86117  Biso   1.000  N
  H131     1.0000 0.49360  0.76440  0.88080  Biso   1.000  H
  H132     1.0000 0.49310  0.76060  0.84030  Biso   1.000  H
  C85      1.0000 0.48572  0.56288  0.81042  Biso   1.000  C
  C86      1.0000 0.50372  0.60486  0.84793  Biso   1.000  C
  C87      1.0000 0.57310  0.69395  0.84560  Biso   1.000  C
  C88      1.0000 0.53009  0.73084  0.86309  Biso   1.000  C
  Cu45     1.0000 0.08486  0.10918  0.82943  Biso   1.000  Cu
  Cu46     1.0000 0.05455  0.04683  0.76842  Biso   1.000  Cu
  S45      1.0000 0.95732  0.03144  0.78874  Biso   1.000  S
  S46      1.0000 0.10115  0.16903  0.81692  Biso   1.000  S
  N177     1.0000 0.01997  0.06954  0.80361  Biso   1.000  N
  N178     1.0000 0.03156  0.09715  0.82780  Biso   1.000  N
  N179     1.0000 0.97385  0.08490  0.83787  Biso   1.000  N
  H133     1.0000 0.95220  0.08600  0.84690  Biso   1.000  H
  N180     1.0000 0.00242  0.13126  0.87465  Biso   1.000  N
  H134     1.0000 0.02140  0.14440  0.87910  Biso   1.000  H
  H135     1.0000 0.98270  0.13460  0.88690  Biso   1.000  H
  N181     1.0000 0.07441  0.19592  0.88157  Biso   1.000  N
  N182     1.0000 0.04661  0.21960  0.89261  Biso   1.000  N
  N183     1.0000 0.04587  0.21574  0.83340  Biso   1.000  N
  H136     1.0000 0.03980  0.21930  0.81100  Biso   1.000  H
  N184     1.0000 0.00221  0.25486  0.86117  Biso   1.000  N
  H137     1.0000 0.99360  0.26440  0.88080  Biso   1.000  H
  H138     1.0000 0.99310  0.26060  0.84030  Biso   1.000  H
  C89      1.0000 0.98572  0.06288  0.81042  Biso   1.000  C
  C90      1.0000 0.00372  0.10486  0.84793  Biso   1.000  C
  C91      1.0000 0.07310  0.19395  0.84560  Biso   1.000  C
  C92      1.0000 0.03009  0.23084  0.86309  Biso   1.000  C
  Cu47     1.0000 0.08486  0.60918  0.32943  Biso   1.000  Cu
  Cu48     1.0000 0.05455  0.54683  0.26842  Biso   1.000  Cu
  S47      1.0000 0.95732  0.53144  0.28874  Biso   1.000  S
  S48      1.0000 0.10115  0.66903  0.31692  Biso   1.000  S
  N185     1.0000 0.01997  0.56954  0.30361  Biso   1.000  N
  N186     1.0000 0.03156  0.59715  0.32780  Biso   1.000  N
  N187     1.0000 0.97385  0.58490  0.33787  Biso   1.000  N
  H139     1.0000 0.95220  0.58600  0.34690  Biso   1.000  H
  N188     1.0000 0.00242  0.63126  0.37465  Biso   1.000  N
  H140     1.0000 0.02140  0.64440  0.37910  Biso   1.000  H
  H141     1.0000 0.98270  0.63460  0.38690  Biso   1.000  H
  N189     1.0000 0.07441  0.69592  0.38157  Biso   1.000  N
  N190     1.0000 0.04661  0.71960  0.39261  Biso   1.000  N
  N191     1.0000 0.04587  0.71574  0.33340  Biso   1.000  N
  H142     1.0000 0.03980  0.71930  0.31100  Biso   1.000  H
  N192     1.0000 0.00221  0.75486  0.36117  Biso   1.000  N
  H143     1.0000 0.99360  0.76440  0.38080  Biso   1.000  H
  H144     1.0000 0.99310  0.76060  0.34030  Biso   1.000  H
  C93      1.0000 0.98572  0.56288  0.31042  Biso   1.000  C
  C94      1.0000 0.00372  0.60486  0.34793  Biso   1.000  C
  C95      1.0000 0.07310  0.69395  0.34560  Biso   1.000  C
  C96      1.0000 0.03009  0.73084  0.36309  Biso   1.000  C
  Cu49     1.0000 0.41514  0.10918  0.67057  Biso   1.000  Cu
  Cu50     1.0000 0.44545  0.04683  0.73158  Biso   1.000  Cu
  S49      1.0000 0.54268  0.03144  0.71126  Biso   1.000  S
  S50      1.0000 0.39885  0.16903  0.68308  Biso   1.000  S
  N193     1.0000 0.48003  0.06954  0.69639  Biso   1.000  N
  N194     1.0000 0.46844  0.09715  0.67220  Biso   1.000  N
  N195     1.0000 0.52615  0.08490  0.66213  Biso   1.000  N
  H145     1.0000 0.54780  0.08600  0.65310  Biso   1.000  H
  N196     1.0000 0.49758  0.13126  0.62535  Biso   1.000  N
  H146     1.0000 0.47860  0.14440  0.62090  Biso   1.000  H
  H147     1.0000 0.51730  0.13460  0.61310  Biso   1.000  H
  N197     1.0000 0.42559  0.19592  0.61843  Biso   1.000  N
  N198     1.0000 0.45339  0.21960  0.60739  Biso   1.000  N
  N199     1.0000 0.45413  0.21574  0.66660  Biso   1.000  N
  H148     1.0000 0.46020  0.21930  0.68900  Biso   1.000  H
  N200     1.0000 0.49779  0.25486  0.63883  Biso   1.000  N
  H149     1.0000 0.50640  0.26440  0.61920  Biso   1.000  H
  H150     1.0000 0.50690  0.26060  0.65970  Biso   1.000  H
  C97      1.0000 0.51428  0.06288  0.68958  Biso   1.000  C
  C98      1.0000 0.49628  0.10486  0.65207  Biso   1.000  C
  C99      1.0000 0.42690  0.19395  0.65440  Biso   1.000  C
  C100     1.0000 0.46991  0.23084  0.63691  Biso   1.000  C
  Cu51     1.0000 0.41514  0.60918  0.17057  Biso   1.000  Cu
  Cu52     1.0000 0.44545  0.54683  0.23158  Biso   1.000  Cu
  S51      1.0000 0.54268  0.53144  0.21126  Biso   1.000  S
  S52      1.0000 0.39885  0.66903  0.18308  Biso   1.000  S
  N201     1.0000 0.48003  0.56954  0.19639  Biso   1.000  N
  N202     1.0000 0.46844  0.59715  0.17220  Biso   1.000  N
  N203     1.0000 0.52615  0.58490  0.16213  Biso   1.000  N
  H151     1.0000 0.54780  0.58600  0.15310  Biso   1.000  H
  N204     1.0000 0.49758  0.63126  0.12535  Biso   1.000  N
  H152     1.0000 0.47860  0.64440  0.12090  Biso   1.000  H
  H153     1.0000 0.51730  0.63460  0.11310  Biso   1.000  H
  N205     1.0000 0.42559  0.69592  0.11843  Biso   1.000  N
  N206     1.0000 0.45339  0.71960  0.10739  Biso   1.000  N
  N207     1.0000 0.45413  0.71574  0.16660  Biso   1.000  N
  H154     1.0000 0.46020  0.71930  0.18900  Biso   1.000  H
  N208     1.0000 0.49779  0.75486  0.13883  Biso   1.000  N
  H155     1.0000 0.50640  0.76440  0.11920  Biso   1.000  H
  H156     1.0000 0.50690  0.76060  0.15970  Biso   1.000  H
  C101     1.0000 0.51428  0.56288  0.18958  Biso   1.000  C
  C102     1.0000 0.49628  0.60486  0.15207  Biso   1.000  C
  C103     1.0000 0.42690  0.69395  0.15440  Biso   1.000  C
  C104     1.0000 0.46991  0.73084  0.13691  Biso   1.000  C
  Cu53     1.0000 0.91514  0.10918  0.17057  Biso   1.000  Cu
  Cu54     1.0000 0.94545  0.04683  0.23158  Biso   1.000  Cu
  S53      1.0000 0.04268  0.03144  0.21126  Biso   1.000  S
  S54      1.0000 0.89885  0.16903  0.18308  Biso   1.000  S
  N209     1.0000 0.98003  0.06954  0.19639  Biso   1.000  N
  N210     1.0000 0.96844  0.09715  0.17220  Biso   1.000  N
  N211     1.0000 0.02615  0.08490  0.16213  Biso   1.000  N
  H157     1.0000 0.04780  0.08600  0.15310  Biso   1.000  H
  N212     1.0000 0.99758  0.13126  0.12535  Biso   1.000  N
  H158     1.0000 0.97860  0.14440  0.12090  Biso   1.000  H
  H159     1.0000 0.01730  0.13460  0.11310  Biso   1.000  H
  N213     1.0000 0.92559  0.19592  0.11843  Biso   1.000  N
  N214     1.0000 0.95339  0.21960  0.10739  Biso   1.000  N
  N215     1.0000 0.95413  0.21574  0.16660  Biso   1.000  N
  H160     1.0000 0.96020  0.21930  0.18900  Biso   1.000  H
  N216     1.0000 0.99779  0.25486  0.13883  Biso   1.000  N
  H161     1.0000 0.00640  0.26440  0.11920  Biso   1.000  H
  H162     1.0000 0.00690  0.26060  0.15970  Biso   1.000  H
  C105     1.0000 0.01428  0.06288  0.18958  Biso   1.000  C
  C106     1.0000 0.99628  0.10486  0.15207  Biso   1.000  C
  C107     1.0000 0.92690  0.19395  0.15440  Biso   1.000  C
  C108     1.0000 0.96991  0.23084  0.13691  Biso   1.000  C
  Cu55     1.0000 0.91514  0.60918  0.67057  Biso   1.000  Cu
  Cu56     1.0000 0.94545  0.54683  0.73158  Biso   1.000  Cu
  S55      1.0000 0.04268  0.53144  0.71126  Biso   1.000  S
  S56      1.0000 0.89885  0.66903  0.68308  Biso   1.000  S
  N217     1.0000 0.98003  0.56954  0.69639  Biso   1.000  N
  N218     1.0000 0.96844  0.59715  0.67220  Biso   1.000  N
  N219     1.0000 0.02615  0.58490  0.66213  Biso   1.000  N
  H163     1.0000 0.04780  0.58600  0.65310  Biso   1.000  H
  N220     1.0000 0.99758  0.63126  0.62535  Biso   1.000  N
  H164     1.0000 0.97860  0.64440  0.62090  Biso   1.000  H
  H165     1.0000 0.01730  0.63460  0.61310  Biso   1.000  H
  N221     1.0000 0.92559  0.69592  0.61843  Biso   1.000  N
  N222     1.0000 0.95339  0.71960  0.60739  Biso   1.000  N
  N223     1.0000 0.95413  0.71574  0.66660  Biso   1.000  N
  H166     1.0000 0.96020  0.71930  0.68900  Biso   1.000  H
  N224     1.0000 0.99779  0.75486  0.63883  Biso   1.000  N
  H167     1.0000 0.00640  0.76440  0.61920  Biso   1.000  H
  H168     1.0000 0.00690  0.76060  0.65970  Biso   1.000  H
  C109     1.0000 0.01428  0.56288  0.68958  Biso   1.000  C
  C110     1.0000 0.99628  0.60486  0.65207  Biso   1.000  C
  C111     1.0000 0.92690  0.69395  0.65440  Biso   1.000  C
  C112     1.0000 0.96991  0.73084  0.63691  Biso   1.000  C
  Cu57     1.0000 0.41514  0.89082  0.32943  Biso   1.000  Cu
  Cu58     1.0000 0.44545  0.95317  0.26842  Biso   1.000  Cu
  S57      1.0000 0.54268  0.96856  0.28874  Biso   1.000  S
  S58      1.0000 0.39885  0.83097  0.31692  Biso   1.000  S
  N225     1.0000 0.48003  0.93046  0.30361  Biso   1.000  N
  N226     1.0000 0.46844  0.90285  0.32780  Biso   1.000  N
  N227     1.0000 0.52615  0.91510  0.33787  Biso   1.000  N
  H169     1.0000 0.54780  0.91400  0.34690  Biso   1.000  H
  N228     1.0000 0.49758  0.86874  0.37465  Biso   1.000  N
  H170     1.0000 0.47860  0.85560  0.37910  Biso   1.000  H
  H171     1.0000 0.51730  0.86540  0.38690  Biso   1.000  H
  N229     1.0000 0.42559  0.80408  0.38157  Biso   1.000  N
  N230     1.0000 0.45339  0.78040  0.39261  Biso   1.000  N
  N231     1.0000 0.45413  0.78426  0.33340  Biso   1.000  N
  H172     1.0000 0.46020  0.78070  0.31100  Biso   1.000  H
  N232     1.0000 0.49779  0.74514  0.36117  Biso   1.000  N
  H173     1.0000 0.50640  0.73560  0.38080  Biso   1.000  H
  H174     1.0000 0.50690  0.73940  0.34030  Biso   1.000  H
  C113     1.0000 0.51428  0.93712  0.31042  Biso   1.000  C
  C114     1.0000 0.49628  0.89514  0.34793  Biso   1.000  C
  C115     1.0000 0.42690  0.80605  0.34560  Biso   1.000  C
  C116     1.0000 0.46991  0.76916  0.36309  Biso   1.000  C
  Cu59     1.0000 0.41514  0.39082  0.82943  Biso   1.000  Cu
  Cu60     1.0000 0.44545  0.45317  0.76842  Biso   1.000  Cu
  S59      1.0000 0.54268  0.46856  0.78874  Biso   1.000  S
  S60      1.0000 0.39885  0.33097  0.81692  Biso   1.000  S
  N233     1.0000 0.48003  0.43046  0.80361  Biso   1.000  N
  N234     1.0000 0.46844  0.40285  0.82780  Biso   1.000  N
  N235     1.0000 0.52615  0.41510  0.83787  Biso   1.000  N
  H175     1.0000 0.54780  0.41400  0.84690  Biso   1.000  H
  N236     1.0000 0.49758  0.36874  0.87465  Biso   1.000  N
  H176     1.0000 0.47860  0.35560  0.87910  Biso   1.000  H
  H177     1.0000 0.51730  0.36540  0.88690  Biso   1.000  H
  N237     1.0000 0.42559  0.30408  0.88157  Biso   1.000  N
  N238     1.0000 0.45339  0.28040  0.89261  Biso   1.000  N
  N239     1.0000 0.45413  0.28426  0.83340  Biso   1.000  N
  H178     1.0000 0.46020  0.28070  0.81100  Biso   1.000  H
  N240     1.0000 0.49779  0.24514  0.86117  Biso   1.000  N
  H179     1.0000 0.50640  0.23560  0.88080  Biso   1.000  H
  H180     1.0000 0.50690  0.23940  0.84030  Biso   1.000  H
  C117     1.0000 0.51428  0.43712  0.81042  Biso   1.000  C
  C118     1.0000 0.49628  0.39514  0.84793  Biso   1.000  C
  C119     1.0000 0.42690  0.30605  0.84560  Biso   1.000  C
  C120     1.0000 0.46991  0.26916  0.86309  Biso   1.000  C
  Cu61     1.0000 0.91514  0.89082  0.82943  Biso   1.000  Cu
  Cu62     1.0000 0.94545  0.95317  0.76842  Biso   1.000  Cu
  S61      1.0000 0.04268  0.96856  0.78874  Biso   1.000  S
  S62      1.0000 0.89885  0.83097  0.81692  Biso   1.000  S
  N241     1.0000 0.98003  0.93046  0.80361  Biso   1.000  N
  N242     1.0000 0.96844  0.90285  0.82780  Biso   1.000  N
  N243     1.0000 0.02615  0.91510  0.83787  Biso   1.000  N
  H181     1.0000 0.04780  0.91400  0.84690  Biso   1.000  H
  N244     1.0000 0.99758  0.86874  0.87465  Biso   1.000  N
  H182     1.0000 0.97860  0.85560  0.87910  Biso   1.000  H
  H183     1.0000 0.01730  0.86540  0.88690  Biso   1.000  H
  N245     1.0000 0.92559  0.80408  0.88157  Biso   1.000  N
  N246     1.0000 0.95339  0.78040  0.89261  Biso   1.000  N
  N247     1.0000 0.95413  0.78426  0.83340  Biso   1.000  N
  H184     1.0000 0.96020  0.78070  0.81100  Biso   1.000  H
  N248     1.0000 0.99779  0.74514  0.86117  Biso   1.000  N
  H185     1.0000 0.00640  0.73560  0.88080  Biso   1.000  H
  H186     1.0000 0.00690  0.73940  0.84030  Biso   1.000  H
  C121     1.0000 0.01428  0.93712  0.81042  Biso   1.000  C
  C122     1.0000 0.99628  0.89514  0.84793  Biso   1.000  C
  C123     1.0000 0.92690  0.80605  0.84560  Biso   1.000  C
  C124     1.0000 0.96991  0.76916  0.86309  Biso   1.000  C
  Cu63     1.0000 0.91514  0.39082  0.32943  Biso   1.000  Cu
  Cu64     1.0000 0.94545  0.45317  0.26842  Biso   1.000  Cu
  S63      1.0000 0.04268  0.46856  0.28874  Biso   1.000  S
  S64      1.0000 0.89885  0.33097  0.31692  Biso   1.000  S
  N249     1.0000 0.98003  0.43046  0.30361  Biso   1.000  N
  N250     1.0000 0.96844  0.40285  0.32780  Biso   1.000  N
  N251     1.0000 0.02615  0.41510  0.33787  Biso   1.000  N
  H187     1.0000 0.04780  0.41400  0.34690  Biso   1.000  H
  N252     1.0000 0.99758  0.36874  0.37465  Biso   1.000  N
  H188     1.0000 0.97860  0.35560  0.37910  Biso   1.000  H
  H189     1.0000 0.01730  0.36540  0.38690  Biso   1.000  H
  N253     1.0000 0.92559  0.30408  0.38157  Biso   1.000  N
  N254     1.0000 0.95339  0.28040  0.39261  Biso   1.000  N
  N255     1.0000 0.95413  0.28426  0.33340  Biso   1.000  N
  H190     1.0000 0.96020  0.28070  0.31100  Biso   1.000  H
  N256     1.0000 0.99779  0.24514  0.36117  Biso   1.000  N
  H191     1.0000 0.00640  0.23560  0.38080  Biso   1.000  H
  H192     1.0000 0.00690  0.23940  0.34030  Biso   1.000  H
  C125     1.0000 0.01428  0.43712  0.31042  Biso   1.000  C
  C126     1.0000 0.99628  0.39514  0.34793  Biso   1.000  C
  C127     1.0000 0.92690  0.30605  0.34560  Biso   1.000  C
  C128     1.0000 0.96991  0.26916  0.36309  Biso   1.000  C
  Cu65     1.0000 0.67057  0.58486  0.89082  Biso   1.000  Cu
  Cu66     1.0000 0.73158  0.55455  0.95317  Biso   1.000  Cu
  S65      1.0000 0.71126  0.45732  0.96856  Biso   1.000  S
  S66      1.0000 0.68308  0.60115  0.83097  Biso   1.000  S
  N257     1.0000 0.69639  0.51997  0.93046  Biso   1.000  N
  N258     1.0000 0.67220  0.53156  0.90285  Biso   1.000  N
  N259     1.0000 0.66213  0.47385  0.91510  Biso   1.000  N
  H193     1.0000 0.65310  0.45220  0.91400  Biso   1.000  H
  N260     1.0000 0.62535  0.50242  0.86874  Biso   1.000  N
  H194     1.0000 0.62090  0.52140  0.85560  Biso   1.000  H
  H195     1.0000 0.61310  0.48270  0.86540  Biso   1.000  H
  N261     1.0000 0.61843  0.57441  0.80408  Biso   1.000  N
  N262     1.0000 0.60739  0.54661  0.78040  Biso   1.000  N
  N263     1.0000 0.66660  0.54587  0.78426  Biso   1.000  N
  H196     1.0000 0.68900  0.53980  0.78070  Biso   1.000  H
  N264     1.0000 0.63883  0.50221  0.74514  Biso   1.000  N
  H197     1.0000 0.61920  0.49360  0.73560  Biso   1.000  H
  H198     1.0000 0.65970  0.49310  0.73940  Biso   1.000  H
  C129     1.0000 0.68958  0.48572  0.93712  Biso   1.000  C
  C130     1.0000 0.65207  0.50372  0.89514  Biso   1.000  C
  C131     1.0000 0.65440  0.57310  0.80605  Biso   1.000  C
  C132     1.0000 0.63691  0.53009  0.76916  Biso   1.000  C
  Cu67     1.0000 0.67057  0.08486  0.39082  Biso   1.000  Cu
  Cu68     1.0000 0.73158  0.05455  0.45317  Biso   1.000  Cu
  S67      1.0000 0.71126  0.95732  0.46856  Biso   1.000  S
  S68      1.0000 0.68308  0.10115  0.33097  Biso   1.000  S
  N265     1.0000 0.69639  0.01997  0.43046  Biso   1.000  N
  N266     1.0000 0.67220  0.03156  0.40285  Biso   1.000  N
  N267     1.0000 0.66213  0.97385  0.41510  Biso   1.000  N
  H199     1.0000 0.65310  0.95220  0.41400  Biso   1.000  H
  N268     1.0000 0.62535  0.00242  0.36874  Biso   1.000  N
  H200     1.0000 0.62090  0.02140  0.35560  Biso   1.000  H
  H201     1.0000 0.61310  0.98270  0.36540  Biso   1.000  H
  N269     1.0000 0.61843  0.07441  0.30408  Biso   1.000  N
  N270     1.0000 0.60739  0.04661  0.28040  Biso   1.000  N
  N271     1.0000 0.66660  0.04587  0.28426  Biso   1.000  N
  H202     1.0000 0.68900  0.03980  0.28070  Biso   1.000  H
  N272     1.0000 0.63883  0.00221  0.24514  Biso   1.000  N
  H203     1.0000 0.61920  0.99360  0.23560  Biso   1.000  H
  H204     1.0000 0.65970  0.99310  0.23940  Biso   1.000  H
  C133     1.0000 0.68958  0.98572  0.43712  Biso   1.000  C
  C134     1.0000 0.65207  0.00372  0.39514  Biso   1.000  C
  C135     1.0000 0.65440  0.07310  0.30605  Biso   1.000  C
  C136     1.0000 0.63691  0.03009  0.26916  Biso   1.000  C
  Cu69     1.0000 0.17057  0.58486  0.39082  Biso   1.000  Cu
  Cu70     1.0000 0.23158  0.55455  0.45317  Biso   1.000  Cu
  S69      1.0000 0.21126  0.45732  0.46856  Biso   1.000  S
  S70      1.0000 0.18308  0.60115  0.33097  Biso   1.000  S
  N273     1.0000 0.19639  0.51997  0.43046  Biso   1.000  N
  N274     1.0000 0.17220  0.53156  0.40285  Biso   1.000  N
  N275     1.0000 0.16213  0.47385  0.41510  Biso   1.000  N
  H205     1.0000 0.15310  0.45220  0.41400  Biso   1.000  H
  N276     1.0000 0.12535  0.50242  0.36874  Biso   1.000  N
  H206     1.0000 0.12090  0.52140  0.35560  Biso   1.000  H
  H207     1.0000 0.11310  0.48270  0.36540  Biso   1.000  H
  N277     1.0000 0.11843  0.57441  0.30408  Biso   1.000  N
  N278     1.0000 0.10739  0.54661  0.28040  Biso   1.000  N
  N279     1.0000 0.16660  0.54587  0.28426  Biso   1.000  N
  H208     1.0000 0.18900  0.53980  0.28070  Biso   1.000  H
  N280     1.0000 0.13883  0.50221  0.24514  Biso   1.000  N
  H209     1.0000 0.11920  0.49360  0.23560  Biso   1.000  H
  H210     1.0000 0.15970  0.49310  0.23940  Biso   1.000  H
  C137     1.0000 0.18958  0.48572  0.43712  Biso   1.000  C
  C138     1.0000 0.15207  0.50372  0.39514  Biso   1.000  C
  C139     1.0000 0.15440  0.57310  0.30605  Biso   1.000  C
  C140     1.0000 0.13691  0.53009  0.26916  Biso   1.000  C
  Cu71     1.0000 0.17057  0.08486  0.89082  Biso   1.000  Cu
  Cu72     1.0000 0.23158  0.05455  0.95317  Biso   1.000  Cu
  S71      1.0000 0.21126  0.95732  0.96856  Biso   1.000  S
  S72      1.0000 0.18308  0.10115  0.83097  Biso   1.000  S
  N281     1.0000 0.19639  0.01997  0.93046  Biso   1.000  N
  N282     1.0000 0.17220  0.03156  0.90285  Biso   1.000  N
  N283     1.0000 0.16213  0.97385  0.91510  Biso   1.000  N
  H211     1.0000 0.15310  0.95220  0.91400  Biso   1.000  H
  N284     1.0000 0.12535  0.00242  0.86874  Biso   1.000  N
  H212     1.0000 0.12090  0.02140  0.85560  Biso   1.000  H
  H213     1.0000 0.11310  0.98270  0.86540  Biso   1.000  H
  N285     1.0000 0.11843  0.07441  0.80408  Biso   1.000  N
  N286     1.0000 0.10739  0.04661  0.78040  Biso   1.000  N
  N287     1.0000 0.16660  0.04587  0.78426  Biso   1.000  N
  H214     1.0000 0.18900  0.03980  0.78070  Biso   1.000  H
  N288     1.0000 0.13883  0.00221  0.74514  Biso   1.000  N
  H215     1.0000 0.11920  0.99360  0.73560  Biso   1.000  H
  H216     1.0000 0.15970  0.99310  0.73940  Biso   1.000  H
  C141     1.0000 0.18958  0.98572  0.93712  Biso   1.000  C
  C142     1.0000 0.15207  0.00372  0.89514  Biso   1.000  C
  C143     1.0000 0.15440  0.07310  0.80605  Biso   1.000  C
  C144     1.0000 0.13691  0.03009  0.76916  Biso   1.000  C
  Cu73     1.0000 0.32943  0.58486  0.10918  Biso   1.000  Cu
  Cu74     1.0000 0.26842  0.55455  0.04683  Biso   1.000  Cu
  S73      1.0000 0.28874  0.45732  0.03144  Biso   1.000  S
  S74      1.0000 0.31692  0.60115  0.16903  Biso   1.000  S
  N289     1.0000 0.30361  0.51997  0.06954  Biso   1.000  N
  N290     1.0000 0.32780  0.53156  0.09715  Biso   1.000  N
  N291     1.0000 0.33787  0.47385  0.08490  Biso   1.000  N
  H217     1.0000 0.34690  0.45220  0.08600  Biso   1.000  H
  N292     1.0000 0.37465  0.50242  0.13126  Biso   1.000  N
  H218     1.0000 0.37910  0.52140  0.14440  Biso   1.000  H
  H219     1.0000 0.38690  0.48270  0.13460  Biso   1.000  H
  N293     1.0000 0.38157  0.57441  0.19592  Biso   1.000  N
  N294     1.0000 0.39261  0.54661  0.21960  Biso   1.000  N
  N295     1.0000 0.33340  0.54587  0.21574  Biso   1.000  N
  H220     1.0000 0.31100  0.53980  0.21930  Biso   1.000  H
  N296     1.0000 0.36117  0.50221  0.25486  Biso   1.000  N
  H221     1.0000 0.38080  0.49360  0.26440  Biso   1.000  H
  H222     1.0000 0.34030  0.49310  0.26060  Biso   1.000  H
  C145     1.0000 0.31042  0.48572  0.06288  Biso   1.000  C
  C146     1.0000 0.34793  0.50372  0.10486  Biso   1.000  C
  C147     1.0000 0.34560  0.57310  0.19395  Biso   1.000  C
  C148     1.0000 0.36309  0.53009  0.23084  Biso   1.000  C
  Cu75     1.0000 0.32943  0.08486  0.60918  Biso   1.000  Cu
  Cu76     1.0000 0.26842  0.05455  0.54683  Biso   1.000  Cu
  S75      1.0000 0.28874  0.95732  0.53144  Biso   1.000  S
  S76      1.0000 0.31692  0.10115  0.66903  Biso   1.000  S
  N297     1.0000 0.30361  0.01997  0.56954  Biso   1.000  N
  N298     1.0000 0.32780  0.03156  0.59715  Biso   1.000  N
  N299     1.0000 0.33787  0.97385  0.58490  Biso   1.000  N
  H223     1.0000 0.34690  0.95220  0.58600  Biso   1.000  H
  N300     1.0000 0.37465  0.00242  0.63126  Biso   1.000  N
  H224     1.0000 0.37910  0.02140  0.64440  Biso   1.000  H
  H225     1.0000 0.38690  0.98270  0.63460  Biso   1.000  H
  N301     1.0000 0.38157  0.07441  0.69592  Biso   1.000  N
  N302     1.0000 0.39261  0.04661  0.71960  Biso   1.000  N
  N303     1.0000 0.33340  0.04587  0.71574  Biso   1.000  N
  H226     1.0000 0.31100  0.03980  0.71930  Biso   1.000  H
  N304     1.0000 0.36117  0.00221  0.75486  Biso   1.000  N
  H227     1.0000 0.38080  0.99360  0.76440  Biso   1.000  H
  H228     1.0000 0.34030  0.99310  0.76060  Biso   1.000  H
  C149     1.0000 0.31042  0.98572  0.56288  Biso   1.000  C
  C150     1.0000 0.34793  0.00372  0.60486  Biso   1.000  C
  C151     1.0000 0.34560  0.07310  0.69395  Biso   1.000  C
  C152     1.0000 0.36309  0.03009  0.73084  Biso   1.000  C
  Cu77     1.0000 0.82943  0.58486  0.60918  Biso   1.000  Cu
  Cu78     1.0000 0.76842  0.55455  0.54683  Biso   1.000  Cu
  S77      1.0000 0.78874  0.45732  0.53144  Biso   1.000  S
  S78      1.0000 0.81692  0.60115  0.66903  Biso   1.000  S
  N305     1.0000 0.80361  0.51997  0.56954  Biso   1.000  N
  N306     1.0000 0.82780  0.53156  0.59715  Biso   1.000  N
  N307     1.0000 0.83787  0.47385  0.58490  Biso   1.000  N
  H229     1.0000 0.84690  0.45220  0.58600  Biso   1.000  H
  N308     1.0000 0.87465  0.50242  0.63126  Biso   1.000  N
  H230     1.0000 0.87910  0.52140  0.64440  Biso   1.000  H
  H231     1.0000 0.88690  0.48270  0.63460  Biso   1.000  H
  N309     1.0000 0.88157  0.57441  0.69592  Biso   1.000  N
  N310     1.0000 0.89261  0.54661  0.71960  Biso   1.000  N
  N311     1.0000 0.83340  0.54587  0.71574  Biso   1.000  N
  H232     1.0000 0.81100  0.53980  0.71930  Biso   1.000  H
  N312     1.0000 0.86117  0.50221  0.75486  Biso   1.000  N
  H233     1.0000 0.88080  0.49360  0.76440  Biso   1.000  H
  H234     1.0000 0.84030  0.49310  0.76060  Biso   1.000  H
  C153     1.0000 0.81042  0.48572  0.56288  Biso   1.000  C
  C154     1.0000 0.84793  0.50372  0.60486  Biso   1.000  C
  C155     1.0000 0.84560  0.57310  0.69395  Biso   1.000  C
  C156     1.0000 0.86309  0.53009  0.73084  Biso   1.000  C
  Cu79     1.0000 0.82943  0.08486  0.10918  Biso   1.000  Cu
  Cu80     1.0000 0.76842  0.05455  0.04683  Biso   1.000  Cu
  S79      1.0000 0.78874  0.95732  0.03144  Biso   1.000  S
  S80      1.0000 0.81692  0.10115  0.16903  Biso   1.000  S
  N313     1.0000 0.80361  0.01997  0.06954  Biso   1.000  N
  N314     1.0000 0.82780  0.03156  0.09715  Biso   1.000  N
  N315     1.0000 0.83787  0.97385  0.08490  Biso   1.000  N
  H235     1.0000 0.84690  0.95220  0.08600  Biso   1.000  H
  N316     1.0000 0.87465  0.00242  0.13126  Biso   1.000  N
  H236     1.0000 0.87910  0.02140  0.14440  Biso   1.000  H
  H237     1.0000 0.88690  0.98270  0.13460  Biso   1.000  H
  N317     1.0000 0.88157  0.07441  0.19592  Biso   1.000  N
  N318     1.0000 0.89261  0.04661  0.21960  Biso   1.000  N
  N319     1.0000 0.83340  0.04587  0.21574  Biso   1.000  N
  H238     1.0000 0.81100  0.03980  0.21930  Biso   1.000  H
  N320     1.0000 0.86117  0.00221  0.25486  Biso   1.000  N
  H239     1.0000 0.88080  0.99360  0.26440  Biso   1.000  H
  H240     1.0000 0.84030  0.99310  0.26060  Biso   1.000  H
  C157     1.0000 0.81042  0.98572  0.06288  Biso   1.000  C
  C158     1.0000 0.84793  0.00372  0.10486  Biso   1.000  C
  C159     1.0000 0.84560  0.07310  0.19395  Biso   1.000  C
  C160     1.0000 0.86309  0.03009  0.23084  Biso   1.000  C
  Cu81     1.0000 0.67057  0.41514  0.10918  Biso   1.000  Cu
  Cu82     1.0000 0.73158  0.44545  0.04683  Biso   1.000  Cu
  S81      1.0000 0.71126  0.54268  0.03144  Biso   1.000  S
  S82      1.0000 0.68308  0.39885  0.16903  Biso   1.000  S
  N321     1.0000 0.69639  0.48003  0.06954  Biso   1.000  N
  N322     1.0000 0.67220  0.46844  0.09715  Biso   1.000  N
  N323     1.0000 0.66213  0.52615  0.08490  Biso   1.000  N
  H241     1.0000 0.65310  0.54780  0.08600  Biso   1.000  H
  N324     1.0000 0.62535  0.49758  0.13126  Biso   1.000  N
  H242     1.0000 0.62090  0.47860  0.14440  Biso   1.000  H
  H243     1.0000 0.61310  0.51730  0.13460  Biso   1.000  H
  N325     1.0000 0.61843  0.42559  0.19592  Biso   1.000  N
  N326     1.0000 0.60739  0.45339  0.21960  Biso   1.000  N
  N327     1.0000 0.66660  0.45413  0.21574  Biso   1.000  N
  H244     1.0000 0.68900  0.46020  0.21930  Biso   1.000  H
  N328     1.0000 0.63883  0.49779  0.25486  Biso   1.000  N
  H245     1.0000 0.61920  0.50640  0.26440  Biso   1.000  H
  H246     1.0000 0.65970  0.50690  0.26060  Biso   1.000  H
  C161     1.0000 0.68958  0.51428  0.06288  Biso   1.000  C
  C162     1.0000 0.65207  0.49628  0.10486  Biso   1.000  C
  C163     1.0000 0.65440  0.42690  0.19395  Biso   1.000  C
  C164     1.0000 0.63691  0.46991  0.23084  Biso   1.000  C
  Cu83     1.0000 0.67057  0.91514  0.60918  Biso   1.000  Cu
  Cu84     1.0000 0.73158  0.94545  0.54683  Biso   1.000  Cu
  S83      1.0000 0.71126  0.04268  0.53144  Biso   1.000  S
  S84      1.0000 0.68308  0.89885  0.66903  Biso   1.000  S
  N329     1.0000 0.69639  0.98003  0.56954  Biso   1.000  N
  N330     1.0000 0.67220  0.96844  0.59715  Biso   1.000  N
  N331     1.0000 0.66213  0.02615  0.58490  Biso   1.000  N
  H247     1.0000 0.65310  0.04780  0.58600  Biso   1.000  H
  N332     1.0000 0.62535  0.99758  0.63126  Biso   1.000  N
  H248     1.0000 0.62090  0.97860  0.64440  Biso   1.000  H
  H249     1.0000 0.61310  0.01730  0.63460  Biso   1.000  H
  N333     1.0000 0.61843  0.92559  0.69592  Biso   1.000  N
  N334     1.0000 0.60739  0.95339  0.71960  Biso   1.000  N
  N335     1.0000 0.66660  0.95413  0.71574  Biso   1.000  N
  H250     1.0000 0.68900  0.96020  0.71930  Biso   1.000  H
  N336     1.0000 0.63883  0.99779  0.75486  Biso   1.000  N
  H251     1.0000 0.61920  0.00640  0.76440  Biso   1.000  H
  H252     1.0000 0.65970  0.00690  0.76060  Biso   1.000  H
  C165     1.0000 0.68958  0.01428  0.56288  Biso   1.000  C
  C166     1.0000 0.65207  0.99628  0.60486  Biso   1.000  C
  C167     1.0000 0.65440  0.92690  0.69395  Biso   1.000  C
  C168     1.0000 0.63691  0.96991  0.73084  Biso   1.000  C
  Cu85     1.0000 0.17057  0.41514  0.60918  Biso   1.000  Cu
  Cu86     1.0000 0.23158  0.44545  0.54683  Biso   1.000  Cu
  S85      1.0000 0.21126  0.54268  0.53144  Biso   1.000  S
  S86      1.0000 0.18308  0.39885  0.66903  Biso   1.000  S
  N337     1.0000 0.19639  0.48003  0.56954  Biso   1.000  N
  N338     1.0000 0.17220  0.46844  0.59715  Biso   1.000  N
  N339     1.0000 0.16213  0.52615  0.58490  Biso   1.000  N
  H253     1.0000 0.15310  0.54780  0.58600  Biso   1.000  H
  N340     1.0000 0.12535  0.49758  0.63126  Biso   1.000  N
  H254     1.0000 0.12090  0.47860  0.64440  Biso   1.000  H
  H255     1.0000 0.11310  0.51730  0.63460  Biso   1.000  H
  N341     1.0000 0.11843  0.42559  0.69592  Biso   1.000  N
  N342     1.0000 0.10739  0.45339  0.71960  Biso   1.000  N
  N343     1.0000 0.16660  0.45413  0.71574  Biso   1.000  N
  H256     1.0000 0.18900  0.46020  0.71930  Biso   1.000  H
  N344     1.0000 0.13883  0.49779  0.75486  Biso   1.000  N
  H257     1.0000 0.11920  0.50640  0.76440  Biso   1.000  H
  H258     1.0000 0.15970  0.50690  0.76060  Biso   1.000  H
  C169     1.0000 0.18958  0.51428  0.56288  Biso   1.000  C
  C170     1.0000 0.15207  0.49628  0.60486  Biso   1.000  C
  C171     1.0000 0.15440  0.42690  0.69395  Biso   1.000  C
  C172     1.0000 0.13691  0.46991  0.73084  Biso   1.000  C
  Cu87     1.0000 0.17057  0.91514  0.10918  Biso   1.000  Cu
  Cu88     1.0000 0.23158  0.94545  0.04683  Biso   1.000  Cu
  S87      1.0000 0.21126  0.04268  0.03144  Biso   1.000  S
  S88      1.0000 0.18308  0.89885  0.16903  Biso   1.000  S
  N345     1.0000 0.19639  0.98003  0.06954  Biso   1.000  N
  N346     1.0000 0.17220  0.96844  0.09715  Biso   1.000  N
  N347     1.0000 0.16213  0.02615  0.08490  Biso   1.000  N
  H259     1.0000 0.15310  0.04780  0.08600  Biso   1.000  H
  N348     1.0000 0.12535  0.99758  0.13126  Biso   1.000  N
  H260     1.0000 0.12090  0.97860  0.14440  Biso   1.000  H
  H261     1.0000 0.11310  0.01730  0.13460  Biso   1.000  H
  N349     1.0000 0.11843  0.92559  0.19592  Biso   1.000  N
  N350     1.0000 0.10739  0.95339  0.21960  Biso   1.000  N
  N351     1.0000 0.16660  0.95413  0.21574  Biso   1.000  N
  H262     1.0000 0.18900  0.96020  0.21930  Biso   1.000  H
  N352     1.0000 0.13883  0.99779  0.25486  Biso   1.000  N
  H263     1.0000 0.11920  0.00640  0.26440  Biso   1.000  H
  H264     1.0000 0.15970  0.00690  0.26060  Biso   1.000  H
  C173     1.0000 0.18958  0.01428  0.06288  Biso   1.000  C
  C174     1.0000 0.15207  0.99628  0.10486  Biso   1.000  C
  C175     1.0000 0.15440  0.92690  0.19395  Biso   1.000  C
  C176     1.0000 0.13691  0.96991  0.23084  Biso   1.000  C
  Cu89     1.0000 0.32943  0.41514  0.89082  Biso   1.000  Cu
  Cu90     1.0000 0.26842  0.44545  0.95317  Biso   1.000  Cu
  S89      1.0000 0.28874  0.54268  0.96856  Biso   1.000  S
  S90      1.0000 0.31692  0.39885  0.83097  Biso   1.000  S
  N353     1.0000 0.30361  0.48003  0.93046  Biso   1.000  N
  N354     1.0000 0.32780  0.46844  0.90285  Biso   1.000  N
  N355     1.0000 0.33787  0.52615  0.91510  Biso   1.000  N
  H265     1.0000 0.34690  0.54780  0.91400  Biso   1.000  H
  N356     1.0000 0.37465  0.49758  0.86874  Biso   1.000  N
  H266     1.0000 0.37910  0.47860  0.85560  Biso   1.000  H
  H267     1.0000 0.38690  0.51730  0.86540  Biso   1.000  H
  N357     1.0000 0.38157  0.42559  0.80408  Biso   1.000  N
  N358     1.0000 0.39261  0.45339  0.78040  Biso   1.000  N
  N359     1.0000 0.33340  0.45413  0.78426  Biso   1.000  N
  H268     1.0000 0.31100  0.46020  0.78070  Biso   1.000  H
  N360     1.0000 0.36117  0.49779  0.74514  Biso   1.000  N
  H269     1.0000 0.38080  0.50640  0.73560  Biso   1.000  H
  H270     1.0000 0.34030  0.50690  0.73940  Biso   1.000  H
  C177     1.0000 0.31042  0.51428  0.93712  Biso   1.000  C
  C178     1.0000 0.34793  0.49628  0.89514  Biso   1.000  C
  C179     1.0000 0.34560  0.42690  0.80605  Biso   1.000  C
  C180     1.0000 0.36309  0.46991  0.76916  Biso   1.000  C
  Cu91     1.0000 0.32943  0.91514  0.39082  Biso   1.000  Cu
  Cu92     1.0000 0.26842  0.94545  0.45317  Biso   1.000  Cu
  S91      1.0000 0.28874  0.04268  0.46856  Biso   1.000  S
  S92      1.0000 0.31692  0.89885  0.33097  Biso   1.000  S
  N361     1.0000 0.30361  0.98003  0.43046  Biso   1.000  N
  N362     1.0000 0.32780  0.96844  0.40285  Biso   1.000  N
  N363     1.0000 0.33787  0.02615  0.41510  Biso   1.000  N
  H271     1.0000 0.34690  0.04780  0.41400  Biso   1.000  H
  N364     1.0000 0.37465  0.99758  0.36874  Biso   1.000  N
  H272     1.0000 0.37910  0.97860  0.35560  Biso   1.000  H
  H273     1.0000 0.38690  0.01730  0.36540  Biso   1.000  H
  N365     1.0000 0.38157  0.92559  0.30408  Biso   1.000  N
  N366     1.0000 0.39261  0.95339  0.28040  Biso   1.000  N
  N367     1.0000 0.33340  0.95413  0.28426  Biso   1.000  N
  H274     1.0000 0.31100  0.96020  0.28070  Biso   1.000  H
  N368     1.0000 0.36117  0.99779  0.24514  Biso   1.000  N
  H275     1.0000 0.38080  0.00640  0.23560  Biso   1.000  H
  H276     1.0000 0.34030  0.00690  0.23940  Biso   1.000  H
  C181     1.0000 0.31042  0.01428  0.43712  Biso   1.000  C
  C182     1.0000 0.34793  0.99628  0.39514  Biso   1.000  C
  C183     1.0000 0.34560  0.92690  0.30605  Biso   1.000  C
  C184     1.0000 0.36309  0.96991  0.26916  Biso   1.000  C
  Cu93     1.0000 0.82943  0.41514  0.39082  Biso   1.000  Cu
  Cu94     1.0000 0.76842  0.44545  0.45317  Biso   1.000  Cu
  S93      1.0000 0.78874  0.54268  0.46856  Biso   1.000  S
  S94      1.0000 0.81692  0.39885  0.33097  Biso   1.000  S
  N369     1.0000 0.80361  0.48003  0.43046  Biso   1.000  N
  N370     1.0000 0.82780  0.46844  0.40285  Biso   1.000  N
  N371     1.0000 0.83787  0.52615  0.41510  Biso   1.000  N
  H277     1.0000 0.84690  0.54780  0.41400  Biso   1.000  H
  N372     1.0000 0.87465  0.49758  0.36874  Biso   1.000  N
  H278     1.0000 0.87910  0.47860  0.35560  Biso   1.000  H
  H279     1.0000 0.88690  0.51730  0.36540  Biso   1.000  H
  N373     1.0000 0.88157  0.42559  0.30408  Biso   1.000  N
  N374     1.0000 0.89261  0.45339  0.28040  Biso   1.000  N
  N375     1.0000 0.83340  0.45413  0.28426  Biso   1.000  N
  H280     1.0000 0.81100  0.46020  0.28070  Biso   1.000  H
  N376     1.0000 0.86117  0.49779  0.24514  Biso   1.000  N
  H281     1.0000 0.88080  0.50640  0.23560  Biso   1.000  H
  H282     1.0000 0.84030  0.50690  0.23940  Biso   1.000  H
  C185     1.0000 0.81042  0.51428  0.43712  Biso   1.000  C
  C186     1.0000 0.84793  0.49628  0.39514  Biso   1.000  C
  C187     1.0000 0.84560  0.42690  0.30605  Biso   1.000  C
  C188     1.0000 0.86309  0.46991  0.26916  Biso   1.000  C
  Cu95     1.0000 0.82943  0.91514  0.89082  Biso   1.000  Cu
  Cu96     1.0000 0.76842  0.94545  0.95317  Biso   1.000  Cu
  S95      1.0000 0.78874  0.04268  0.96856  Biso   1.000  S
  S96      1.0000 0.81692  0.89885  0.83097  Biso   1.000  S
  N377     1.0000 0.80361  0.98003  0.93046  Biso   1.000  N
  N378     1.0000 0.82780  0.96844  0.90285  Biso   1.000  N
  N379     1.0000 0.83787  0.02615  0.91510  Biso   1.000  N
  H283     1.0000 0.84690  0.04780  0.91400  Biso   1.000  H
  N380     1.0000 0.87465  0.99758  0.86874  Biso   1.000  N
  H284     1.0000 0.87910  0.97860  0.85560  Biso   1.000  H
  H285     1.0000 0.88690  0.01730  0.86540  Biso   1.000  H
  N381     1.0000 0.88157  0.92559  0.80408  Biso   1.000  N
  N382     1.0000 0.89261  0.95339  0.78040  Biso   1.000  N
  N383     1.0000 0.83340  0.95413  0.78426  Biso   1.000  N
  H286     1.0000 0.81100  0.96020  0.78070  Biso   1.000  H
  N384     1.0000 0.86117  0.99779  0.74514  Biso   1.000  N
  H287     1.0000 0.88080  0.00640  0.73560  Biso   1.000  H
  H288     1.0000 0.84030  0.00690  0.73940  Biso   1.000  H
  C189     1.0000 0.81042  0.01428  0.93712  Biso   1.000  C
  C190     1.0000 0.84793  0.99628  0.89514  Biso   1.000  C
  C191     1.0000 0.84560  0.92690  0.80605  Biso   1.000  C
  C192     1.0000 0.86309  0.96991  0.76916  Biso   1.000  C
  Cu97     1.0000 0.17057  0.39082  0.08486  Biso   1.000  Cu
  Cu98     1.0000 0.23158  0.45317  0.05455  Biso   1.000  Cu
  S97      1.0000 0.21126  0.46856  0.95732  Biso   1.000  S
  S98      1.0000 0.18308  0.33097  0.10115  Biso   1.000  S
  N385     1.0000 0.19639  0.43046  0.01997  Biso   1.000  N
  N386     1.0000 0.17220  0.40285  0.03156  Biso   1.000  N
  N387     1.0000 0.16213  0.41510  0.97385  Biso   1.000  N
  H289     1.0000 0.15310  0.41400  0.95220  Biso   1.000  H
  N388     1.0000 0.12535  0.36874  0.00242  Biso   1.000  N
  H290     1.0000 0.12090  0.35560  0.02140  Biso   1.000  H
  H291     1.0000 0.11310  0.36540  0.98270  Biso   1.000  H
  N389     1.0000 0.11843  0.30408  0.07441  Biso   1.000  N
  N390     1.0000 0.10739  0.28040  0.04661  Biso   1.000  N
  N391     1.0000 0.16660  0.28426  0.04587  Biso   1.000  N
  H292     1.0000 0.18900  0.28070  0.03980  Biso   1.000  H
  N392     1.0000 0.13883  0.24514  0.00221  Biso   1.000  N
  H293     1.0000 0.11920  0.23560  0.99360  Biso   1.000  H
  H294     1.0000 0.15970  0.23940  0.99310  Biso   1.000  H
  C193     1.0000 0.18958  0.43712  0.98572  Biso   1.000  C
  C194     1.0000 0.15207  0.39514  0.00372  Biso   1.000  C
  C195     1.0000 0.15440  0.30605  0.07310  Biso   1.000  C
  C196     1.0000 0.13691  0.26916  0.03009  Biso   1.000  C
  Cu99     1.0000 0.17057  0.89082  0.58486  Biso   1.000  Cu
  Cu100    1.0000 0.23158  0.95317  0.55455  Biso   1.000  Cu
  S99      1.0000 0.21126  0.96856  0.45732  Biso   1.000  S
  S100     1.0000 0.18308  0.83097  0.60115  Biso   1.000  S
  N393     1.0000 0.19639  0.93046  0.51997  Biso   1.000  N
  N394     1.0000 0.17220  0.90285  0.53156  Biso   1.000  N
  N395     1.0000 0.16213  0.91510  0.47385  Biso   1.000  N
  H295     1.0000 0.15310  0.91400  0.45220  Biso   1.000  H
  N396     1.0000 0.12535  0.86874  0.50242  Biso   1.000  N
  H296     1.0000 0.12090  0.85560  0.52140  Biso   1.000  H
  H297     1.0000 0.11310  0.86540  0.48270  Biso   1.000  H
  N397     1.0000 0.11843  0.80408  0.57441  Biso   1.000  N
  N398     1.0000 0.10739  0.78040  0.54661  Biso   1.000  N
  N399     1.0000 0.16660  0.78426  0.54587  Biso   1.000  N
  H298     1.0000 0.18900  0.78070  0.53980  Biso   1.000  H
  N400     1.0000 0.13883  0.74514  0.50221  Biso   1.000  N
  H299     1.0000 0.11920  0.73560  0.49360  Biso   1.000  H
  H300     1.0000 0.15970  0.73940  0.49310  Biso   1.000  H
  C197     1.0000 0.18958  0.93712  0.48572  Biso   1.000  C
  C198     1.0000 0.15207  0.89514  0.50372  Biso   1.000  C
  C199     1.0000 0.15440  0.80605  0.57310  Biso   1.000  C
  C200     1.0000 0.13691  0.76916  0.53009  Biso   1.000  C
  Cu101    1.0000 0.67057  0.39082  0.58486  Biso   1.000  Cu
  Cu102    1.0000 0.73158  0.45317  0.55455  Biso   1.000  Cu
  S101     1.0000 0.71126  0.46856  0.45732  Biso   1.000  S
  S102     1.0000 0.68308  0.33097  0.60115  Biso   1.000  S
  N401     1.0000 0.69639  0.43046  0.51997  Biso   1.000  N
  N402     1.0000 0.67220  0.40285  0.53156  Biso   1.000  N
  N403     1.0000 0.66213  0.41510  0.47385  Biso   1.000  N
  H301     1.0000 0.65310  0.41400  0.45220  Biso   1.000  H
  N404     1.0000 0.62535  0.36874  0.50242  Biso   1.000  N
  H302     1.0000 0.62090  0.35560  0.52140  Biso   1.000  H
  H303     1.0000 0.61310  0.36540  0.48270  Biso   1.000  H
  N405     1.0000 0.61843  0.30408  0.57441  Biso   1.000  N
  N406     1.0000 0.60739  0.28040  0.54661  Biso   1.000  N
  N407     1.0000 0.66660  0.28426  0.54587  Biso   1.000  N
  H304     1.0000 0.68900  0.28070  0.53980  Biso   1.000  H
  N408     1.0000 0.63883  0.24514  0.50221  Biso   1.000  N
  H305     1.0000 0.61920  0.23560  0.49360  Biso   1.000  H
  H306     1.0000 0.65970  0.23940  0.49310  Biso   1.000  H
  C201     1.0000 0.68958  0.43712  0.48572  Biso   1.000  C
  C202     1.0000 0.65207  0.39514  0.50372  Biso   1.000  C
  C203     1.0000 0.65440  0.30605  0.57310  Biso   1.000  C
  C204     1.0000 0.63691  0.26916  0.53009  Biso   1.000  C
  Cu103    1.0000 0.67057  0.89082  0.08486  Biso   1.000  Cu
  Cu104    1.0000 0.73158  0.95317  0.05455  Biso   1.000  Cu
  S103     1.0000 0.71126  0.96856  0.95732  Biso   1.000  S
  S104     1.0000 0.68308  0.83097  0.10115  Biso   1.000  S
  N409     1.0000 0.69639  0.93046  0.01997  Biso   1.000  N
  N410     1.0000 0.67220  0.90285  0.03156  Biso   1.000  N
  N411     1.0000 0.66213  0.91510  0.97385  Biso   1.000  N
  H307     1.0000 0.65310  0.91400  0.95220  Biso   1.000  H
  N412     1.0000 0.62535  0.86874  0.00242  Biso   1.000  N
  H308     1.0000 0.62090  0.85560  0.02140  Biso   1.000  H
  H309     1.0000 0.61310  0.86540  0.98270  Biso   1.000  H
  N413     1.0000 0.61843  0.80408  0.07441  Biso   1.000  N
  N414     1.0000 0.60739  0.78040  0.04661  Biso   1.000  N
  N415     1.0000 0.66660  0.78426  0.04587  Biso   1.000  N
  H310     1.0000 0.68900  0.78070  0.03980  Biso   1.000  H
  N416     1.0000 0.63883  0.74514  0.00221  Biso   1.000  N
  H311     1.0000 0.61920  0.73560  0.99360  Biso   1.000  H
  H312     1.0000 0.65970  0.73940  0.99310  Biso   1.000  H
  C205     1.0000 0.68958  0.93712  0.98572  Biso   1.000  C
  C206     1.0000 0.65207  0.89514  0.00372  Biso   1.000  C
  C207     1.0000 0.65440  0.80605  0.07310  Biso   1.000  C
  C208     1.0000 0.63691  0.76916  0.03009  Biso   1.000  C
  Cu105    1.0000 0.82943  0.60918  0.08486  Biso   1.000  Cu
  Cu106    1.0000 0.76842  0.54683  0.05455  Biso   1.000  Cu
  S105     1.0000 0.78874  0.53144  0.95732  Biso   1.000  S
  S106     1.0000 0.81692  0.66903  0.10115  Biso   1.000  S
  N417     1.0000 0.80361  0.56954  0.01997  Biso   1.000  N
  N418     1.0000 0.82780  0.59715  0.03156  Biso   1.000  N
  N419     1.0000 0.83787  0.58490  0.97385  Biso   1.000  N
  H313     1.0000 0.84690  0.58600  0.95220  Biso   1.000  H
  N420     1.0000 0.87465  0.63126  0.00242  Biso   1.000  N
  H314     1.0000 0.87910  0.64440  0.02140  Biso   1.000  H
  H315     1.0000 0.88690  0.63460  0.98270  Biso   1.000  H
  N421     1.0000 0.88157  0.69592  0.07441  Biso   1.000  N
  N422     1.0000 0.89261  0.71960  0.04661  Biso   1.000  N
  N423     1.0000 0.83340  0.71574  0.04587  Biso   1.000  N
  H316     1.0000 0.81100  0.71930  0.03980  Biso   1.000  H
  N424     1.0000 0.86117  0.75486  0.00221  Biso   1.000  N
  H317     1.0000 0.88080  0.76440  0.99360  Biso   1.000  H
  H318     1.0000 0.84030  0.76060  0.99310  Biso   1.000  H
  C209     1.0000 0.81042  0.56288  0.98572  Biso   1.000  C
  C210     1.0000 0.84793  0.60486  0.00372  Biso   1.000  C
  C211     1.0000 0.84560  0.69395  0.07310  Biso   1.000  C
  C212     1.0000 0.86309  0.73084  0.03009  Biso   1.000  C
  Cu107    1.0000 0.82943  0.10918  0.58486  Biso   1.000  Cu
  Cu108    1.0000 0.76842  0.04683  0.55455  Biso   1.000  Cu
  S107     1.0000 0.78874  0.03144  0.45732  Biso   1.000  S
  S108     1.0000 0.81692  0.16903  0.60115  Biso   1.000  S
  N425     1.0000 0.80361  0.06954  0.51997  Biso   1.000  N
  N426     1.0000 0.82780  0.09715  0.53156  Biso   1.000  N
  N427     1.0000 0.83787  0.08490  0.47385  Biso   1.000  N
  H319     1.0000 0.84690  0.08600  0.45220  Biso   1.000  H
  N428     1.0000 0.87465  0.13126  0.50242  Biso   1.000  N
  H320     1.0000 0.87910  0.14440  0.52140  Biso   1.000  H
  H321     1.0000 0.88690  0.13460  0.48270  Biso   1.000  H
  N429     1.0000 0.88157  0.19592  0.57441  Biso   1.000  N
  N430     1.0000 0.89261  0.21960  0.54661  Biso   1.000  N
  N431     1.0000 0.83340  0.21574  0.54587  Biso   1.000  N
  H322     1.0000 0.81100  0.21930  0.53980  Biso   1.000  H
  N432     1.0000 0.86117  0.25486  0.50221  Biso   1.000  N
  H323     1.0000 0.88080  0.26440  0.49360  Biso   1.000  H
  H324     1.0000 0.84030  0.26060  0.49310  Biso   1.000  H
  C213     1.0000 0.81042  0.06288  0.48572  Biso   1.000  C
  C214     1.0000 0.84793  0.10486  0.50372  Biso   1.000  C
  C215     1.0000 0.84560  0.19395  0.57310  Biso   1.000  C
  C216     1.0000 0.86309  0.23084  0.53009  Biso   1.000  C
  Cu109    1.0000 0.32943  0.60918  0.58486  Biso   1.000  Cu
  Cu110    1.0000 0.26842  0.54683  0.55455  Biso   1.000  Cu
  S109     1.0000 0.28874  0.53144  0.45732  Biso   1.000  S
  S110     1.0000 0.31692  0.66903  0.60115  Biso   1.000  S
  N433     1.0000 0.30361  0.56954  0.51997  Biso   1.000  N
  N434     1.0000 0.32780  0.59715  0.53156  Biso   1.000  N
  N435     1.0000 0.33787  0.58490  0.47385  Biso   1.000  N
  H325     1.0000 0.34690  0.58600  0.45220  Biso   1.000  H
  N436     1.0000 0.37465  0.63126  0.50242  Biso   1.000  N
  H326     1.0000 0.37910  0.64440  0.52140  Biso   1.000  H
  H327     1.0000 0.38690  0.63460  0.48270  Biso   1.000  H
  N437     1.0000 0.38157  0.69592  0.57441  Biso   1.000  N
  N438     1.0000 0.39261  0.71960  0.54661  Biso   1.000  N
  N439     1.0000 0.33340  0.71574  0.54587  Biso   1.000  N
  H328     1.0000 0.31100  0.71930  0.53980  Biso   1.000  H
  N440     1.0000 0.36117  0.75486  0.50221  Biso   1.000  N
  H329     1.0000 0.38080  0.76440  0.49360  Biso   1.000  H
  H330     1.0000 0.34030  0.76060  0.49310  Biso   1.000  H
  C217     1.0000 0.31042  0.56288  0.48572  Biso   1.000  C
  C218     1.0000 0.34793  0.60486  0.50372  Biso   1.000  C
  C219     1.0000 0.34560  0.69395  0.57310  Biso   1.000  C
  C220     1.0000 0.36309  0.73084  0.53009  Biso   1.000  C
  Cu111    1.0000 0.32943  0.10918  0.08486  Biso   1.000  Cu
  Cu112    1.0000 0.26842  0.04683  0.05455  Biso   1.000  Cu
  S111     1.0000 0.28874  0.03144  0.95732  Biso   1.000  S
  S112     1.0000 0.31692  0.16903  0.10115  Biso   1.000  S
  N441     1.0000 0.30361  0.06954  0.01997  Biso   1.000  N
  N442     1.0000 0.32780  0.09715  0.03156  Biso   1.000  N
  N443     1.0000 0.33787  0.08490  0.97385  Biso   1.000  N
  H331     1.0000 0.34690  0.08600  0.95220  Biso   1.000  H
  N444     1.0000 0.37465  0.13126  0.00242  Biso   1.000  N
  H332     1.0000 0.37910  0.14440  0.02140  Biso   1.000  H
  H333     1.0000 0.38690  0.13460  0.98270  Biso   1.000  H
  N445     1.0000 0.38157  0.19592  0.07441  Biso   1.000  N
  N446     1.0000 0.39261  0.21960  0.04661  Biso   1.000  N
  N447     1.0000 0.33340  0.21574  0.04587  Biso   1.000  N
  H334     1.0000 0.31100  0.21930  0.03980  Biso   1.000  H
  N448     1.0000 0.36117  0.25486  0.00221  Biso   1.000  N
  H335     1.0000 0.38080  0.26440  0.99360  Biso   1.000  H
  H336     1.0000 0.34030  0.26060  0.99310  Biso   1.000  H
  C221     1.0000 0.31042  0.06288  0.98572  Biso   1.000  C
  C222     1.0000 0.34793  0.10486  0.00372  Biso   1.000  C
  C223     1.0000 0.34560  0.19395  0.07310  Biso   1.000  C
  C224     1.0000 0.36309  0.23084  0.03009  Biso   1.000  C
  Cu113    1.0000 0.17057  0.60918  0.91514  Biso   1.000  Cu
  Cu114    1.0000 0.23158  0.54683  0.94545  Biso   1.000  Cu
  S113     1.0000 0.21126  0.53144  0.04268  Biso   1.000  S
  S114     1.0000 0.18308  0.66903  0.89885  Biso   1.000  S
  N449     1.0000 0.19639  0.56954  0.98003  Biso   1.000  N
  N450     1.0000 0.17220  0.59715  0.96844  Biso   1.000  N
  N451     1.0000 0.16213  0.58490  0.02615  Biso   1.000  N
  H337     1.0000 0.15310  0.58600  0.04780  Biso   1.000  H
  N452     1.0000 0.12535  0.63126  0.99758  Biso   1.000  N
  H338     1.0000 0.12090  0.64440  0.97860  Biso   1.000  H
  H339     1.0000 0.11310  0.63460  0.01730  Biso   1.000  H
  N453     1.0000 0.11843  0.69592  0.92559  Biso   1.000  N
  N454     1.0000 0.10739  0.71960  0.95339  Biso   1.000  N
  N455     1.0000 0.16660  0.71574  0.95413  Biso   1.000  N
  H340     1.0000 0.18900  0.71930  0.96020  Biso   1.000  H
  N456     1.0000 0.13883  0.75486  0.99779  Biso   1.000  N
  H341     1.0000 0.11920  0.76440  0.00640  Biso   1.000  H
  H342     1.0000 0.15970  0.76060  0.00690  Biso   1.000  H
  C225     1.0000 0.18958  0.56288  0.01428  Biso   1.000  C
  C226     1.0000 0.15207  0.60486  0.99628  Biso   1.000  C
  C227     1.0000 0.15440  0.69395  0.92690  Biso   1.000  C
  C228     1.0000 0.13691  0.73084  0.96991  Biso   1.000  C
  Cu115    1.0000 0.17057  0.10918  0.41514  Biso   1.000  Cu
  Cu116    1.0000 0.23158  0.04683  0.44545  Biso   1.000  Cu
  S115     1.0000 0.21126  0.03144  0.54268  Biso   1.000  S
  S116     1.0000 0.18308  0.16903  0.39885  Biso   1.000  S
  N457     1.0000 0.19639  0.06954  0.48003  Biso   1.000  N
  N458     1.0000 0.17220  0.09715  0.46844  Biso   1.000  N
  N459     1.0000 0.16213  0.08490  0.52615  Biso   1.000  N
  H343     1.0000 0.15310  0.08600  0.54780  Biso   1.000  H
  N460     1.0000 0.12535  0.13126  0.49758  Biso   1.000  N
  H344     1.0000 0.12090  0.14440  0.47860  Biso   1.000  H
  H345     1.0000 0.11310  0.13460  0.51730  Biso   1.000  H
  N461     1.0000 0.11843  0.19592  0.42559  Biso   1.000  N
  N462     1.0000 0.10739  0.21960  0.45339  Biso   1.000  N
  N463     1.0000 0.16660  0.21574  0.45413  Biso   1.000  N
  H346     1.0000 0.18900  0.21930  0.46020  Biso   1.000  H
  N464     1.0000 0.13883  0.25486  0.49779  Biso   1.000  N
  H347     1.0000 0.11920  0.26440  0.50640  Biso   1.000  H
  H348     1.0000 0.15970  0.26060  0.50690  Biso   1.000  H
  C229     1.0000 0.18958  0.06288  0.51428  Biso   1.000  C
  C230     1.0000 0.15207  0.10486  0.49628  Biso   1.000  C
  C231     1.0000 0.15440  0.19395  0.42690  Biso   1.000  C
  C232     1.0000 0.13691  0.23084  0.46991  Biso   1.000  C
  Cu117    1.0000 0.67057  0.60918  0.41514  Biso   1.000  Cu
  Cu118    1.0000 0.73158  0.54683  0.44545  Biso   1.000  Cu
  S117     1.0000 0.71126  0.53144  0.54268  Biso   1.000  S
  S118     1.0000 0.68308  0.66903  0.39885  Biso   1.000  S
  N465     1.0000 0.69639  0.56954  0.48003  Biso   1.000  N
  N466     1.0000 0.67220  0.59715  0.46844  Biso   1.000  N
  N467     1.0000 0.66213  0.58490  0.52615  Biso   1.000  N
  H349     1.0000 0.65310  0.58600  0.54780  Biso   1.000  H
  N468     1.0000 0.62535  0.63126  0.49758  Biso   1.000  N
  H350     1.0000 0.62090  0.64440  0.47860  Biso   1.000  H
  H351     1.0000 0.61310  0.63460  0.51730  Biso   1.000  H
  N469     1.0000 0.61843  0.69592  0.42559  Biso   1.000  N
  N470     1.0000 0.60739  0.71960  0.45339  Biso   1.000  N
  N471     1.0000 0.66660  0.71574  0.45413  Biso   1.000  N
  H352     1.0000 0.68900  0.71930  0.46020  Biso   1.000  H
  N472     1.0000 0.63883  0.75486  0.49779  Biso   1.000  N
  H353     1.0000 0.61920  0.76440  0.50640  Biso   1.000  H
  H354     1.0000 0.65970  0.76060  0.50690  Biso   1.000  H
  C233     1.0000 0.68958  0.56288  0.51428  Biso   1.000  C
  C234     1.0000 0.65207  0.60486  0.49628  Biso   1.000  C
  C235     1.0000 0.65440  0.69395  0.42690  Biso   1.000  C
  C236     1.0000 0.63691  0.73084  0.46991  Biso   1.000  C
  Cu119    1.0000 0.67057  0.10918  0.91514  Biso   1.000  Cu
  Cu120    1.0000 0.73158  0.04683  0.94545  Biso   1.000  Cu
  S119     1.0000 0.71126  0.03144  0.04268  Biso   1.000  S
  S120     1.0000 0.68308  0.16903  0.89885  Biso   1.000  S
  N473     1.0000 0.69639  0.06954  0.98003  Biso   1.000  N
  N474     1.0000 0.67220  0.09715  0.96844  Biso   1.000  N
  N475     1.0000 0.66213  0.08490  0.02615  Biso   1.000  N
  H355     1.0000 0.65310  0.08600  0.04780  Biso   1.000  H
  N476     1.0000 0.62535  0.13126  0.99758  Biso   1.000  N
  H356     1.0000 0.62090  0.14440  0.97860  Biso   1.000  H
  H357     1.0000 0.61310  0.13460  0.01730  Biso   1.000  H
  N477     1.0000 0.61843  0.19592  0.92559  Biso   1.000  N
  N478     1.0000 0.60739  0.21960  0.95339  Biso   1.000  N
  N479     1.0000 0.66660  0.21574  0.95413  Biso   1.000  N
  H358     1.0000 0.68900  0.21930  0.96020  Biso   1.000  H
  N480     1.0000 0.63883  0.25486  0.99779  Biso   1.000  N
  H359     1.0000 0.61920  0.26440  0.00640  Biso   1.000  H
  H360     1.0000 0.65970  0.26060  0.00690  Biso   1.000  H
  C237     1.0000 0.68958  0.06288  0.01428  Biso   1.000  C
  C238     1.0000 0.65207  0.10486  0.99628  Biso   1.000  C
  C239     1.0000 0.65440  0.19395  0.92690  Biso   1.000  C
  C240     1.0000 0.63691  0.23084  0.96991  Biso   1.000  C
  Cu121    1.0000 0.82943  0.39082  0.91514  Biso   1.000  Cu
  Cu122    1.0000 0.76842  0.45317  0.94545  Biso   1.000  Cu
  S121     1.0000 0.78874  0.46856  0.04268  Biso   1.000  S
  S122     1.0000 0.81692  0.33097  0.89885  Biso   1.000  S
  N481     1.0000 0.80361  0.43046  0.98003  Biso   1.000  N
  N482     1.0000 0.82780  0.40285  0.96844  Biso   1.000  N
  N483     1.0000 0.83787  0.41510  0.02615  Biso   1.000  N
  H361     1.0000 0.84690  0.41400  0.04780  Biso   1.000  H
  N484     1.0000 0.87465  0.36874  0.99758  Biso   1.000  N
  H362     1.0000 0.87910  0.35560  0.97860  Biso   1.000  H
  H363     1.0000 0.88690  0.36540  0.01730  Biso   1.000  H
  N485     1.0000 0.88157  0.30408  0.92559  Biso   1.000  N
  N486     1.0000 0.89261  0.28040  0.95339  Biso   1.000  N
  N487     1.0000 0.83340  0.28426  0.95413  Biso   1.000  N
  H364     1.0000 0.81100  0.28070  0.96020  Biso   1.000  H
  N488     1.0000 0.86117  0.24514  0.99779  Biso   1.000  N
  H365     1.0000 0.88080  0.23560  0.00640  Biso   1.000  H
  H366     1.0000 0.84030  0.23940  0.00690  Biso   1.000  H
  C241     1.0000 0.81042  0.43712  0.01428  Biso   1.000  C
  C242     1.0000 0.84793  0.39514  0.99628  Biso   1.000  C
  C243     1.0000 0.84560  0.30605  0.92690  Biso   1.000  C
  C244     1.0000 0.86309  0.26916  0.96991  Biso   1.000  C
  Cu123    1.0000 0.82943  0.89082  0.41514  Biso   1.000  Cu
  Cu124    1.0000 0.76842  0.95317  0.44545  Biso   1.000  Cu
  S123     1.0000 0.78874  0.96856  0.54268  Biso   1.000  S
  S124     1.0000 0.81692  0.83097  0.39885  Biso   1.000  S
  N489     1.0000 0.80361  0.93046  0.48003  Biso   1.000  N
  N490     1.0000 0.82780  0.90285  0.46844  Biso   1.000  N
  N491     1.0000 0.83787  0.91510  0.52615  Biso   1.000  N
  H367     1.0000 0.84690  0.91400  0.54780  Biso   1.000  H
  N492     1.0000 0.87465  0.86874  0.49758  Biso   1.000  N
  H368     1.0000 0.87910  0.85560  0.47860  Biso   1.000  H
  H369     1.0000 0.88690  0.86540  0.51730  Biso   1.000  H
  N493     1.0000 0.88157  0.80408  0.42559  Biso   1.000  N
  N494     1.0000 0.89261  0.78040  0.45339  Biso   1.000  N
  N495     1.0000 0.83340  0.78426  0.45413  Biso   1.000  N
  H370     1.0000 0.81100  0.78070  0.46020  Biso   1.000  H
  N496     1.0000 0.86117  0.74514  0.49779  Biso   1.000  N
  H371     1.0000 0.88080  0.73560  0.50640  Biso   1.000  H
  H372     1.0000 0.84030  0.73940  0.50690  Biso   1.000  H
  C245     1.0000 0.81042  0.93712  0.51428  Biso   1.000  C
  C246     1.0000 0.84793  0.89514  0.49628  Biso   1.000  C
  C247     1.0000 0.84560  0.80605  0.42690  Biso   1.000  C
  C248     1.0000 0.86309  0.76916  0.46991  Biso   1.000  C
  Cu125    1.0000 0.32943  0.39082  0.41514  Biso   1.000  Cu
  Cu126    1.0000 0.26842  0.45317  0.44545  Biso   1.000  Cu
  S125     1.0000 0.28874  0.46856  0.54268  Biso   1.000  S
  S126     1.0000 0.31692  0.33097  0.39885  Biso   1.000  S
  N497     1.0000 0.30361  0.43046  0.48003  Biso   1.000  N
  N498     1.0000 0.32780  0.40285  0.46844  Biso   1.000  N
  N499     1.0000 0.33787  0.41510  0.52615  Biso   1.000  N
  H373     1.0000 0.34690  0.41400  0.54780  Biso   1.000  H
  N500     1.0000 0.37465  0.36874  0.49758  Biso   1.000  N
  H374     1.0000 0.37910  0.35560  0.47860  Biso   1.000  H
  H375     1.0000 0.38690  0.36540  0.51730  Biso   1.000  H
  N501     1.0000 0.38157  0.30408  0.42559  Biso   1.000  N
  N502     1.0000 0.39261  0.28040  0.45339  Biso   1.000  N
  N503     1.0000 0.33340  0.28426  0.45413  Biso   1.000  N
  H376     1.0000 0.31100  0.28070  0.46020  Biso   1.000  H
  N504     1.0000 0.36117  0.24514  0.49779  Biso   1.000  N
  H377     1.0000 0.38080  0.23560  0.50640  Biso   1.000  H
  H378     1.0000 0.34030  0.23940  0.50690  Biso   1.000  H
  C249     1.0000 0.31042  0.43712  0.51428  Biso   1.000  C
  C250     1.0000 0.34793  0.39514  0.49628  Biso   1.000  C
  C251     1.0000 0.34560  0.30605  0.42690  Biso   1.000  C
  C252     1.0000 0.36309  0.26916  0.46991  Biso   1.000  C
  Cu127    1.0000 0.32943  0.89082  0.91514  Biso   1.000  Cu
  Cu128    1.0000 0.26842  0.95317  0.94545  Biso   1.000  Cu
  S127     1.0000 0.28874  0.96856  0.04268  Biso   1.000  S
  S128     1.0000 0.31692  0.83097  0.89885  Biso   1.000  S
  N505     1.0000 0.30361  0.93046  0.98003  Biso   1.000  N
  N506     1.0000 0.32780  0.90285  0.96844  Biso   1.000  N
  N507     1.0000 0.33787  0.91510  0.02615  Biso   1.000  N
  H379     1.0000 0.34690  0.91400  0.04780  Biso   1.000  H
  N508     1.0000 0.37465  0.86874  0.99758  Biso   1.000  N
  H380     1.0000 0.37910  0.85560  0.97860  Biso   1.000  H
  H381     1.0000 0.38690  0.86540  0.01730  Biso   1.000  H
  N509     1.0000 0.38157  0.80408  0.92559  Biso   1.000  N
  N510     1.0000 0.39261  0.78040  0.95339  Biso   1.000  N
  N511     1.0000 0.33340  0.78426  0.95413  Biso   1.000  N
  H382     1.0000 0.31100  0.78070  0.96020  Biso   1.000  H
  N512     1.0000 0.36117  0.74514  0.99779  Biso   1.000  N
  H383     1.0000 0.38080  0.73560  0.00640  Biso   1.000  H
  H384     1.0000 0.34030  0.73940  0.00690  Biso   1.000  H
  C253     1.0000 0.31042  0.93712  0.01428  Biso   1.000  C
  C254     1.0000 0.34793  0.89514  0.99628  Biso   1.000  C
  C255     1.0000 0.34560  0.80605  0.92690  Biso   1.000  C
  C256     1.0000 0.36309  0.76916  0.96991  Biso   1.000  C
  Cu129    1.0000 0.39082  0.08486  0.17057  Biso   1.000  Cu
  Cu130    1.0000 0.45317  0.05455  0.23158  Biso   1.000  Cu
  S129     1.0000 0.46856  0.95732  0.21126  Biso   1.000  S
  S130     1.0000 0.33097  0.10115  0.18308  Biso   1.000  S
  N513     1.0000 0.43046  0.01997  0.19639  Biso   1.000  N
  N514     1.0000 0.40285  0.03156  0.17220  Biso   1.000  N
  N515     1.0000 0.41510  0.97385  0.16213  Biso   1.000  N
  H385     1.0000 0.41400  0.95220  0.15310  Biso   1.000  H
  N516     1.0000 0.36874  0.00242  0.12535  Biso   1.000  N
  H386     1.0000 0.35560  0.02140  0.12090  Biso   1.000  H
  H387     1.0000 0.36540  0.98270  0.11310  Biso   1.000  H
  N517     1.0000 0.30408  0.07441  0.11843  Biso   1.000  N
  N518     1.0000 0.28040  0.04661  0.10739  Biso   1.000  N
  N519     1.0000 0.28426  0.04587  0.16660  Biso   1.000  N
  H388     1.0000 0.28070  0.03980  0.18900  Biso   1.000  H
  N520     1.0000 0.24514  0.00221  0.13883  Biso   1.000  N
  H389     1.0000 0.23560  0.99360  0.11920  Biso   1.000  H
  H390     1.0000 0.23940  0.99310  0.15970  Biso   1.000  H
  C257     1.0000 0.43712  0.98572  0.18958  Biso   1.000  C
  C258     1.0000 0.39514  0.00372  0.15207  Biso   1.000  C
  C259     1.0000 0.30605  0.07310  0.15440  Biso   1.000  C
  C260     1.0000 0.26916  0.03009  0.13691  Biso   1.000  C
  Cu131    1.0000 0.39082  0.58486  0.67057  Biso   1.000  Cu
  Cu132    1.0000 0.45317  0.55455  0.73158  Biso   1.000  Cu
  S131     1.0000 0.46856  0.45732  0.71126  Biso   1.000  S
  S132     1.0000 0.33097  0.60115  0.68308  Biso   1.000  S
  N521     1.0000 0.43046  0.51997  0.69639  Biso   1.000  N
  N522     1.0000 0.40285  0.53156  0.67220  Biso   1.000  N
  N523     1.0000 0.41510  0.47385  0.66213  Biso   1.000  N
  H391     1.0000 0.41400  0.45220  0.65310  Biso   1.000  H
  N524     1.0000 0.36874  0.50242  0.62535  Biso   1.000  N
  H392     1.0000 0.35560  0.52140  0.62090  Biso   1.000  H
  H393     1.0000 0.36540  0.48270  0.61310  Biso   1.000  H
  N525     1.0000 0.30408  0.57441  0.61843  Biso   1.000  N
  N526     1.0000 0.28040  0.54661  0.60739  Biso   1.000  N
  N527     1.0000 0.28426  0.54587  0.66660  Biso   1.000  N
  H394     1.0000 0.28070  0.53980  0.68900  Biso   1.000  H
  N528     1.0000 0.24514  0.50221  0.63883  Biso   1.000  N
  H395     1.0000 0.23560  0.49360  0.61920  Biso   1.000  H
  H396     1.0000 0.23940  0.49310  0.65970  Biso   1.000  H
  C261     1.0000 0.43712  0.48572  0.68958  Biso   1.000  C
  C262     1.0000 0.39514  0.50372  0.65207  Biso   1.000  C
  C263     1.0000 0.30605  0.57310  0.65440  Biso   1.000  C
  C264     1.0000 0.26916  0.53009  0.63691  Biso   1.000  C
  Cu133    1.0000 0.89082  0.08486  0.67057  Biso   1.000  Cu
  Cu134    1.0000 0.95317  0.05455  0.73158  Biso   1.000  Cu
  S133     1.0000 0.96856  0.95732  0.71126  Biso   1.000  S
  S134     1.0000 0.83097  0.10115  0.68308  Biso   1.000  S
  N529     1.0000 0.93046  0.01997  0.69639  Biso   1.000  N
  N530     1.0000 0.90285  0.03156  0.67220  Biso   1.000  N
  N531     1.0000 0.91510  0.97385  0.66213  Biso   1.000  N
  H397     1.0000 0.91400  0.95220  0.65310  Biso   1.000  H
  N532     1.0000 0.86874  0.00242  0.62535  Biso   1.000  N
  H398     1.0000 0.85560  0.02140  0.62090  Biso   1.000  H
  H399     1.0000 0.86540  0.98270  0.61310  Biso   1.000  H
  N533     1.0000 0.80408  0.07441  0.61843  Biso   1.000  N
  N534     1.0000 0.78040  0.04661  0.60739  Biso   1.000  N
  N535     1.0000 0.78426  0.04587  0.66660  Biso   1.000  N
  H400     1.0000 0.78070  0.03980  0.68900  Biso   1.000  H
  N536     1.0000 0.74514  0.00221  0.63883  Biso   1.000  N
  H401     1.0000 0.73560  0.99360  0.61920  Biso   1.000  H
  H402     1.0000 0.73940  0.99310  0.65970  Biso   1.000  H
  C265     1.0000 0.93712  0.98572  0.68958  Biso   1.000  C
  C266     1.0000 0.89514  0.00372  0.65207  Biso   1.000  C
  C267     1.0000 0.80605  0.07310  0.65440  Biso   1.000  C
  C268     1.0000 0.76916  0.03009  0.63691  Biso   1.000  C
  Cu135    1.0000 0.89082  0.58486  0.17057  Biso   1.000  Cu
  Cu136    1.0000 0.95317  0.55455  0.23158  Biso   1.000  Cu
  S135     1.0000 0.96856  0.45732  0.21126  Biso   1.000  S
  S136     1.0000 0.83097  0.60115  0.18308  Biso   1.000  S
  N537     1.0000 0.93046  0.51997  0.19639  Biso   1.000  N
  N538     1.0000 0.90285  0.53156  0.17220  Biso   1.000  N
  N539     1.0000 0.91510  0.47385  0.16213  Biso   1.000  N
  H403     1.0000 0.91400  0.45220  0.15310  Biso   1.000  H
  N540     1.0000 0.86874  0.50242  0.12535  Biso   1.000  N
  H404     1.0000 0.85560  0.52140  0.12090  Biso   1.000  H
  H405     1.0000 0.86540  0.48270  0.11310  Biso   1.000  H
  N541     1.0000 0.80408  0.57441  0.11843  Biso   1.000  N
  N542     1.0000 0.78040  0.54661  0.10739  Biso   1.000  N
  N543     1.0000 0.78426  0.54587  0.16660  Biso   1.000  N
  H406     1.0000 0.78070  0.53980  0.18900  Biso   1.000  H
  N544     1.0000 0.74514  0.50221  0.13883  Biso   1.000  N
  H407     1.0000 0.73560  0.49360  0.11920  Biso   1.000  H
  H408     1.0000 0.73940  0.49310  0.15970  Biso   1.000  H
  C269     1.0000 0.93712  0.48572  0.18958  Biso   1.000  C
  C270     1.0000 0.89514  0.50372  0.15207  Biso   1.000  C
  C271     1.0000 0.80605  0.57310  0.15440  Biso   1.000  C
  C272     1.0000 0.76916  0.53009  0.13691  Biso   1.000  C
  Cu137    1.0000 0.60918  0.08486  0.82943  Biso   1.000  Cu
  Cu138    1.0000 0.54683  0.05455  0.76842  Biso   1.000  Cu
  S137     1.0000 0.53144  0.95732  0.78874  Biso   1.000  S
  S138     1.0000 0.66903  0.10115  0.81692  Biso   1.000  S
  N545     1.0000 0.56954  0.01997  0.80361  Biso   1.000  N
  N546     1.0000 0.59715  0.03156  0.82780  Biso   1.000  N
  N547     1.0000 0.58490  0.97385  0.83787  Biso   1.000  N
  H409     1.0000 0.58600  0.95220  0.84690  Biso   1.000  H
  N548     1.0000 0.63126  0.00242  0.87465  Biso   1.000  N
  H410     1.0000 0.64440  0.02140  0.87910  Biso   1.000  H
  H411     1.0000 0.63460  0.98270  0.88690  Biso   1.000  H
  N549     1.0000 0.69592  0.07441  0.88157  Biso   1.000  N
  N550     1.0000 0.71960  0.04661  0.89261  Biso   1.000  N
  N551     1.0000 0.71574  0.04587  0.83340  Biso   1.000  N
  H412     1.0000 0.71930  0.03980  0.81100  Biso   1.000  H
  N552     1.0000 0.75486  0.00221  0.86117  Biso   1.000  N
  H413     1.0000 0.76440  0.99360  0.88080  Biso   1.000  H
  H414     1.0000 0.76060  0.99310  0.84030  Biso   1.000  H
  C273     1.0000 0.56288  0.98572  0.81042  Biso   1.000  C
  C274     1.0000 0.60486  0.00372  0.84793  Biso   1.000  C
  C275     1.0000 0.69395  0.07310  0.84560  Biso   1.000  C
  C276     1.0000 0.73084  0.03009  0.86309  Biso   1.000  C
  Cu139    1.0000 0.60918  0.58486  0.32943  Biso   1.000  Cu
  Cu140    1.0000 0.54683  0.55455  0.26842  Biso   1.000  Cu
  S139     1.0000 0.53144  0.45732  0.28874  Biso   1.000  S
  S140     1.0000 0.66903  0.60115  0.31692  Biso   1.000  S
  N553     1.0000 0.56954  0.51997  0.30361  Biso   1.000  N
  N554     1.0000 0.59715  0.53156  0.32780  Biso   1.000  N
  N555     1.0000 0.58490  0.47385  0.33787  Biso   1.000  N
  H415     1.0000 0.58600  0.45220  0.34690  Biso   1.000  H
  N556     1.0000 0.63126  0.50242  0.37465  Biso   1.000  N
  H416     1.0000 0.64440  0.52140  0.37910  Biso   1.000  H
  H417     1.0000 0.63460  0.48270  0.38690  Biso   1.000  H
  N557     1.0000 0.69592  0.57441  0.38157  Biso   1.000  N
  N558     1.0000 0.71960  0.54661  0.39261  Biso   1.000  N
  N559     1.0000 0.71574  0.54587  0.33340  Biso   1.000  N
  H418     1.0000 0.71930  0.53980  0.31100  Biso   1.000  H
  N560     1.0000 0.75486  0.50221  0.36117  Biso   1.000  N
  H419     1.0000 0.76440  0.49360  0.38080  Biso   1.000  H
  H420     1.0000 0.76060  0.49310  0.34030  Biso   1.000  H
  C277     1.0000 0.56288  0.48572  0.31042  Biso   1.000  C
  C278     1.0000 0.60486  0.50372  0.34793  Biso   1.000  C
  C279     1.0000 0.69395  0.57310  0.34560  Biso   1.000  C
  C280     1.0000 0.73084  0.53009  0.36309  Biso   1.000  C
  Cu141    1.0000 0.10918  0.08486  0.32943  Biso   1.000  Cu
  Cu142    1.0000 0.04683  0.05455  0.26842  Biso   1.000  Cu
  S141     1.0000 0.03144  0.95732  0.28874  Biso   1.000  S
  S142     1.0000 0.16903  0.10115  0.31692  Biso   1.000  S
  N561     1.0000 0.06954  0.01997  0.30361  Biso   1.000  N
  N562     1.0000 0.09715  0.03156  0.32780  Biso   1.000  N
  N563     1.0000 0.08490  0.97385  0.33787  Biso   1.000  N
  H421     1.0000 0.08600  0.95220  0.34690  Biso   1.000  H
  N564     1.0000 0.13126  0.00242  0.37465  Biso   1.000  N
  H422     1.0000 0.14440  0.02140  0.37910  Biso   1.000  H
  H423     1.0000 0.13460  0.98270  0.38690  Biso   1.000  H
  N565     1.0000 0.19592  0.07441  0.38157  Biso   1.000  N
  N566     1.0000 0.21960  0.04661  0.39261  Biso   1.000  N
  N567     1.0000 0.21574  0.04587  0.33340  Biso   1.000  N
  H424     1.0000 0.21930  0.03980  0.31100  Biso   1.000  H
  N568     1.0000 0.25486  0.00221  0.36117  Biso   1.000  N
  H425     1.0000 0.26440  0.99360  0.38080  Biso   1.000  H
  H426     1.0000 0.26060  0.99310  0.34030  Biso   1.000  H
  C281     1.0000 0.06288  0.98572  0.31042  Biso   1.000  C
  C282     1.0000 0.10486  0.00372  0.34793  Biso   1.000  C
  C283     1.0000 0.19395  0.07310  0.34560  Biso   1.000  C
  C284     1.0000 0.23084  0.03009  0.36309  Biso   1.000  C
  Cu143    1.0000 0.10918  0.58486  0.82943  Biso   1.000  Cu
  Cu144    1.0000 0.04683  0.55455  0.76842  Biso   1.000  Cu
  S143     1.0000 0.03144  0.45732  0.78874  Biso   1.000  S
  S144     1.0000 0.16903  0.60115  0.81692  Biso   1.000  S
  N569     1.0000 0.06954  0.51997  0.80361  Biso   1.000  N
  N570     1.0000 0.09715  0.53156  0.82780  Biso   1.000  N
  N571     1.0000 0.08490  0.47385  0.83787  Biso   1.000  N
  H427     1.0000 0.08600  0.45220  0.84690  Biso   1.000  H
  N572     1.0000 0.13126  0.50242  0.87465  Biso   1.000  N
  H428     1.0000 0.14440  0.52140  0.87910  Biso   1.000  H
  H429     1.0000 0.13460  0.48270  0.88690  Biso   1.000  H
  N573     1.0000 0.19592  0.57441  0.88157  Biso   1.000  N
  N574     1.0000 0.21960  0.54661  0.89261  Biso   1.000  N
  N575     1.0000 0.21574  0.54587  0.83340  Biso   1.000  N
  H430     1.0000 0.21930  0.53980  0.81100  Biso   1.000  H
  N576     1.0000 0.25486  0.50221  0.86117  Biso   1.000  N
  H431     1.0000 0.26440  0.49360  0.88080  Biso   1.000  H
  H432     1.0000 0.26060  0.49310  0.84030  Biso   1.000  H
  C285     1.0000 0.06288  0.48572  0.81042  Biso   1.000  C
  C286     1.0000 0.10486  0.50372  0.84793  Biso   1.000  C
  C287     1.0000 0.19395  0.57310  0.84560  Biso   1.000  C
  C288     1.0000 0.23084  0.53009  0.86309  Biso   1.000  C
  Cu145    1.0000 0.60918  0.91514  0.17057  Biso   1.000  Cu
  Cu146    1.0000 0.54683  0.94545  0.23158  Biso   1.000  Cu
  S145     1.0000 0.53144  0.04268  0.21126  Biso   1.000  S
  S146     1.0000 0.66903  0.89885  0.18308  Biso   1.000  S
  N577     1.0000 0.56954  0.98003  0.19639  Biso   1.000  N
  N578     1.0000 0.59715  0.96844  0.17220  Biso   1.000  N
  N579     1.0000 0.58490  0.02615  0.16213  Biso   1.000  N
  H433     1.0000 0.58600  0.04780  0.15310  Biso   1.000  H
  N580     1.0000 0.63126  0.99758  0.12535  Biso   1.000  N
  H434     1.0000 0.64440  0.97860  0.12090  Biso   1.000  H
  H435     1.0000 0.63460  0.01730  0.11310  Biso   1.000  H
  N581     1.0000 0.69592  0.92559  0.11843  Biso   1.000  N
  N582     1.0000 0.71960  0.95339  0.10739  Biso   1.000  N
  N583     1.0000 0.71574  0.95413  0.16660  Biso   1.000  N
  H436     1.0000 0.71930  0.96020  0.18900  Biso   1.000  H
  N584     1.0000 0.75486  0.99779  0.13883  Biso   1.000  N
  H437     1.0000 0.76440  0.00640  0.11920  Biso   1.000  H
  H438     1.0000 0.76060  0.00690  0.15970  Biso   1.000  H
  C289     1.0000 0.56288  0.01428  0.18958  Biso   1.000  C
  C290     1.0000 0.60486  0.99628  0.15207  Biso   1.000  C
  C291     1.0000 0.69395  0.92690  0.15440  Biso   1.000  C
  C292     1.0000 0.73084  0.96991  0.13691  Biso   1.000  C
  Cu147    1.0000 0.60918  0.41514  0.67057  Biso   1.000  Cu
  Cu148    1.0000 0.54683  0.44545  0.73158  Biso   1.000  Cu
  S147     1.0000 0.53144  0.54268  0.71126  Biso   1.000  S
  S148     1.0000 0.66903  0.39885  0.68308  Biso   1.000  S
  N585     1.0000 0.56954  0.48003  0.69639  Biso   1.000  N
  N586     1.0000 0.59715  0.46844  0.67220  Biso   1.000  N
  N587     1.0000 0.58490  0.52615  0.66213  Biso   1.000  N
  H439     1.0000 0.58600  0.54780  0.65310  Biso   1.000  H
  N588     1.0000 0.63126  0.49758  0.62535  Biso   1.000  N
  H440     1.0000 0.64440  0.47860  0.62090  Biso   1.000  H
  H441     1.0000 0.63460  0.51730  0.61310  Biso   1.000  H
  N589     1.0000 0.69592  0.42559  0.61843  Biso   1.000  N
  N590     1.0000 0.71960  0.45339  0.60739  Biso   1.000  N
  N591     1.0000 0.71574  0.45413  0.66660  Biso   1.000  N
  H442     1.0000 0.71930  0.46020  0.68900  Biso   1.000  H
  N592     1.0000 0.75486  0.49779  0.63883  Biso   1.000  N
  H443     1.0000 0.76440  0.50640  0.61920  Biso   1.000  H
  H444     1.0000 0.76060  0.50690  0.65970  Biso   1.000  H
  C293     1.0000 0.56288  0.51428  0.68958  Biso   1.000  C
  C294     1.0000 0.60486  0.49628  0.65207  Biso   1.000  C
  C295     1.0000 0.69395  0.42690  0.65440  Biso   1.000  C
  C296     1.0000 0.73084  0.46991  0.63691  Biso   1.000  C
  Cu149    1.0000 0.10918  0.91514  0.67057  Biso   1.000  Cu
  Cu150    1.0000 0.04683  0.94545  0.73158  Biso   1.000  Cu
  S149     1.0000 0.03144  0.04268  0.71126  Biso   1.000  S
  S150     1.0000 0.16903  0.89885  0.68308  Biso   1.000  S
  N593     1.0000 0.06954  0.98003  0.69639  Biso   1.000  N
  N594     1.0000 0.09715  0.96844  0.67220  Biso   1.000  N
  N595     1.0000 0.08490  0.02615  0.66213  Biso   1.000  N
  H445     1.0000 0.08600  0.04780  0.65310  Biso   1.000  H
  N596     1.0000 0.13126  0.99758  0.62535  Biso   1.000  N
  H446     1.0000 0.14440  0.97860  0.62090  Biso   1.000  H
  H447     1.0000 0.13460  0.01730  0.61310  Biso   1.000  H
  N597     1.0000 0.19592  0.92559  0.61843  Biso   1.000  N
  N598     1.0000 0.21960  0.95339  0.60739  Biso   1.000  N
  N599     1.0000 0.21574  0.95413  0.66660  Biso   1.000  N
  H448     1.0000 0.21930  0.96020  0.68900  Biso   1.000  H
  N600     1.0000 0.25486  0.99779  0.63883  Biso   1.000  N
  H449     1.0000 0.26440  0.00640  0.61920  Biso   1.000  H
  H450     1.0000 0.26060  0.00690  0.65970  Biso   1.000  H
  C297     1.0000 0.06288  0.01428  0.68958  Biso   1.000  C
  C298     1.0000 0.10486  0.99628  0.65207  Biso   1.000  C
  C299     1.0000 0.19395  0.92690  0.65440  Biso   1.000  C
  C300     1.0000 0.23084  0.96991  0.63691  Biso   1.000  C
  Cu151    1.0000 0.10918  0.41514  0.17057  Biso   1.000  Cu
  Cu152    1.0000 0.04683  0.44545  0.23158  Biso   1.000  Cu
  S151     1.0000 0.03144  0.54268  0.21126  Biso   1.000  S
  S152     1.0000 0.16903  0.39885  0.18308  Biso   1.000  S
  N601     1.0000 0.06954  0.48003  0.19639  Biso   1.000  N
  N602     1.0000 0.09715  0.46844  0.17220  Biso   1.000  N
  N603     1.0000 0.08490  0.52615  0.16213  Biso   1.000  N
  H451     1.0000 0.08600  0.54780  0.15310  Biso   1.000  H
  N604     1.0000 0.13126  0.49758  0.12535  Biso   1.000  N
  H452     1.0000 0.14440  0.47860  0.12090  Biso   1.000  H
  H453     1.0000 0.13460  0.51730  0.11310  Biso   1.000  H
  N605     1.0000 0.19592  0.42559  0.11843  Biso   1.000  N
  N606     1.0000 0.21960  0.45339  0.10739  Biso   1.000  N
  N607     1.0000 0.21574  0.45413  0.16660  Biso   1.000  N
  H454     1.0000 0.21930  0.46020  0.18900  Biso   1.000  H
  N608     1.0000 0.25486  0.49779  0.13883  Biso   1.000  N
  H455     1.0000 0.26440  0.50640  0.11920  Biso   1.000  H
  H456     1.0000 0.26060  0.50690  0.15970  Biso   1.000  H
  C301     1.0000 0.06288  0.51428  0.18958  Biso   1.000  C
  C302     1.0000 0.10486  0.49628  0.15207  Biso   1.000  C
  C303     1.0000 0.19395  0.42690  0.15440  Biso   1.000  C
  C304     1.0000 0.23084  0.46991  0.13691  Biso   1.000  C
  Cu153    1.0000 0.39082  0.91514  0.82943  Biso   1.000  Cu
  Cu154    1.0000 0.45317  0.94545  0.76842  Biso   1.000  Cu
  S153     1.0000 0.46856  0.04268  0.78874  Biso   1.000  S
  S154     1.0000 0.33097  0.89885  0.81692  Biso   1.000  S
  N609     1.0000 0.43046  0.98003  0.80361  Biso   1.000  N
  N610     1.0000 0.40285  0.96844  0.82780  Biso   1.000  N
  N611     1.0000 0.41510  0.02615  0.83787  Biso   1.000  N
  H457     1.0000 0.41400  0.04780  0.84690  Biso   1.000  H
  N612     1.0000 0.36874  0.99758  0.87465  Biso   1.000  N
  H458     1.0000 0.35560  0.97860  0.87910  Biso   1.000  H
  H459     1.0000 0.36540  0.01730  0.88690  Biso   1.000  H
  N613     1.0000 0.30408  0.92559  0.88157  Biso   1.000  N
  N614     1.0000 0.28040  0.95339  0.89261  Biso   1.000  N
  N615     1.0000 0.28426  0.95413  0.83340  Biso   1.000  N
  H460     1.0000 0.28070  0.96020  0.81100  Biso   1.000  H
  N616     1.0000 0.24514  0.99779  0.86117  Biso   1.000  N
  H461     1.0000 0.23560  0.00640  0.88080  Biso   1.000  H
  H462     1.0000 0.23940  0.00690  0.84030  Biso   1.000  H
  C305     1.0000 0.43712  0.01428  0.81042  Biso   1.000  C
  C306     1.0000 0.39514  0.99628  0.84793  Biso   1.000  C
  C307     1.0000 0.30605  0.92690  0.84560  Biso   1.000  C
  C308     1.0000 0.26916  0.96991  0.86309  Biso   1.000  C
  Cu155    1.0000 0.39082  0.41514  0.32943  Biso   1.000  Cu
  Cu156    1.0000 0.45317  0.44545  0.26842  Biso   1.000  Cu
  S155     1.0000 0.46856  0.54268  0.28874  Biso   1.000  S
  S156     1.0000 0.33097  0.39885  0.31692  Biso   1.000  S
  N617     1.0000 0.43046  0.48003  0.30361  Biso   1.000  N
  N618     1.0000 0.40285  0.46844  0.32780  Biso   1.000  N
  N619     1.0000 0.41510  0.52615  0.33787  Biso   1.000  N
  H463     1.0000 0.41400  0.54780  0.34690  Biso   1.000  H
  N620     1.0000 0.36874  0.49758  0.37465  Biso   1.000  N
  H464     1.0000 0.35560  0.47860  0.37910  Biso   1.000  H
  H465     1.0000 0.36540  0.51730  0.38690  Biso   1.000  H
  N621     1.0000 0.30408  0.42559  0.38157  Biso   1.000  N
  N622     1.0000 0.28040  0.45339  0.39261  Biso   1.000  N
  N623     1.0000 0.28426  0.45413  0.33340  Biso   1.000  N
  H466     1.0000 0.28070  0.46020  0.31100  Biso   1.000  H
  N624     1.0000 0.24514  0.49779  0.36117  Biso   1.000  N
  H467     1.0000 0.23560  0.50640  0.38080  Biso   1.000  H
  H468     1.0000 0.23940  0.50690  0.34030  Biso   1.000  H
  C309     1.0000 0.43712  0.51428  0.31042  Biso   1.000  C
  C310     1.0000 0.39514  0.49628  0.34793  Biso   1.000  C
  C311     1.0000 0.30605  0.42690  0.34560  Biso   1.000  C
  C312     1.0000 0.26916  0.46991  0.36309  Biso   1.000  C
  Cu157    1.0000 0.89082  0.91514  0.32943  Biso   1.000  Cu
  Cu158    1.0000 0.95317  0.94545  0.26842  Biso   1.000  Cu
  S157     1.0000 0.96856  0.04268  0.28874  Biso   1.000  S
  S158     1.0000 0.83097  0.89885  0.31692  Biso   1.000  S
  N625     1.0000 0.93046  0.98003  0.30361  Biso   1.000  N
  N626     1.0000 0.90285  0.96844  0.32780  Biso   1.000  N
  N627     1.0000 0.91510  0.02615  0.33787  Biso   1.000  N
  H469     1.0000 0.91400  0.04780  0.34690  Biso   1.000  H
  N628     1.0000 0.86874  0.99758  0.37465  Biso   1.000  N
  H470     1.0000 0.85560  0.97860  0.37910  Biso   1.000  H
  H471     1.0000 0.86540  0.01730  0.38690  Biso   1.000  H
  N629     1.0000 0.80408  0.92559  0.38157  Biso   1.000  N
  N630     1.0000 0.78040  0.95339  0.39261  Biso   1.000  N
  N631     1.0000 0.78426  0.95413  0.33340  Biso   1.000  N
  H472     1.0000 0.78070  0.96020  0.31100  Biso   1.000  H
  N632     1.0000 0.74514  0.99779  0.36117  Biso   1.000  N
  H473     1.0000 0.73560  0.00640  0.38080  Biso   1.000  H
  H474     1.0000 0.73940  0.00690  0.34030  Biso   1.000  H
  C313     1.0000 0.93712  0.01428  0.31042  Biso   1.000  C
  C314     1.0000 0.89514  0.99628  0.34793  Biso   1.000  C
  C315     1.0000 0.80605  0.92690  0.34560  Biso   1.000  C
  C316     1.0000 0.76916  0.96991  0.36309  Biso   1.000  C
  Cu159    1.0000 0.89082  0.41514  0.82943  Biso   1.000  Cu
  Cu160    1.0000 0.95317  0.44545  0.76842  Biso   1.000  Cu
  S159     1.0000 0.96856  0.54268  0.78874  Biso   1.000  S
  S160     1.0000 0.83097  0.39885  0.81692  Biso   1.000  S
  N633     1.0000 0.93046  0.48003  0.80361  Biso   1.000  N
  N634     1.0000 0.90285  0.46844  0.82780  Biso   1.000  N
  N635     1.0000 0.91510  0.52615  0.83787  Biso   1.000  N
  H475     1.0000 0.91400  0.54780  0.84690  Biso   1.000  H
  N636     1.0000 0.86874  0.49758  0.87465  Biso   1.000  N
  H476     1.0000 0.85560  0.47860  0.87910  Biso   1.000  H
  H477     1.0000 0.86540  0.51730  0.88690  Biso   1.000  H
  N637     1.0000 0.80408  0.42559  0.88157  Biso   1.000  N
  N638     1.0000 0.78040  0.45339  0.89261  Biso   1.000  N
  N639     1.0000 0.78426  0.45413  0.83340  Biso   1.000  N
  H478     1.0000 0.78070  0.46020  0.81100  Biso   1.000  H
  N640     1.0000 0.74514  0.49779  0.86117  Biso   1.000  N
  H479     1.0000 0.73560  0.50640  0.88080  Biso   1.000  H
  H480     1.0000 0.73940  0.50690  0.84030  Biso   1.000  H
  C317     1.0000 0.93712  0.51428  0.81042  Biso   1.000  C
  C318     1.0000 0.89514  0.49628  0.84793  Biso   1.000  C
  C319     1.0000 0.80605  0.42690  0.84560  Biso   1.000  C
  C320     1.0000 0.76916  0.46991  0.86309  Biso   1.000  C
  Cu161    1.0000 0.08486  0.17057  0.39082  Biso   1.000  Cu
  Cu162    1.0000 0.05455  0.23158  0.45317  Biso   1.000  Cu
  S161     1.0000 0.95732  0.21126  0.46856  Biso   1.000  S
  S162     1.0000 0.10115  0.18308  0.33097  Biso   1.000  S
  N641     1.0000 0.01997  0.19639  0.43046  Biso   1.000  N
  N642     1.0000 0.03156  0.17220  0.40285  Biso   1.000  N
  N643     1.0000 0.97385  0.16213  0.41510  Biso   1.000  N
  H481     1.0000 0.95220  0.15310  0.41400  Biso   1.000  H
  N644     1.0000 0.00242  0.12535  0.36874  Biso   1.000  N
  H482     1.0000 0.02140  0.12090  0.35560  Biso   1.000  H
  H483     1.0000 0.98270  0.11310  0.36540  Biso   1.000  H
  N645     1.0000 0.07441  0.11843  0.30408  Biso   1.000  N
  N646     1.0000 0.04661  0.10739  0.28040  Biso   1.000  N
  N647     1.0000 0.04587  0.16660  0.28426  Biso   1.000  N
  H484     1.0000 0.03980  0.18900  0.28070  Biso   1.000  H
  N648     1.0000 0.00221  0.13883  0.24514  Biso   1.000  N
  H485     1.0000 0.99360  0.11920  0.23560  Biso   1.000  H
  H486     1.0000 0.99310  0.15970  0.23940  Biso   1.000  H
  C321     1.0000 0.98572  0.18958  0.43712  Biso   1.000  C
  C322     1.0000 0.00372  0.15207  0.39514  Biso   1.000  C
  C323     1.0000 0.07310  0.15440  0.30605  Biso   1.000  C
  C324     1.0000 0.03009  0.13691  0.26916  Biso   1.000  C
  Cu163    1.0000 0.08486  0.67057  0.89082  Biso   1.000  Cu
  Cu164    1.0000 0.05455  0.73158  0.95317  Biso   1.000  Cu
  S163     1.0000 0.95732  0.71126  0.96856  Biso   1.000  S
  S164     1.0000 0.10115  0.68308  0.83097  Biso   1.000  S
  N649     1.0000 0.01997  0.69639  0.93046  Biso   1.000  N
  N650     1.0000 0.03156  0.67220  0.90285  Biso   1.000  N
  N651     1.0000 0.97385  0.66213  0.91510  Biso   1.000  N
  H487     1.0000 0.95220  0.65310  0.91400  Biso   1.000  H
  N652     1.0000 0.00242  0.62535  0.86874  Biso   1.000  N
  H488     1.0000 0.02140  0.62090  0.85560  Biso   1.000  H
  H489     1.0000 0.98270  0.61310  0.86540  Biso   1.000  H
  N653     1.0000 0.07441  0.61843  0.80408  Biso   1.000  N
  N654     1.0000 0.04661  0.60739  0.78040  Biso   1.000  N
  N655     1.0000 0.04587  0.66660  0.78426  Biso   1.000  N
  H490     1.0000 0.03980  0.68900  0.78070  Biso   1.000  H
  N656     1.0000 0.00221  0.63883  0.74514  Biso   1.000  N
  H491     1.0000 0.99360  0.61920  0.73560  Biso   1.000  H
  H492     1.0000 0.99310  0.65970  0.73940  Biso   1.000  H
  C325     1.0000 0.98572  0.68958  0.93712  Biso   1.000  C
  C326     1.0000 0.00372  0.65207  0.89514  Biso   1.000  C
  C327     1.0000 0.07310  0.65440  0.80605  Biso   1.000  C
  C328     1.0000 0.03009  0.63691  0.76916  Biso   1.000  C
  Cu165    1.0000 0.58486  0.17057  0.89082  Biso   1.000  Cu
  Cu166    1.0000 0.55455  0.23158  0.95317  Biso   1.000  Cu
  S165     1.0000 0.45732  0.21126  0.96856  Biso   1.000  S
  S166     1.0000 0.60115  0.18308  0.83097  Biso   1.000  S
  N657     1.0000 0.51997  0.19639  0.93046  Biso   1.000  N
  N658     1.0000 0.53156  0.17220  0.90285  Biso   1.000  N
  N659     1.0000 0.47385  0.16213  0.91510  Biso   1.000  N
  H493     1.0000 0.45220  0.15310  0.91400  Biso   1.000  H
  N660     1.0000 0.50242  0.12535  0.86874  Biso   1.000  N
  H494     1.0000 0.52140  0.12090  0.85560  Biso   1.000  H
  H495     1.0000 0.48270  0.11310  0.86540  Biso   1.000  H
  N661     1.0000 0.57441  0.11843  0.80408  Biso   1.000  N
  N662     1.0000 0.54661  0.10739  0.78040  Biso   1.000  N
  N663     1.0000 0.54587  0.16660  0.78426  Biso   1.000  N
  H496     1.0000 0.53980  0.18900  0.78070  Biso   1.000  H
  N664     1.0000 0.50221  0.13883  0.74514  Biso   1.000  N
  H497     1.0000 0.49360  0.11920  0.73560  Biso   1.000  H
  H498     1.0000 0.49310  0.15970  0.73940  Biso   1.000  H
  C329     1.0000 0.48572  0.18958  0.93712  Biso   1.000  C
  C330     1.0000 0.50372  0.15207  0.89514  Biso   1.000  C
  C331     1.0000 0.57310  0.15440  0.80605  Biso   1.000  C
  C332     1.0000 0.53009  0.13691  0.76916  Biso   1.000  C
  Cu167    1.0000 0.58486  0.67057  0.39082  Biso   1.000  Cu
  Cu168    1.0000 0.55455  0.73158  0.45317  Biso   1.000  Cu
  S167     1.0000 0.45732  0.71126  0.46856  Biso   1.000  S
  S168     1.0000 0.60115  0.68308  0.33097  Biso   1.000  S
  N665     1.0000 0.51997  0.69639  0.43046  Biso   1.000  N
  N666     1.0000 0.53156  0.67220  0.40285  Biso   1.000  N
  N667     1.0000 0.47385  0.66213  0.41510  Biso   1.000  N
  H499     1.0000 0.45220  0.65310  0.41400  Biso   1.000  H
  N668     1.0000 0.50242  0.62535  0.36874  Biso   1.000  N
  H500     1.0000 0.52140  0.62090  0.35560  Biso   1.000  H
  H501     1.0000 0.48270  0.61310  0.36540  Biso   1.000  H
  N669     1.0000 0.57441  0.61843  0.30408  Biso   1.000  N
  N670     1.0000 0.54661  0.60739  0.28040  Biso   1.000  N
  N671     1.0000 0.54587  0.66660  0.28426  Biso   1.000  N
  H502     1.0000 0.53980  0.68900  0.28070  Biso   1.000  H
  N672     1.0000 0.50221  0.63883  0.24514  Biso   1.000  N
  H503     1.0000 0.49360  0.61920  0.23560  Biso   1.000  H
  H504     1.0000 0.49310  0.65970  0.23940  Biso   1.000  H
  C333     1.0000 0.48572  0.68958  0.43712  Biso   1.000  C
  C334     1.0000 0.50372  0.65207  0.39514  Biso   1.000  C
  C335     1.0000 0.57310  0.65440  0.30605  Biso   1.000  C
  C336     1.0000 0.53009  0.63691  0.26916  Biso   1.000  C
  Cu169    1.0000 0.08486  0.82943  0.60918  Biso   1.000  Cu
  Cu170    1.0000 0.05455  0.76842  0.54683  Biso   1.000  Cu
  S169     1.0000 0.95732  0.78874  0.53144  Biso   1.000  S
  S170     1.0000 0.10115  0.81692  0.66903  Biso   1.000  S
  N673     1.0000 0.01997  0.80361  0.56954  Biso   1.000  N
  N674     1.0000 0.03156  0.82780  0.59715  Biso   1.000  N
  N675     1.0000 0.97385  0.83787  0.58490  Biso   1.000  N
  H505     1.0000 0.95220  0.84690  0.58600  Biso   1.000  H
  N676     1.0000 0.00242  0.87465  0.63126  Biso   1.000  N
  H506     1.0000 0.02140  0.87910  0.64440  Biso   1.000  H
  H507     1.0000 0.98270  0.88690  0.63460  Biso   1.000  H
  N677     1.0000 0.07441  0.88157  0.69592  Biso   1.000  N
  N678     1.0000 0.04661  0.89261  0.71960  Biso   1.000  N
  N679     1.0000 0.04587  0.83340  0.71574  Biso   1.000  N
  H508     1.0000 0.03980  0.81100  0.71930  Biso   1.000  H
  N680     1.0000 0.00221  0.86117  0.75486  Biso   1.000  N
  H509     1.0000 0.99360  0.88080  0.76440  Biso   1.000  H
  H510     1.0000 0.99310  0.84030  0.76060  Biso   1.000  H
  C337     1.0000 0.98572  0.81042  0.56288  Biso   1.000  C
  C338     1.0000 0.00372  0.84793  0.60486  Biso   1.000  C
  C339     1.0000 0.07310  0.84560  0.69395  Biso   1.000  C
  C340     1.0000 0.03009  0.86309  0.73084  Biso   1.000  C
  Cu171    1.0000 0.08486  0.32943  0.10918  Biso   1.000  Cu
  Cu172    1.0000 0.05455  0.26842  0.04683  Biso   1.000  Cu
  S171     1.0000 0.95732  0.28874  0.03144  Biso   1.000  S
  S172     1.0000 0.10115  0.31692  0.16903  Biso   1.000  S
  N681     1.0000 0.01997  0.30361  0.06954  Biso   1.000  N
  N682     1.0000 0.03156  0.32780  0.09715  Biso   1.000  N
  N683     1.0000 0.97385  0.33787  0.08490  Biso   1.000  N
  H511     1.0000 0.95220  0.34690  0.08600  Biso   1.000  H
  N684     1.0000 0.00242  0.37465  0.13126  Biso   1.000  N
  H512     1.0000 0.02140  0.37910  0.14440  Biso   1.000  H
  H513     1.0000 0.98270  0.38690  0.13460  Biso   1.000  H
  N685     1.0000 0.07441  0.38157  0.19592  Biso   1.000  N
  N686     1.0000 0.04661  0.39261  0.21960  Biso   1.000  N
  N687     1.0000 0.04587  0.33340  0.21574  Biso   1.000  N
  H514     1.0000 0.03980  0.31100  0.21930  Biso   1.000  H
  N688     1.0000 0.00221  0.36117  0.25486  Biso   1.000  N
  H515     1.0000 0.99360  0.38080  0.26440  Biso   1.000  H
  H516     1.0000 0.99310  0.34030  0.26060  Biso   1.000  H
  C341     1.0000 0.98572  0.31042  0.06288  Biso   1.000  C
  C342     1.0000 0.00372  0.34793  0.10486  Biso   1.000  C
  C343     1.0000 0.07310  0.34560  0.19395  Biso   1.000  C
  C344     1.0000 0.03009  0.36309  0.23084  Biso   1.000  C
  Cu173    1.0000 0.58486  0.82943  0.10918  Biso   1.000  Cu
  Cu174    1.0000 0.55455  0.76842  0.04683  Biso   1.000  Cu
  S173     1.0000 0.45732  0.78874  0.03144  Biso   1.000  S
  S174     1.0000 0.60115  0.81692  0.16903  Biso   1.000  S
  N689     1.0000 0.51997  0.80361  0.06954  Biso   1.000  N
  N690     1.0000 0.53156  0.82780  0.09715  Biso   1.000  N
  N691     1.0000 0.47385  0.83787  0.08490  Biso   1.000  N
  H517     1.0000 0.45220  0.84690  0.08600  Biso   1.000  H
  N692     1.0000 0.50242  0.87465  0.13126  Biso   1.000  N
  H518     1.0000 0.52140  0.87910  0.14440  Biso   1.000  H
  H519     1.0000 0.48270  0.88690  0.13460  Biso   1.000  H
  N693     1.0000 0.57441  0.88157  0.19592  Biso   1.000  N
  N694     1.0000 0.54661  0.89261  0.21960  Biso   1.000  N
  N695     1.0000 0.54587  0.83340  0.21574  Biso   1.000  N
  H520     1.0000 0.53980  0.81100  0.21930  Biso   1.000  H
  N696     1.0000 0.50221  0.86117  0.25486  Biso   1.000  N
  H521     1.0000 0.49360  0.88080  0.26440  Biso   1.000  H
  H522     1.0000 0.49310  0.84030  0.26060  Biso   1.000  H
  C345     1.0000 0.48572  0.81042  0.06288  Biso   1.000  C
  C346     1.0000 0.50372  0.84793  0.10486  Biso   1.000  C
  C347     1.0000 0.57310  0.84560  0.19395  Biso   1.000  C
  C348     1.0000 0.53009  0.86309  0.23084  Biso   1.000  C
  Cu175    1.0000 0.58486  0.32943  0.60918  Biso   1.000  Cu
  Cu176    1.0000 0.55455  0.26842  0.54683  Biso   1.000  Cu
  S175     1.0000 0.45732  0.28874  0.53144  Biso   1.000  S
  S176     1.0000 0.60115  0.31692  0.66903  Biso   1.000  S
  N697     1.0000 0.51997  0.30361  0.56954  Biso   1.000  N
  N698     1.0000 0.53156  0.32780  0.59715  Biso   1.000  N
  N699     1.0000 0.47385  0.33787  0.58490  Biso   1.000  N
  H523     1.0000 0.45220  0.34690  0.58600  Biso   1.000  H
  N700     1.0000 0.50242  0.37465  0.63126  Biso   1.000  N
  H524     1.0000 0.52140  0.37910  0.64440  Biso   1.000  H
  H525     1.0000 0.48270  0.38690  0.63460  Biso   1.000  H
  N701     1.0000 0.57441  0.38157  0.69592  Biso   1.000  N
  N702     1.0000 0.54661  0.39261  0.71960  Biso   1.000  N
  N703     1.0000 0.54587  0.33340  0.71574  Biso   1.000  N
  H526     1.0000 0.53980  0.31100  0.71930  Biso   1.000  H
  N704     1.0000 0.50221  0.36117  0.75486  Biso   1.000  N
  H527     1.0000 0.49360  0.38080  0.76440  Biso   1.000  H
  H528     1.0000 0.49310  0.34030  0.76060  Biso   1.000  H
  C349     1.0000 0.48572  0.31042  0.56288  Biso   1.000  C
  C350     1.0000 0.50372  0.34793  0.60486  Biso   1.000  C
  C351     1.0000 0.57310  0.34560  0.69395  Biso   1.000  C
  C352     1.0000 0.53009  0.36309  0.73084  Biso   1.000  C
  Cu177    1.0000 0.91514  0.17057  0.60918  Biso   1.000  Cu
  Cu178    1.0000 0.94545  0.23158  0.54683  Biso   1.000  Cu
  S177     1.0000 0.04268  0.21126  0.53144  Biso   1.000  S
  S178     1.0000 0.89885  0.18308  0.66903  Biso   1.000  S
  N705     1.0000 0.98003  0.19639  0.56954  Biso   1.000  N
  N706     1.0000 0.96844  0.17220  0.59715  Biso   1.000  N
  N707     1.0000 0.02615  0.16213  0.58490  Biso   1.000  N
  H529     1.0000 0.04780  0.15310  0.58600  Biso   1.000  H
  N708     1.0000 0.99758  0.12535  0.63126  Biso   1.000  N
  H530     1.0000 0.97860  0.12090  0.64440  Biso   1.000  H
  H531     1.0000 0.01730  0.11310  0.63460  Biso   1.000  H
  N709     1.0000 0.92559  0.11843  0.69592  Biso   1.000  N
  N710     1.0000 0.95339  0.10739  0.71960  Biso   1.000  N
  N711     1.0000 0.95413  0.16660  0.71574  Biso   1.000  N
  H532     1.0000 0.96020  0.18900  0.71930  Biso   1.000  H
  N712     1.0000 0.99779  0.13883  0.75486  Biso   1.000  N
  H533     1.0000 0.00640  0.11920  0.76440  Biso   1.000  H
  H534     1.0000 0.00690  0.15970  0.76060  Biso   1.000  H
  C353     1.0000 0.01428  0.18958  0.56288  Biso   1.000  C
  C354     1.0000 0.99628  0.15207  0.60486  Biso   1.000  C
  C355     1.0000 0.92690  0.15440  0.69395  Biso   1.000  C
  C356     1.0000 0.96991  0.13691  0.73084  Biso   1.000  C
  Cu179    1.0000 0.91514  0.67057  0.10918  Biso   1.000  Cu
  Cu180    1.0000 0.94545  0.73158  0.04683  Biso   1.000  Cu
  S179     1.0000 0.04268  0.71126  0.03144  Biso   1.000  S
  S180     1.0000 0.89885  0.68308  0.16903  Biso   1.000  S
  N713     1.0000 0.98003  0.69639  0.06954  Biso   1.000  N
  N714     1.0000 0.96844  0.67220  0.09715  Biso   1.000  N
  N715     1.0000 0.02615  0.66213  0.08490  Biso   1.000  N
  H535     1.0000 0.04780  0.65310  0.08600  Biso   1.000  H
  N716     1.0000 0.99758  0.62535  0.13126  Biso   1.000  N
  H536     1.0000 0.97860  0.62090  0.14440  Biso   1.000  H
  H537     1.0000 0.01730  0.61310  0.13460  Biso   1.000  H
  N717     1.0000 0.92559  0.61843  0.19592  Biso   1.000  N
  N718     1.0000 0.95339  0.60739  0.21960  Biso   1.000  N
  N719     1.0000 0.95413  0.66660  0.21574  Biso   1.000  N
  H538     1.0000 0.96020  0.68900  0.21930  Biso   1.000  H
  N720     1.0000 0.99779  0.63883  0.25486  Biso   1.000  N
  H539     1.0000 0.00640  0.61920  0.26440  Biso   1.000  H
  H540     1.0000 0.00690  0.65970  0.26060  Biso   1.000  H
  C357     1.0000 0.01428  0.68958  0.06288  Biso   1.000  C
  C358     1.0000 0.99628  0.65207  0.10486  Biso   1.000  C
  C359     1.0000 0.92690  0.65440  0.19395  Biso   1.000  C
  C360     1.0000 0.96991  0.63691  0.23084  Biso   1.000  C
  Cu181    1.0000 0.41514  0.17057  0.10918  Biso   1.000  Cu
  Cu182    1.0000 0.44545  0.23158  0.04683  Biso   1.000  Cu
  S181     1.0000 0.54268  0.21126  0.03144  Biso   1.000  S
  S182     1.0000 0.39885  0.18308  0.16903  Biso   1.000  S
  N721     1.0000 0.48003  0.19639  0.06954  Biso   1.000  N
  N722     1.0000 0.46844  0.17220  0.09715  Biso   1.000  N
  N723     1.0000 0.52615  0.16213  0.08490  Biso   1.000  N
  H541     1.0000 0.54780  0.15310  0.08600  Biso   1.000  H
  N724     1.0000 0.49758  0.12535  0.13126  Biso   1.000  N
  H542     1.0000 0.47860  0.12090  0.14440  Biso   1.000  H
  H543     1.0000 0.51730  0.11310  0.13460  Biso   1.000  H
  N725     1.0000 0.42559  0.11843  0.19592  Biso   1.000  N
  N726     1.0000 0.45339  0.10739  0.21960  Biso   1.000  N
  N727     1.0000 0.45413  0.16660  0.21574  Biso   1.000  N
  H544     1.0000 0.46020  0.18900  0.21930  Biso   1.000  H
  N728     1.0000 0.49779  0.13883  0.25486  Biso   1.000  N
  H545     1.0000 0.50640  0.11920  0.26440  Biso   1.000  H
  H546     1.0000 0.50690  0.15970  0.26060  Biso   1.000  H
  C361     1.0000 0.51428  0.18958  0.06288  Biso   1.000  C
  C362     1.0000 0.49628  0.15207  0.10486  Biso   1.000  C
  C363     1.0000 0.42690  0.15440  0.19395  Biso   1.000  C
  C364     1.0000 0.46991  0.13691  0.23084  Biso   1.000  C
  Cu183    1.0000 0.41514  0.67057  0.60918  Biso   1.000  Cu
  Cu184    1.0000 0.44545  0.73158  0.54683  Biso   1.000  Cu
  S183     1.0000 0.54268  0.71126  0.53144  Biso   1.000  S
  S184     1.0000 0.39885  0.68308  0.66903  Biso   1.000  S
  N729     1.0000 0.48003  0.69639  0.56954  Biso   1.000  N
  N730     1.0000 0.46844  0.67220  0.59715  Biso   1.000  N
  N731     1.0000 0.52615  0.66213  0.58490  Biso   1.000  N
  H547     1.0000 0.54780  0.65310  0.58600  Biso   1.000  H
  N732     1.0000 0.49758  0.62535  0.63126  Biso   1.000  N
  H548     1.0000 0.47860  0.62090  0.64440  Biso   1.000  H
  H549     1.0000 0.51730  0.61310  0.63460  Biso   1.000  H
  N733     1.0000 0.42559  0.61843  0.69592  Biso   1.000  N
  N734     1.0000 0.45339  0.60739  0.71960  Biso   1.000  N
  N735     1.0000 0.45413  0.66660  0.71574  Biso   1.000  N
  H550     1.0000 0.46020  0.68900  0.71930  Biso   1.000  H
  N736     1.0000 0.49779  0.63883  0.75486  Biso   1.000  N
  H551     1.0000 0.50640  0.61920  0.76440  Biso   1.000  H
  H552     1.0000 0.50690  0.65970  0.76060  Biso   1.000  H
  C365     1.0000 0.51428  0.68958  0.56288  Biso   1.000  C
  C366     1.0000 0.49628  0.65207  0.60486  Biso   1.000  C
  C367     1.0000 0.42690  0.65440  0.69395  Biso   1.000  C
  C368     1.0000 0.46991  0.63691  0.73084  Biso   1.000  C
  Cu185    1.0000 0.91514  0.82943  0.39082  Biso   1.000  Cu
  Cu186    1.0000 0.94545  0.76842  0.45317  Biso   1.000  Cu
  S185     1.0000 0.04268  0.78874  0.46856  Biso   1.000  S
  S186     1.0000 0.89885  0.81692  0.33097  Biso   1.000  S
  N737     1.0000 0.98003  0.80361  0.43046  Biso   1.000  N
  N738     1.0000 0.96844  0.82780  0.40285  Biso   1.000  N
  N739     1.0000 0.02615  0.83787  0.41510  Biso   1.000  N
  H553     1.0000 0.04780  0.84690  0.41400  Biso   1.000  H
  N740     1.0000 0.99758  0.87465  0.36874  Biso   1.000  N
  H554     1.0000 0.97860  0.87910  0.35560  Biso   1.000  H
  H555     1.0000 0.01730  0.88690  0.36540  Biso   1.000  H
  N741     1.0000 0.92559  0.88157  0.30408  Biso   1.000  N
  N742     1.0000 0.95339  0.89261  0.28040  Biso   1.000  N
  N743     1.0000 0.95413  0.83340  0.28426  Biso   1.000  N
  H556     1.0000 0.96020  0.81100  0.28070  Biso   1.000  H
  N744     1.0000 0.99779  0.86117  0.24514  Biso   1.000  N
  H557     1.0000 0.00640  0.88080  0.23560  Biso   1.000  H
  H558     1.0000 0.00690  0.84030  0.23940  Biso   1.000  H
  C369     1.0000 0.01428  0.81042  0.43712  Biso   1.000  C
  C370     1.0000 0.99628  0.84793  0.39514  Biso   1.000  C
  C371     1.0000 0.92690  0.84560  0.30605  Biso   1.000  C
  C372     1.0000 0.96991  0.86309  0.26916  Biso   1.000  C
  Cu187    1.0000 0.91514  0.32943  0.89082  Biso   1.000  Cu
  Cu188    1.0000 0.94545  0.26842  0.95317  Biso   1.000  Cu
  S187     1.0000 0.04268  0.28874  0.96856  Biso   1.000  S
  S188     1.0000 0.89885  0.31692  0.83097  Biso   1.000  S
  N745     1.0000 0.98003  0.30361  0.93046  Biso   1.000  N
  N746     1.0000 0.96844  0.32780  0.90285  Biso   1.000  N
  N747     1.0000 0.02615  0.33787  0.91510  Biso   1.000  N
  H559     1.0000 0.04780  0.34690  0.91400  Biso   1.000  H
  N748     1.0000 0.99758  0.37465  0.86874  Biso   1.000  N
  H560     1.0000 0.97860  0.37910  0.85560  Biso   1.000  H
  H561     1.0000 0.01730  0.38690  0.86540  Biso   1.000  H
  N749     1.0000 0.92559  0.38157  0.80408  Biso   1.000  N
  N750     1.0000 0.95339  0.39261  0.78040  Biso   1.000  N
  N751     1.0000 0.95413  0.33340  0.78426  Biso   1.000  N
  H562     1.0000 0.96020  0.31100  0.78070  Biso   1.000  H
  N752     1.0000 0.99779  0.36117  0.74514  Biso   1.000  N
  H563     1.0000 0.00640  0.38080  0.73560  Biso   1.000  H
  H564     1.0000 0.00690  0.34030  0.73940  Biso   1.000  H
  C373     1.0000 0.01428  0.31042  0.93712  Biso   1.000  C
  C374     1.0000 0.99628  0.34793  0.89514  Biso   1.000  C
  C375     1.0000 0.92690  0.34560  0.80605  Biso   1.000  C
  C376     1.0000 0.96991  0.36309  0.76916  Biso   1.000  C
  Cu189    1.0000 0.41514  0.82943  0.89082  Biso   1.000  Cu
  Cu190    1.0000 0.44545  0.76842  0.95317  Biso   1.000  Cu
  S189     1.0000 0.54268  0.78874  0.96856  Biso   1.000  S
  S190     1.0000 0.39885  0.81692  0.83097  Biso   1.000  S
  N753     1.0000 0.48003  0.80361  0.93046  Biso   1.000  N
  N754     1.0000 0.46844  0.82780  0.90285  Biso   1.000  N
  N755     1.0000 0.52615  0.83787  0.91510  Biso   1.000  N
  H565     1.0000 0.54780  0.84690  0.91400  Biso   1.000  H
  N756     1.0000 0.49758  0.87465  0.86874  Biso   1.000  N
  H566     1.0000 0.47860  0.87910  0.85560  Biso   1.000  H
  H567     1.0000 0.51730  0.88690  0.86540  Biso   1.000  H
  N757     1.0000 0.42559  0.88157  0.80408  Biso   1.000  N
  N758     1.0000 0.45339  0.89261  0.78040  Biso   1.000  N
  N759     1.0000 0.45413  0.83340  0.78426  Biso   1.000  N
  H568     1.0000 0.46020  0.81100  0.78070  Biso   1.000  H
  N760     1.0000 0.49779  0.86117  0.74514  Biso   1.000  N
  H569     1.0000 0.50640  0.88080  0.73560  Biso   1.000  H
  H570     1.0000 0.50690  0.84030  0.73940  Biso   1.000  H
  C377     1.0000 0.51428  0.81042  0.93712  Biso   1.000  C
  C378     1.0000 0.49628  0.84793  0.89514  Biso   1.000  C
  C379     1.0000 0.42690  0.84560  0.80605  Biso   1.000  C
  C380     1.0000 0.46991  0.86309  0.76916  Biso   1.000  C
  Cu191    1.0000 0.41514  0.32943  0.39082  Biso   1.000  Cu
  Cu192    1.0000 0.44545  0.26842  0.45317  Biso   1.000  Cu
  S191     1.0000 0.54268  0.28874  0.46856  Biso   1.000  S
  S192     1.0000 0.39885  0.31692  0.33097  Biso   1.000  S
  N761     1.0000 0.48003  0.30361  0.43046  Biso   1.000  N
  N762     1.0000 0.46844  0.32780  0.40285  Biso   1.000  N
  N763     1.0000 0.52615  0.33787  0.41510  Biso   1.000  N
  H571     1.0000 0.54780  0.34690  0.41400  Biso   1.000  H
  N764     1.0000 0.49758  0.37465  0.36874  Biso   1.000  N
  H572     1.0000 0.47860  0.37910  0.35560  Biso   1.000  H
  H573     1.0000 0.51730  0.38690  0.36540  Biso   1.000  H
  N765     1.0000 0.42559  0.38157  0.30408  Biso   1.000  N
  N766     1.0000 0.45339  0.39261  0.28040  Biso   1.000  N
  N767     1.0000 0.45413  0.33340  0.28426  Biso   1.000  N
  H574     1.0000 0.46020  0.31100  0.28070  Biso   1.000  H
  N768     1.0000 0.49779  0.36117  0.24514  Biso   1.000  N
  H575     1.0000 0.50640  0.38080  0.23560  Biso   1.000  H
  H576     1.0000 0.50690  0.34030  0.23940  Biso   1.000  H
  C381     1.0000 0.51428  0.31042  0.43712  Biso   1.000  C
  C382     1.0000 0.49628  0.34793  0.39514  Biso   1.000  C
  C383     1.0000 0.42690  0.34560  0.30605  Biso   1.000  C
  C384     1.0000 0.46991  0.36309  0.26916  Biso   1.000  C
  Cu193    1.0000 0.85419  0.64581  0.64581  Biso   1.000  Cu
  I1       1.0000 0.90351  0.59649  0.59649  Biso   1.000  I
  Cu194    1.0000 0.85419  0.14581  0.14581  Biso   1.000  Cu
  I2       1.0000 0.90351  0.09649  0.09649  Biso   1.000  I
  Cu195    1.0000 0.14581  0.35419  0.64581  Biso   1.000  Cu
  I3       1.0000 0.09649  0.40351  0.59649  Biso   1.000  I
  Cu196    1.0000 0.14581  0.85419  0.14581  Biso   1.000  Cu
  I4       1.0000 0.09649  0.90351  0.09649  Biso   1.000  I
  Cu197    1.0000 0.14581  0.64581  0.35419  Biso   1.000  Cu
  I5       1.0000 0.09649  0.59649  0.40351  Biso   1.000  I
  Cu198    1.0000 0.14581  0.14581  0.85419  Biso   1.000  Cu
  I6       1.0000 0.09649  0.09649  0.90351  Biso   1.000  I
  Cu199    1.0000 0.85419  0.35419  0.35419  Biso   1.000  Cu
  I7       1.0000 0.90351  0.40351  0.40351  Biso   1.000  I
  Cu200    1.0000 0.85419  0.85419  0.85419  Biso   1.000  Cu
  I8       1.0000 0.90351  0.90351  0.90351  Biso   1.000  I
  Cu201    1.0000 0.64581  0.85419  0.64581  Biso   1.000  Cu
  I9       1.0000 0.59649  0.90351  0.59649  Biso   1.000  I
  Cu202    1.0000 0.64581  0.14581  0.35419  Biso   1.000  Cu
  I10      1.0000 0.59649  0.09649  0.40351  Biso   1.000  I
  Cu203    1.0000 0.35419  0.14581  0.64581  Biso   1.000  Cu
  I11      1.0000 0.40351  0.09649  0.59649  Biso   1.000  I
  Cu204    1.0000 0.35419  0.85419  0.35419  Biso   1.000  Cu
  I12      1.0000 0.40351  0.90351  0.40351  Biso   1.000  I
  Cu205    1.0000 0.64581  0.64581  0.85419  Biso   1.000  Cu
  I13      1.0000 0.59649  0.59649  0.90351  Biso   1.000  I
  Cu206    1.0000 0.35419  0.64581  0.14581  Biso   1.000  Cu
  I14      1.0000 0.40351  0.59649  0.09649  Biso   1.000  I
  Cu207    1.0000 0.64581  0.35419  0.14581  Biso   1.000  Cu
  I15      1.0000 0.59649  0.40351  0.09649  Biso   1.000  I
  Cu208    1.0000 0.35419  0.35419  0.85419  Biso   1.000  Cu
  I16      1.0000 0.40351  0.40351  0.90351  Biso   1.000  I
  Cu209    1.0000 0.14581  0.35419  0.14581  Biso   1.000  Cu
  I17      1.0000 0.09649  0.40351  0.09649  Biso   1.000  I
  Cu210    1.0000 0.85419  0.64581  0.14581  Biso   1.000  Cu
  I18      1.0000 0.90351  0.59649  0.09649  Biso   1.000  I
  Cu211    1.0000 0.14581  0.64581  0.85419  Biso   1.000  Cu
  I19      1.0000 0.09649  0.59649  0.90351  Biso   1.000  I
  Cu212    1.0000 0.85419  0.35419  0.85419  Biso   1.000  Cu
  I20      1.0000 0.90351  0.40351  0.90351  Biso   1.000  I
  Cu213    1.0000 0.35419  0.14581  0.14581  Biso   1.000  Cu
  I21      1.0000 0.40351  0.09649  0.09649  Biso   1.000  I
  Cu214    1.0000 0.35419  0.64581  0.64581  Biso   1.000  Cu
  I22      1.0000 0.40351  0.59649  0.59649  Biso   1.000  I
  Cu215    1.0000 0.64581  0.14581  0.85419  Biso   1.000  Cu
  I23      1.0000 0.59649  0.09649  0.90351  Biso   1.000  I
  Cu216    1.0000 0.64581  0.64581  0.35419  Biso   1.000  Cu
  I24      1.0000 0.59649  0.59649  0.40351  Biso   1.000  I
  Cu217    1.0000 0.64581  0.85419  0.14581  Biso   1.000  Cu
  I25      1.0000 0.59649  0.90351  0.09649  Biso   1.000  I
  Cu218    1.0000 0.64581  0.35419  0.64581  Biso   1.000  Cu
  I26      1.0000 0.59649  0.40351  0.59649  Biso   1.000  I
  Cu219    1.0000 0.35419  0.85419  0.85419  Biso   1.000  Cu
  I27      1.0000 0.40351  0.90351  0.90351  Biso   1.000  I
  Cu220    1.0000 0.35419  0.35419  0.35419  Biso   1.000  Cu
  I28      1.0000 0.40351  0.40351  0.40351  Biso   1.000  I
  Cu221    1.0000 0.14581  0.14581  0.35419  Biso   1.000  Cu
  I29      1.0000 0.09649  0.09649  0.40351  Biso   1.000  I
  Cu222    1.0000 0.14581  0.85419  0.64581  Biso   1.000  Cu
  I30      1.0000 0.09649  0.90351  0.59649  Biso   1.000  I
  Cu223    1.0000 0.85419  0.14581  0.64581  Biso   1.000  Cu
  I31      1.0000 0.90351  0.09649  0.59649  Biso   1.000  I
  Cu224    1.0000 0.85419  0.85419  0.35419  Biso   1.000  Cu
  I32      1.0000 0.90351  0.90351  0.40351  Biso   1.000  I
  Cu225    1.0000 0.00000  0.75000  0.50000  Biso   1.000  Cu
  Cu226    1.0000 0.00000  0.25000  0.00000  Biso   1.000  Cu
  Cu227    1.0000 0.50000  0.75000  0.00000  Biso   1.000  Cu
  Cu228    1.0000 0.50000  0.25000  0.50000  Biso   1.000  Cu
  Cu229    1.0000 0.00000  0.25000  0.50000  Biso   1.000  Cu
  Cu230    1.0000 0.00000  0.75000  0.00000  Biso   1.000  Cu
  Cu231    1.0000 0.50000  0.25000  0.00000  Biso   1.000  Cu
  Cu232    1.0000 0.50000  0.75000  0.50000  Biso   1.000  Cu
  Cu233    1.0000 0.50000  0.00000  0.75000  Biso   1.000  Cu
  Cu234    1.0000 0.50000  0.50000  0.25000  Biso   1.000  Cu
  Cu235    1.0000 0.00000  0.00000  0.25000  Biso   1.000  Cu
  Cu236    1.0000 0.00000  0.50000  0.75000  Biso   1.000  Cu
  Cu237    1.0000 0.50000  0.00000  0.25000  Biso   1.000  Cu
  Cu238    1.0000 0.50000  0.50000  0.75000  Biso   1.000  Cu
  Cu239    1.0000 0.00000  0.00000  0.75000  Biso   1.000  Cu
  Cu240    1.0000 0.00000  0.50000  0.25000  Biso   1.000  Cu
  Cu241    1.0000 0.75000  0.50000  0.00000  Biso   1.000  Cu
  Cu242    1.0000 0.75000  0.00000  0.50000  Biso   1.000  Cu
  Cu243    1.0000 0.25000  0.50000  0.50000  Biso   1.000  Cu
  Cu244    1.0000 0.25000  0.00000  0.00000  Biso   1.000  Cu
  Cu245    1.0000 0.25000  0.50000  0.00000  Biso   1.000  Cu
  Cu246    1.0000 0.25000  0.00000  0.50000  Biso   1.000  Cu
  Cu247    1.0000 0.75000  0.50000  0.50000  Biso   1.000  Cu
  Cu248    1.0000 0.75000  0.00000  0.00000  Biso   1.000  Cu
