data_image0
_cell_length_a       27.67
_cell_length_b       29.297
_cell_length_c       25.912
_cell_angle_alpha    90
_cell_angle_beta     90
_cell_angle_gamma    90

_symmetry_space_group_name_H-M    "P 1"
_symmetry_int_tables_number       1

loop_
  _symmetry_equiv_pos_as_xyz
  'x, y, z'

loop_
  _atom_site_label
  _atom_site_occupancy
  _atom_site_fract_x
  _atom_site_fract_y
  _atom_site_fract_z
  _atom_site_thermal_displace_type
  _atom_site_B_iso_or_equiv
  _atom_site_type_symbol
  C1       1.0000 0.15360  0.45590  0.07410  Biso   1.000  C
  C2       1.0000 0.14320  0.40880  0.09740  Biso   1.000  C
  H1       1.0000 0.12200  0.40140  0.12400  Biso   1.000  H
  C3       1.0000 0.17040  0.38260  0.07210  Biso   1.000  C
  C4       1.0000 0.14210  0.49910  0.09750  Biso   1.000  C
  C5       1.0000 0.13880  0.58090  0.07940  Biso   1.000  C
  C6       1.0000 0.10990  0.59360  0.12370  Biso   1.000  C
  H2       1.0000 0.09440  0.57130  0.14310  Biso   1.000  H
  C7       1.0000 0.10560  0.64020  0.13720  Biso   1.000  C
  C8       1.0000 0.12830  0.67261  0.11210  Biso   1.000  C
  H3       1.0000 0.12490  0.70290  0.12200  Biso   1.000  H
  C9       1.0000 0.15770  0.66120  0.07030  Biso   1.000  C
  C10      1.0000 0.16190  0.61600  0.05410  Biso   1.000  C
  H4       1.0000 0.18080  0.60940  0.02530  Biso   1.000  H
  C11      1.0000 0.07130  0.65080  0.18050  Biso   1.000  C
  C12      1.0000 0.18440  0.69740  0.03930  Biso   1.000  C
  C13      1.0000 0.17430  0.33230  0.08110  Biso   1.000  C
  C14      1.0000 0.13240  0.26200  0.10330  Biso   1.000  C
  C15      1.0000 0.16160  0.22810  0.08010  Biso   1.000  C
  H5       1.0000 0.18560  0.23660  0.05690  Biso   1.000  H
  C16      1.0000 0.15490  0.18290  0.09150  Biso   1.000  C
  C17      1.0000 0.11940  0.17010  0.12550  Biso   1.000  C
  H6       1.0000 0.11620  0.13960  0.13480  Biso   1.000  H
  C18      1.0000 0.08800  0.20240  0.14630  Biso   1.000  C
  C19      1.0000 0.09610  0.24830  0.13490  Biso   1.000  C
  H7       1.0000 0.07590  0.27030  0.14940  Biso   1.000  H
  C20      1.0000 0.18590  0.14780  0.06730  Biso   1.000  C
  C21      1.0000 0.04900  0.18940  0.18440  Biso   1.000  C
  C22      1.0000 0.33130  0.47540  0.06950  Biso   1.000  C
  C23      1.0000 0.36120  0.44400  0.09940  Biso   1.000  C
  H8       1.0000 0.38660  0.44970  0.12210  Biso   1.000  H
  C24      1.0000 0.33950  0.40140  0.08330  Biso   1.000  C
  C25      1.0000 0.35800  0.35700  0.10550  Biso   1.000  C
  C26      1.0000 0.36440  0.27510  0.09550  Biso   1.000  C
  C27      1.0000 0.33900  0.24030  0.06830  Biso   1.000  C
  H9       1.0000 0.31690  0.24670  0.04220  Biso   1.000  H
  C28      1.0000 0.34980  0.19550  0.08390  Biso   1.000  C
  C29      1.0000 0.38310  0.18590  0.11840  Biso   1.000  C
  H10      1.0000 0.39070  0.15540  0.12440  Biso   1.000  H
  C30      1.0000 0.40760  0.21920  0.14600  Biso   1.000  C
  C31      1.0000 0.39760  0.26530  0.13190  Biso   1.000  C
  H11      1.0000 0.41420  0.28890  0.14800  Biso   1.000  H
  C32      1.0000 0.44370  0.20750  0.18280  Biso   1.000  C
  C33      1.0000 0.32260  0.15730  0.05350  Biso   1.000  C
  C34      1.0000 0.32800  0.52150  0.06790  Biso   1.000  C
  C35      1.0000 0.36460  0.59450  0.09230  Biso   1.000  C
  C36      1.0000 0.39340  0.61110  0.13330  Biso   1.000  C
  H12      1.0000 0.41020  0.59070  0.15410  Biso   1.000  H
  C37      1.0000 0.39680  0.65740  0.14260  Biso   1.000  C
  C38      1.0000 0.36800  0.68780  0.11570  Biso   1.000  C
  H13      1.0000 0.36860  0.71870  0.12360  Biso   1.000  H
  C39      1.0000 0.33870  0.67180  0.07720  Biso   1.000  C
  C40      1.0000 0.33620  0.62620  0.06480  Biso   1.000  C
  H14      1.0000 0.31600  0.61640  0.03840  Biso   1.000  H
  C41      1.0000 0.30840  0.70470  0.04670  Biso   1.000  C
  C42      1.0000 0.43320  0.67150  0.18140  Biso   1.000  C
  Cu1      1.0000 0.25445  0.36895  0.01568  Biso   1.000  Cu
  Cu2      1.0000 0.24831  0.48489  0.01022  Biso   1.000  Cu
  Cu3      1.0000 0.24508  0.72189  0.95932  Biso   1.000  Cu
  N1       1.0000 0.20270  0.40444  0.04580  Biso   1.000  N
  N2       1.0000 0.19270  0.44856  0.04560  Biso   1.000  N
  N3       1.0000 0.30250  0.40559  0.05440  Biso   1.000  N
  N4       1.0000 0.29640  0.45027  0.04660  Biso   1.000  N
  N5       1.0000 0.13560  0.30930  0.09370  Biso   1.000  N
  H15      1.0000 0.10920  0.32460  0.09650  Biso   1.000  H
  N6       1.0000 0.34950  0.31932  0.08330  Biso   1.000  N
  H16      1.0000 0.33160  0.32130  0.05620  Biso   1.000  H
  N7       1.0000 0.14840  0.53719  0.06800  Biso   1.000  N
  H17      1.0000 0.16030  0.53250  0.03780  Biso   1.000  H
  N8       1.0000 0.36410  0.54740  0.08520  Biso   1.000  N
  H18      1.0000 0.39040  0.53330  0.09290  Biso   1.000  H
  O1       1.0000 0.21790  0.31475  0.07240  Biso   1.000  O
  O2       1.0000 0.29270  0.53725  0.04040  Biso   1.000  O
  O3       1.0000 0.11400  0.49770  0.13500  Biso   1.000  O
  O4       1.0000 0.38190  0.36120  0.14380  Biso   1.000  O
  O5       1.0000 0.02205  0.22171  0.19940  Biso   1.000  O
  O6       1.0000 0.04905  0.14893  0.19780  Biso   1.000  O
  O7       1.0000 0.18410  0.10718  0.08200  Biso   1.000  O
  O8       1.0000 0.21271  0.16160  0.03150  Biso   1.000  O
  O9       1.0000 0.30317  0.16993  0.01160  Biso   1.000  O
  O10      1.0000 0.32210  0.11947  0.07200  Biso   1.000  O
  O11      1.0000 0.44730  0.16725  0.19640  Biso   1.000  O
  O12      1.0000 0.47165  0.24034  0.19720  Biso   1.000  O
  O13      1.0000 0.46110  0.64107  0.19760  Biso   1.000  O
  O14      1.0000 0.43276  0.71227  0.19580  Biso   1.000  O
  O15      1.0000 0.29691  0.74156  0.06980  Biso   1.000  O
  O16      1.0000 0.29130  0.69050  0.00560  Biso   1.000  O
  O17      1.0000 0.19520  0.68909  0.99610  Biso   1.000  O
  O18      1.0000 0.19795  0.73265  0.06740  Biso   1.000  O
  O19      1.0000 0.07188  0.69114  0.19590  Biso   1.000  O
  O20      1.0000 0.04411  0.61864  0.19730  Biso   1.000  O
  C43      1.0000 0.84640  0.54410  0.57410  Biso   1.000  C
  C44      1.0000 0.85680  0.59120  0.59740  Biso   1.000  C
  H19      1.0000 0.87800  0.59860  0.62400  Biso   1.000  H
  C45      1.0000 0.82960  0.61740  0.57210  Biso   1.000  C
  C46      1.0000 0.85790  0.50090  0.59750  Biso   1.000  C
  C47      1.0000 0.86120  0.41910  0.57940  Biso   1.000  C
  C48      1.0000 0.89010  0.40640  0.62370  Biso   1.000  C
  H20      1.0000 0.90560  0.42870  0.64310  Biso   1.000  H
  C49      1.0000 0.89440  0.35980  0.63720  Biso   1.000  C
  C50      1.0000 0.87170  0.32739  0.61210  Biso   1.000  C
  H21      1.0000 0.87510  0.29710  0.62200  Biso   1.000  H
  C51      1.0000 0.84230  0.33880  0.57030  Biso   1.000  C
  C52      1.0000 0.83810  0.38400  0.55410  Biso   1.000  C
  H22      1.0000 0.81920  0.39060  0.52530  Biso   1.000  H
  C53      1.0000 0.92870  0.34920  0.68050  Biso   1.000  C
  C54      1.0000 0.81560  0.30260  0.53930  Biso   1.000  C
  C55      1.0000 0.82570  0.66770  0.58110  Biso   1.000  C
  C56      1.0000 0.86760  0.73800  0.60330  Biso   1.000  C
  C57      1.0000 0.83840  0.77190  0.58010  Biso   1.000  C
  H23      1.0000 0.81440  0.76340  0.55690  Biso   1.000  H
  C58      1.0000 0.84510  0.81710  0.59150  Biso   1.000  C
  C59      1.0000 0.88060  0.82990  0.62550  Biso   1.000  C
  H24      1.0000 0.88380  0.86040  0.63480  Biso   1.000  H
  C60      1.0000 0.91200  0.79760  0.64630  Biso   1.000  C
  C61      1.0000 0.90390  0.75170  0.63490  Biso   1.000  C
  H25      1.0000 0.92410  0.72970  0.64940  Biso   1.000  H
  C62      1.0000 0.81410  0.85220  0.56730  Biso   1.000  C
  C63      1.0000 0.95100  0.81060  0.68440  Biso   1.000  C
  C64      1.0000 0.66870  0.52460  0.56950  Biso   1.000  C
  C65      1.0000 0.63880  0.55600  0.59940  Biso   1.000  C
  H26      1.0000 0.61340  0.55030  0.62210  Biso   1.000  H
  C66      1.0000 0.66050  0.59860  0.58330  Biso   1.000  C
  C67      1.0000 0.64200  0.64300  0.60550  Biso   1.000  C
  C68      1.0000 0.63560  0.72490  0.59550  Biso   1.000  C
  C69      1.0000 0.66100  0.75970  0.56830  Biso   1.000  C
  H27      1.0000 0.68310  0.75330  0.54220  Biso   1.000  H
  C70      1.0000 0.65020  0.80450  0.58390  Biso   1.000  C
  C71      1.0000 0.61690  0.81410  0.61840  Biso   1.000  C
  H28      1.0000 0.60930  0.84460  0.62440  Biso   1.000  H
  C72      1.0000 0.59240  0.78080  0.64600  Biso   1.000  C
  C73      1.0000 0.60240  0.73470  0.63190  Biso   1.000  C
  H29      1.0000 0.58580  0.71110  0.64800  Biso   1.000  H
  C74      1.0000 0.55630  0.79250  0.68280  Biso   1.000  C
  C75      1.0000 0.67740  0.84270  0.55350  Biso   1.000  C
  C76      1.0000 0.67200  0.47850  0.56790  Biso   1.000  C
  C77      1.0000 0.63540  0.40550  0.59230  Biso   1.000  C
  C78      1.0000 0.60660  0.38890  0.63330  Biso   1.000  C
  H30      1.0000 0.58980  0.40930  0.65410  Biso   1.000  H
  C79      1.0000 0.60320  0.34260  0.64260  Biso   1.000  C
  C80      1.0000 0.63200  0.31220  0.61570  Biso   1.000  C
  H31      1.0000 0.63140  0.28130  0.62360  Biso   1.000  H
  C81      1.0000 0.66130  0.32820  0.57720  Biso   1.000  C
  C82      1.0000 0.66380  0.37380  0.56480  Biso   1.000  C
  H32      1.0000 0.68400  0.38360  0.53840  Biso   1.000  H
  C83      1.0000 0.69160  0.29530  0.54670  Biso   1.000  C
  C84      1.0000 0.56680  0.32850  0.68140  Biso   1.000  C
  Cu4      1.0000 0.74555  0.63105  0.51568  Biso   1.000  Cu
  Cu5      1.0000 0.75169  0.51511  0.51022  Biso   1.000  Cu
  Cu6      1.0000 0.75492  0.27811  0.45932  Biso   1.000  Cu
  N9       1.0000 0.79730  0.59556  0.54580  Biso   1.000  N
  N10      1.0000 0.80730  0.55144  0.54560  Biso   1.000  N
  N11      1.0000 0.69750  0.59441  0.55440  Biso   1.000  N
  N12      1.0000 0.70360  0.54973  0.54660  Biso   1.000  N
  N13      1.0000 0.86440  0.69070  0.59370  Biso   1.000  N
  H33      1.0000 0.89080  0.67540  0.59650  Biso   1.000  H
  N14      1.0000 0.65050  0.68068  0.58330  Biso   1.000  N
  H34      1.0000 0.66840  0.67870  0.55620  Biso   1.000  H
  N15      1.0000 0.85160  0.46281  0.56800  Biso   1.000  N
  H35      1.0000 0.83970  0.46750  0.53780  Biso   1.000  H
  N16      1.0000 0.63590  0.45260  0.58520  Biso   1.000  N
  H36      1.0000 0.60960  0.46670  0.59290  Biso   1.000  H
  O21      1.0000 0.78210  0.68525  0.57240  Biso   1.000  O
  O22      1.0000 0.70730  0.46275  0.54040  Biso   1.000  O
  O23      1.0000 0.88600  0.50230  0.63500  Biso   1.000  O
  O24      1.0000 0.61810  0.63880  0.64380  Biso   1.000  O
  O25      1.0000 0.97795  0.77829  0.69940  Biso   1.000  O
  O26      1.0000 0.95095  0.85107  0.69780  Biso   1.000  O
  O27      1.0000 0.81590  0.89282  0.58200  Biso   1.000  O
  O28      1.0000 0.78729  0.83840  0.53150  Biso   1.000  O
  O29      1.0000 0.69683  0.83007  0.51160  Biso   1.000  O
  O30      1.0000 0.67790  0.88053  0.57200  Biso   1.000  O
  O31      1.0000 0.55270  0.83275  0.69640  Biso   1.000  O
  O32      1.0000 0.52835  0.75966  0.69720  Biso   1.000  O
  O33      1.0000 0.53890  0.35893  0.69760  Biso   1.000  O
  O34      1.0000 0.56724  0.28773  0.69580  Biso   1.000  O
  O35      1.0000 0.70309  0.25844  0.56980  Biso   1.000  O
  O36      1.0000 0.70870  0.30950  0.50560  Biso   1.000  O
  O37      1.0000 0.80480  0.31091  0.49610  Biso   1.000  O
  O38      1.0000 0.80205  0.26735  0.56740  Biso   1.000  O
  O39      1.0000 0.92812  0.30886  0.69590  Biso   1.000  O
  O40      1.0000 0.95589  0.38136  0.69730  Biso   1.000  O
  C85      1.0000 0.84640  0.95590  0.42590  Biso   1.000  C
  C86      1.0000 0.85680  0.90880  0.40260  Biso   1.000  C
  H37      1.0000 0.87800  0.90140  0.37600  Biso   1.000  H
  C87      1.0000 0.82960  0.88260  0.42790  Biso   1.000  C
  C88      1.0000 0.85790  0.99910  0.40250  Biso   1.000  C
  C89      1.0000 0.86120  0.08090  0.42060  Biso   1.000  C
  C90      1.0000 0.89010  0.09360  0.37630  Biso   1.000  C
  H38      1.0000 0.90560  0.07130  0.35690  Biso   1.000  H
  C91      1.0000 0.89440  0.14020  0.36280  Biso   1.000  C
  C92      1.0000 0.87170  0.17261  0.38790  Biso   1.000  C
  H39      1.0000 0.87510  0.20290  0.37800  Biso   1.000  H
  C93      1.0000 0.84230  0.16120  0.42970  Biso   1.000  C
  C94      1.0000 0.83810  0.11600  0.44590  Biso   1.000  C
  H40      1.0000 0.81920  0.10940  0.47470  Biso   1.000  H
  C95      1.0000 0.92870  0.15080  0.31950  Biso   1.000  C
  C96      1.0000 0.81560  0.19740  0.46070  Biso   1.000  C
  C97      1.0000 0.82570  0.83230  0.41890  Biso   1.000  C
  C98      1.0000 0.86760  0.76200  0.39670  Biso   1.000  C
  C99      1.0000 0.83840  0.72810  0.41990  Biso   1.000  C
  H41      1.0000 0.81440  0.73660  0.44310  Biso   1.000  H
  C100     1.0000 0.84510  0.68290  0.40850  Biso   1.000  C
  C101     1.0000 0.88060  0.67010  0.37450  Biso   1.000  C
  H42      1.0000 0.88380  0.63960  0.36520  Biso   1.000  H
  C102     1.0000 0.91200  0.70240  0.35370  Biso   1.000  C
  C103     1.0000 0.90390  0.74830  0.36510  Biso   1.000  C
  H43      1.0000 0.92410  0.77030  0.35060  Biso   1.000  H
  C104     1.0000 0.81410  0.64780  0.43270  Biso   1.000  C
  C105     1.0000 0.95100  0.68940  0.31560  Biso   1.000  C
  C106     1.0000 0.66870  0.97540  0.43050  Biso   1.000  C
  C107     1.0000 0.63880  0.94400  0.40060  Biso   1.000  C
  H44      1.0000 0.61340  0.94970  0.37790  Biso   1.000  H
  C108     1.0000 0.66050  0.90140  0.41670  Biso   1.000  C
  C109     1.0000 0.64200  0.85700  0.39450  Biso   1.000  C
  C110     1.0000 0.63560  0.77510  0.40450  Biso   1.000  C
  C111     1.0000 0.66100  0.74030  0.43170  Biso   1.000  C
  H45      1.0000 0.68310  0.74670  0.45780  Biso   1.000  H
  C112     1.0000 0.65020  0.69550  0.41610  Biso   1.000  C
  C113     1.0000 0.61690  0.68590  0.38160  Biso   1.000  C
  H46      1.0000 0.60930  0.65540  0.37560  Biso   1.000  H
  C114     1.0000 0.59240  0.71920  0.35400  Biso   1.000  C
  C115     1.0000 0.60240  0.76530  0.36810  Biso   1.000  C
  H47      1.0000 0.58580  0.78890  0.35200  Biso   1.000  H
  C116     1.0000 0.55630  0.70750  0.31720  Biso   1.000  C
  C117     1.0000 0.67740  0.65730  0.44650  Biso   1.000  C
  C118     1.0000 0.67200  0.02150  0.43210  Biso   1.000  C
  C119     1.0000 0.63540  0.09450  0.40770  Biso   1.000  C
  C120     1.0000 0.60660  0.11110  0.36670  Biso   1.000  C
  H48      1.0000 0.58980  0.09070  0.34590  Biso   1.000  H
  C121     1.0000 0.60320  0.15740  0.35740  Biso   1.000  C
  C122     1.0000 0.63200  0.18780  0.38430  Biso   1.000  C
  H49      1.0000 0.63140  0.21870  0.37640  Biso   1.000  H
  C123     1.0000 0.66130  0.17180  0.42280  Biso   1.000  C
  C124     1.0000 0.66380  0.12620  0.43520  Biso   1.000  C
  H50      1.0000 0.68400  0.11640  0.46160  Biso   1.000  H
  C125     1.0000 0.69160  0.20470  0.45330  Biso   1.000  C
  C126     1.0000 0.56680  0.17150  0.31860  Biso   1.000  C
  Cu7      1.0000 0.74555  0.86895  0.48432  Biso   1.000  Cu
  Cu8      1.0000 0.75169  0.98489  0.48978  Biso   1.000  Cu
  Cu9      1.0000 0.75492  0.22189  0.54068  Biso   1.000  Cu
  N17      1.0000 0.79730  0.90444  0.45420  Biso   1.000  N
  N18      1.0000 0.80730  0.94856  0.45440  Biso   1.000  N
  N19      1.0000 0.69750  0.90559  0.44560  Biso   1.000  N
  N20      1.0000 0.70360  0.95027  0.45340  Biso   1.000  N
  N21      1.0000 0.86440  0.80930  0.40630  Biso   1.000  N
  H51      1.0000 0.89080  0.82460  0.40350  Biso   1.000  H
  N22      1.0000 0.65050  0.81932  0.41670  Biso   1.000  N
  H52      1.0000 0.66840  0.82130  0.44380  Biso   1.000  H
  N23      1.0000 0.85160  0.03719  0.43200  Biso   1.000  N
  H53      1.0000 0.83970  0.03250  0.46220  Biso   1.000  H
  N24      1.0000 0.63590  0.04740  0.41480  Biso   1.000  N
  H54      1.0000 0.60960  0.03330  0.40710  Biso   1.000  H
  O41      1.0000 0.78210  0.81475  0.42760  Biso   1.000  O
  O42      1.0000 0.70730  0.03725  0.45960  Biso   1.000  O
  O43      1.0000 0.88600  0.99770  0.36500  Biso   1.000  O
  O44      1.0000 0.61810  0.86120  0.35620  Biso   1.000  O
  O45      1.0000 0.97795  0.72171  0.30060  Biso   1.000  O
  O46      1.0000 0.95095  0.64893  0.30220  Biso   1.000  O
  O47      1.0000 0.81590  0.60718  0.41800  Biso   1.000  O
  O48      1.0000 0.78729  0.66160  0.46850  Biso   1.000  O
  O49      1.0000 0.69683  0.66993  0.48840  Biso   1.000  O
  O50      1.0000 0.67790  0.61947  0.42800  Biso   1.000  O
  O51      1.0000 0.55270  0.66725  0.30360  Biso   1.000  O
  O52      1.0000 0.52835  0.74034  0.30280  Biso   1.000  O
  O53      1.0000 0.53890  0.14107  0.30240  Biso   1.000  O
  O54      1.0000 0.56724  0.21227  0.30420  Biso   1.000  O
  O55      1.0000 0.70309  0.24156  0.43020  Biso   1.000  O
  O56      1.0000 0.70870  0.19050  0.49440  Biso   1.000  O
  O57      1.0000 0.80480  0.18909  0.50390  Biso   1.000  O
  O58      1.0000 0.80205  0.23265  0.43260  Biso   1.000  O
  O59      1.0000 0.92812  0.19114  0.30410  Biso   1.000  O
  O60      1.0000 0.95589  0.11864  0.30270  Biso   1.000  O
  C127     1.0000 0.15360  0.04410  0.92590  Biso   1.000  C
  C128     1.0000 0.14320  0.09120  0.90260  Biso   1.000  C
  H55      1.0000 0.12200  0.09860  0.87600  Biso   1.000  H
  C129     1.0000 0.17040  0.11740  0.92790  Biso   1.000  C
  C130     1.0000 0.14210  0.00090  0.90250  Biso   1.000  C
  C131     1.0000 0.13880  0.91910  0.92060  Biso   1.000  C
  C132     1.0000 0.10990  0.90640  0.87630  Biso   1.000  C
  H56      1.0000 0.09440  0.92870  0.85690  Biso   1.000  H
  C133     1.0000 0.10560  0.85980  0.86280  Biso   1.000  C
  C134     1.0000 0.12830  0.82739  0.88790  Biso   1.000  C
  H57      1.0000 0.12490  0.79710  0.87800  Biso   1.000  H
  C135     1.0000 0.15770  0.83880  0.92970  Biso   1.000  C
  C136     1.0000 0.16190  0.88400  0.94590  Biso   1.000  C
  H58      1.0000 0.18080  0.89060  0.97470  Biso   1.000  H
  C137     1.0000 0.07130  0.84920  0.81950  Biso   1.000  C
  C138     1.0000 0.18440  0.80260  0.96070  Biso   1.000  C
  C139     1.0000 0.17430  0.16770  0.91890  Biso   1.000  C
  C140     1.0000 0.13240  0.23800  0.89670  Biso   1.000  C
  C141     1.0000 0.16160  0.27190  0.91990  Biso   1.000  C
  H59      1.0000 0.18560  0.26340  0.94310  Biso   1.000  H
  C142     1.0000 0.15490  0.31710  0.90850  Biso   1.000  C
  C143     1.0000 0.11940  0.32990  0.87450  Biso   1.000  C
  H60      1.0000 0.11620  0.36040  0.86520  Biso   1.000  H
  C144     1.0000 0.08800  0.29760  0.85370  Biso   1.000  C
  C145     1.0000 0.09610  0.25170  0.86510  Biso   1.000  C
  H61      1.0000 0.07590  0.22970  0.85060  Biso   1.000  H
  C146     1.0000 0.18590  0.35220  0.93270  Biso   1.000  C
  C147     1.0000 0.04900  0.31060  0.81560  Biso   1.000  C
  C148     1.0000 0.33130  0.02460  0.93050  Biso   1.000  C
  C149     1.0000 0.36120  0.05600  0.90060  Biso   1.000  C
  H62      1.0000 0.38660  0.05030  0.87790  Biso   1.000  H
  C150     1.0000 0.33950  0.09860  0.91670  Biso   1.000  C
  C151     1.0000 0.35800  0.14300  0.89450  Biso   1.000  C
  C152     1.0000 0.36440  0.22490  0.90450  Biso   1.000  C
  C153     1.0000 0.33900  0.25970  0.93170  Biso   1.000  C
  H63      1.0000 0.31690  0.25330  0.95780  Biso   1.000  H
  C154     1.0000 0.34980  0.30450  0.91610  Biso   1.000  C
  C155     1.0000 0.38310  0.31410  0.88160  Biso   1.000  C
  H64      1.0000 0.39070  0.34460  0.87560  Biso   1.000  H
  C156     1.0000 0.40760  0.28080  0.85400  Biso   1.000  C
  C157     1.0000 0.39760  0.23470  0.86810  Biso   1.000  C
  H65      1.0000 0.41420  0.21110  0.85200  Biso   1.000  H
  C158     1.0000 0.44370  0.29250  0.81720  Biso   1.000  C
  C159     1.0000 0.32260  0.34270  0.94650  Biso   1.000  C
  C160     1.0000 0.32800  0.97850  0.93210  Biso   1.000  C
  C161     1.0000 0.36460  0.90550  0.90770  Biso   1.000  C
  C162     1.0000 0.39340  0.88890  0.86670  Biso   1.000  C
  H66      1.0000 0.41020  0.90930  0.84590  Biso   1.000  H
  C163     1.0000 0.39680  0.84260  0.85740  Biso   1.000  C
  C164     1.0000 0.36800  0.81220  0.88430  Biso   1.000  C
  H67      1.0000 0.36860  0.78130  0.87640  Biso   1.000  H
  C165     1.0000 0.33870  0.82820  0.92280  Biso   1.000  C
  C166     1.0000 0.33620  0.87380  0.93520  Biso   1.000  C
  H68      1.0000 0.31600  0.88360  0.96160  Biso   1.000  H
  C167     1.0000 0.30840  0.79530  0.95330  Biso   1.000  C
  C168     1.0000 0.43320  0.82850  0.81860  Biso   1.000  C
  Cu10     1.0000 0.25445  0.13105  0.98432  Biso   1.000  Cu
  Cu11     1.0000 0.24831  0.01511  0.98978  Biso   1.000  Cu
  Cu12     1.0000 0.24508  0.77811  0.04068  Biso   1.000  Cu
  N25      1.0000 0.20270  0.09556  0.95420  Biso   1.000  N
  N26      1.0000 0.19270  0.05144  0.95440  Biso   1.000  N
  N27      1.0000 0.30250  0.09441  0.94560  Biso   1.000  N
  N28      1.0000 0.29640  0.04973  0.95340  Biso   1.000  N
  N29      1.0000 0.13560  0.19070  0.90630  Biso   1.000  N
  H69      1.0000 0.10920  0.17540  0.90350  Biso   1.000  H
  N30      1.0000 0.34950  0.18068  0.91670  Biso   1.000  N
  H70      1.0000 0.33160  0.17870  0.94380  Biso   1.000  H
  N31      1.0000 0.14840  0.96281  0.93200  Biso   1.000  N
  H71      1.0000 0.16030  0.96750  0.96220  Biso   1.000  H
  N32      1.0000 0.36410  0.95260  0.91480  Biso   1.000  N
  H72      1.0000 0.39040  0.96670  0.90710  Biso   1.000  H
  O61      1.0000 0.21790  0.18525  0.92760  Biso   1.000  O
  O62      1.0000 0.29270  0.96275  0.95960  Biso   1.000  O
  O63      1.0000 0.11400  0.00230  0.86500  Biso   1.000  O
  O64      1.0000 0.38190  0.13880  0.85620  Biso   1.000  O
  O65      1.0000 0.02205  0.27829  0.80060  Biso   1.000  O
  O66      1.0000 0.04905  0.35107  0.80220  Biso   1.000  O
  O67      1.0000 0.18410  0.39282  0.91800  Biso   1.000  O
  O68      1.0000 0.21271  0.33840  0.96850  Biso   1.000  O
  O69      1.0000 0.30317  0.33007  0.98840  Biso   1.000  O
  O70      1.0000 0.32210  0.38053  0.92800  Biso   1.000  O
  O71      1.0000 0.44730  0.33275  0.80360  Biso   1.000  O
  O72      1.0000 0.47165  0.25966  0.80280  Biso   1.000  O
  O73      1.0000 0.46110  0.85893  0.80240  Biso   1.000  O
  O74      1.0000 0.43276  0.78773  0.80420  Biso   1.000  O
  O75      1.0000 0.29691  0.75844  0.93020  Biso   1.000  O
  O76      1.0000 0.29130  0.80950  0.99440  Biso   1.000  O
  O77      1.0000 0.19520  0.81091  0.00390  Biso   1.000  O
  O78      1.0000 0.19795  0.76735  0.93260  Biso   1.000  O
  O79      1.0000 0.07188  0.80886  0.80410  Biso   1.000  O
  O80      1.0000 0.04411  0.88136  0.80270  Biso   1.000  O
  C169     1.0000 0.84640  0.54410  0.92590  Biso   1.000  C
  C170     1.0000 0.85680  0.59120  0.90260  Biso   1.000  C
  H73      1.0000 0.87800  0.59860  0.87600  Biso   1.000  H
  C171     1.0000 0.82960  0.61740  0.92790  Biso   1.000  C
  C172     1.0000 0.85790  0.50090  0.90250  Biso   1.000  C
  C173     1.0000 0.86120  0.41910  0.92060  Biso   1.000  C
  C174     1.0000 0.89010  0.40640  0.87630  Biso   1.000  C
  H74      1.0000 0.90560  0.42870  0.85690  Biso   1.000  H
  C175     1.0000 0.89440  0.35980  0.86280  Biso   1.000  C
  C176     1.0000 0.87170  0.32739  0.88790  Biso   1.000  C
  H75      1.0000 0.87510  0.29710  0.87800  Biso   1.000  H
  C177     1.0000 0.84230  0.33880  0.92970  Biso   1.000  C
  C178     1.0000 0.83810  0.38400  0.94590  Biso   1.000  C
  H76      1.0000 0.81920  0.39060  0.97470  Biso   1.000  H
  C179     1.0000 0.92870  0.34920  0.81950  Biso   1.000  C
  C180     1.0000 0.81560  0.30260  0.96070  Biso   1.000  C
  C181     1.0000 0.82570  0.66770  0.91890  Biso   1.000  C
  C182     1.0000 0.86760  0.73800  0.89670  Biso   1.000  C
  C183     1.0000 0.83840  0.77190  0.91990  Biso   1.000  C
  H77      1.0000 0.81440  0.76340  0.94310  Biso   1.000  H
  C184     1.0000 0.84510  0.81710  0.90850  Biso   1.000  C
  C185     1.0000 0.88060  0.82990  0.87450  Biso   1.000  C
  H78      1.0000 0.88380  0.86040  0.86520  Biso   1.000  H
  C186     1.0000 0.91200  0.79760  0.85370  Biso   1.000  C
  C187     1.0000 0.90390  0.75170  0.86510  Biso   1.000  C
  H79      1.0000 0.92410  0.72970  0.85060  Biso   1.000  H
  C188     1.0000 0.81410  0.85220  0.93270  Biso   1.000  C
  C189     1.0000 0.95100  0.81060  0.81560  Biso   1.000  C
  C190     1.0000 0.66870  0.52460  0.93050  Biso   1.000  C
  C191     1.0000 0.63880  0.55600  0.90060  Biso   1.000  C
  H80      1.0000 0.61340  0.55030  0.87790  Biso   1.000  H
  C192     1.0000 0.66050  0.59860  0.91670  Biso   1.000  C
  C193     1.0000 0.64200  0.64300  0.89450  Biso   1.000  C
  C194     1.0000 0.63560  0.72490  0.90450  Biso   1.000  C
  C195     1.0000 0.66100  0.75970  0.93170  Biso   1.000  C
  H81      1.0000 0.68310  0.75330  0.95780  Biso   1.000  H
  C196     1.0000 0.65020  0.80450  0.91610  Biso   1.000  C
  C197     1.0000 0.61690  0.81410  0.88160  Biso   1.000  C
  H82      1.0000 0.60930  0.84460  0.87560  Biso   1.000  H
  C198     1.0000 0.59240  0.78080  0.85400  Biso   1.000  C
  C199     1.0000 0.60240  0.73470  0.86810  Biso   1.000  C
  H83      1.0000 0.58580  0.71110  0.85200  Biso   1.000  H
  C200     1.0000 0.55630  0.79250  0.81720  Biso   1.000  C
  C201     1.0000 0.67740  0.84270  0.94650  Biso   1.000  C
  C202     1.0000 0.67200  0.47850  0.93210  Biso   1.000  C
  C203     1.0000 0.63540  0.40550  0.90770  Biso   1.000  C
  C204     1.0000 0.60660  0.38890  0.86670  Biso   1.000  C
  H84      1.0000 0.58980  0.40930  0.84590  Biso   1.000  H
  C205     1.0000 0.60320  0.34260  0.85740  Biso   1.000  C
  C206     1.0000 0.63200  0.31220  0.88430  Biso   1.000  C
  H85      1.0000 0.63140  0.28130  0.87640  Biso   1.000  H
  C207     1.0000 0.66130  0.32820  0.92280  Biso   1.000  C
  C208     1.0000 0.66380  0.37380  0.93520  Biso   1.000  C
  H86      1.0000 0.68400  0.38360  0.96160  Biso   1.000  H
  C209     1.0000 0.69160  0.29530  0.95330  Biso   1.000  C
  C210     1.0000 0.56680  0.32850  0.81860  Biso   1.000  C
  Cu13     1.0000 0.74555  0.63105  0.98432  Biso   1.000  Cu
  Cu14     1.0000 0.75169  0.51511  0.98978  Biso   1.000  Cu
  Cu15     1.0000 0.75492  0.27811  0.04068  Biso   1.000  Cu
  N33      1.0000 0.79730  0.59556  0.95420  Biso   1.000  N
  N34      1.0000 0.80730  0.55144  0.95440  Biso   1.000  N
  N35      1.0000 0.69750  0.59441  0.94560  Biso   1.000  N
  N36      1.0000 0.70360  0.54973  0.95340  Biso   1.000  N
  N37      1.0000 0.86440  0.69070  0.90630  Biso   1.000  N
  H87      1.0000 0.89080  0.67540  0.90350  Biso   1.000  H
  N38      1.0000 0.65050  0.68068  0.91670  Biso   1.000  N
  H88      1.0000 0.66840  0.67870  0.94380  Biso   1.000  H
  N39      1.0000 0.85160  0.46281  0.93200  Biso   1.000  N
  H89      1.0000 0.83970  0.46750  0.96220  Biso   1.000  H
  N40      1.0000 0.63590  0.45260  0.91480  Biso   1.000  N
  H90      1.0000 0.60960  0.46670  0.90710  Biso   1.000  H
  O81      1.0000 0.78210  0.68525  0.92760  Biso   1.000  O
  O82      1.0000 0.70730  0.46275  0.95960  Biso   1.000  O
  O83      1.0000 0.88600  0.50230  0.86500  Biso   1.000  O
  O84      1.0000 0.61810  0.63880  0.85620  Biso   1.000  O
  O85      1.0000 0.97795  0.77829  0.80060  Biso   1.000  O
  O86      1.0000 0.95095  0.85107  0.80220  Biso   1.000  O
  O87      1.0000 0.81590  0.89282  0.91800  Biso   1.000  O
  O88      1.0000 0.78729  0.83840  0.96850  Biso   1.000  O
  O89      1.0000 0.69683  0.83007  0.98840  Biso   1.000  O
  O90      1.0000 0.67790  0.88053  0.92800  Biso   1.000  O
  O91      1.0000 0.55270  0.83275  0.80360  Biso   1.000  O
  O92      1.0000 0.52835  0.75966  0.80280  Biso   1.000  O
  O93      1.0000 0.53890  0.35893  0.80240  Biso   1.000  O
  O94      1.0000 0.56724  0.28773  0.80420  Biso   1.000  O
  O95      1.0000 0.70309  0.25844  0.93020  Biso   1.000  O
  O96      1.0000 0.70870  0.30950  0.99440  Biso   1.000  O
  O97      1.0000 0.80480  0.31091  0.00390  Biso   1.000  O
  O98      1.0000 0.80205  0.26735  0.93260  Biso   1.000  O
  O99      1.0000 0.92812  0.30886  0.80410  Biso   1.000  O
  O100     1.0000 0.95589  0.38136  0.80270  Biso   1.000  O
  C211     1.0000 0.15360  0.45590  0.42590  Biso   1.000  C
  C212     1.0000 0.14320  0.40880  0.40260  Biso   1.000  C
  H91      1.0000 0.12200  0.40140  0.37600  Biso   1.000  H
  C213     1.0000 0.17040  0.38260  0.42790  Biso   1.000  C
  C214     1.0000 0.14210  0.49910  0.40250  Biso   1.000  C
  C215     1.0000 0.13880  0.58090  0.42060  Biso   1.000  C
  C216     1.0000 0.10990  0.59360  0.37630  Biso   1.000  C
  H92      1.0000 0.09440  0.57130  0.35690  Biso   1.000  H
  C217     1.0000 0.10560  0.64020  0.36280  Biso   1.000  C
  C218     1.0000 0.12830  0.67261  0.38790  Biso   1.000  C
  H93      1.0000 0.12490  0.70290  0.37800  Biso   1.000  H
  C219     1.0000 0.15770  0.66120  0.42970  Biso   1.000  C
  C220     1.0000 0.16190  0.61600  0.44590  Biso   1.000  C
  H94      1.0000 0.18080  0.60940  0.47470  Biso   1.000  H
  C221     1.0000 0.07130  0.65080  0.31950  Biso   1.000  C
  C222     1.0000 0.18440  0.69740  0.46070  Biso   1.000  C
  C223     1.0000 0.17430  0.33230  0.41890  Biso   1.000  C
  C224     1.0000 0.13240  0.26200  0.39670  Biso   1.000  C
  C225     1.0000 0.16160  0.22810  0.41990  Biso   1.000  C
  H95      1.0000 0.18560  0.23660  0.44310  Biso   1.000  H
  C226     1.0000 0.15490  0.18290  0.40850  Biso   1.000  C
  C227     1.0000 0.11940  0.17010  0.37450  Biso   1.000  C
  H96      1.0000 0.11620  0.13960  0.36520  Biso   1.000  H
  C228     1.0000 0.08800  0.20240  0.35370  Biso   1.000  C
  C229     1.0000 0.09610  0.24830  0.36510  Biso   1.000  C
  H97      1.0000 0.07590  0.27030  0.35060  Biso   1.000  H
  C230     1.0000 0.18590  0.14780  0.43270  Biso   1.000  C
  C231     1.0000 0.04900  0.18940  0.31560  Biso   1.000  C
  C232     1.0000 0.33130  0.47540  0.43050  Biso   1.000  C
  C233     1.0000 0.36120  0.44400  0.40060  Biso   1.000  C
  H98      1.0000 0.38660  0.44970  0.37790  Biso   1.000  H
  C234     1.0000 0.33950  0.40140  0.41670  Biso   1.000  C
  C235     1.0000 0.35800  0.35700  0.39450  Biso   1.000  C
  C236     1.0000 0.36440  0.27510  0.40450  Biso   1.000  C
  C237     1.0000 0.33900  0.24030  0.43170  Biso   1.000  C
  H99      1.0000 0.31690  0.24670  0.45780  Biso   1.000  H
  C238     1.0000 0.34980  0.19550  0.41610  Biso   1.000  C
  C239     1.0000 0.38310  0.18590  0.38160  Biso   1.000  C
  H100     1.0000 0.39070  0.15540  0.37560  Biso   1.000  H
  C240     1.0000 0.40760  0.21920  0.35400  Biso   1.000  C
  C241     1.0000 0.39760  0.26530  0.36810  Biso   1.000  C
  H101     1.0000 0.41420  0.28890  0.35200  Biso   1.000  H
  C242     1.0000 0.44370  0.20750  0.31720  Biso   1.000  C
  C243     1.0000 0.32260  0.15730  0.44650  Biso   1.000  C
  C244     1.0000 0.32800  0.52150  0.43210  Biso   1.000  C
  C245     1.0000 0.36460  0.59450  0.40770  Biso   1.000  C
  C246     1.0000 0.39340  0.61110  0.36670  Biso   1.000  C
  H102     1.0000 0.41020  0.59070  0.34590  Biso   1.000  H
  C247     1.0000 0.39680  0.65740  0.35740  Biso   1.000  C
  C248     1.0000 0.36800  0.68780  0.38430  Biso   1.000  C
  H103     1.0000 0.36860  0.71870  0.37640  Biso   1.000  H
  C249     1.0000 0.33870  0.67180  0.42280  Biso   1.000  C
  C250     1.0000 0.33620  0.62620  0.43520  Biso   1.000  C
  H104     1.0000 0.31600  0.61640  0.46160  Biso   1.000  H
  C251     1.0000 0.30840  0.70470  0.45330  Biso   1.000  C
  C252     1.0000 0.43320  0.67150  0.31860  Biso   1.000  C
  Cu16     1.0000 0.25445  0.36895  0.48432  Biso   1.000  Cu
  Cu17     1.0000 0.24831  0.48489  0.48978  Biso   1.000  Cu
  Cu18     1.0000 0.24508  0.72189  0.54068  Biso   1.000  Cu
  N41      1.0000 0.20270  0.40444  0.45420  Biso   1.000  N
  N42      1.0000 0.19270  0.44856  0.45440  Biso   1.000  N
  N43      1.0000 0.30250  0.40559  0.44560  Biso   1.000  N
  N44      1.0000 0.29640  0.45027  0.45340  Biso   1.000  N
  N45      1.0000 0.13560  0.30930  0.40630  Biso   1.000  N
  H105     1.0000 0.10920  0.32460  0.40350  Biso   1.000  H
  N46      1.0000 0.34950  0.31932  0.41670  Biso   1.000  N
  H106     1.0000 0.33160  0.32130  0.44380  Biso   1.000  H
  N47      1.0000 0.14840  0.53719  0.43200  Biso   1.000  N
  H107     1.0000 0.16030  0.53250  0.46220  Biso   1.000  H
  N48      1.0000 0.36410  0.54740  0.41480  Biso   1.000  N
  H108     1.0000 0.39040  0.53330  0.40710  Biso   1.000  H
  O101     1.0000 0.21790  0.31475  0.42760  Biso   1.000  O
  O102     1.0000 0.29270  0.53725  0.45960  Biso   1.000  O
  O103     1.0000 0.11400  0.49770  0.36500  Biso   1.000  O
  O104     1.0000 0.38190  0.36120  0.35620  Biso   1.000  O
  O105     1.0000 0.02205  0.22171  0.30060  Biso   1.000  O
  O106     1.0000 0.04905  0.14893  0.30220  Biso   1.000  O
  O107     1.0000 0.18410  0.10718  0.41800  Biso   1.000  O
  O108     1.0000 0.21271  0.16160  0.46850  Biso   1.000  O
  O109     1.0000 0.30317  0.16993  0.48840  Biso   1.000  O
  O110     1.0000 0.32210  0.11947  0.42800  Biso   1.000  O
  O111     1.0000 0.44730  0.16725  0.30360  Biso   1.000  O
  O112     1.0000 0.47165  0.24034  0.30280  Biso   1.000  O
  O113     1.0000 0.46110  0.64107  0.30240  Biso   1.000  O
  O114     1.0000 0.43276  0.71227  0.30420  Biso   1.000  O
  O115     1.0000 0.29691  0.74156  0.43020  Biso   1.000  O
  O116     1.0000 0.29130  0.69050  0.49440  Biso   1.000  O
  O117     1.0000 0.19520  0.68909  0.50390  Biso   1.000  O
  O118     1.0000 0.19795  0.73265  0.43260  Biso   1.000  O
  O119     1.0000 0.07188  0.69114  0.30410  Biso   1.000  O
  O120     1.0000 0.04411  0.61864  0.30270  Biso   1.000  O
  C253     1.0000 0.15360  0.04410  0.57410  Biso   1.000  C
  C254     1.0000 0.14320  0.09120  0.59740  Biso   1.000  C
  H109     1.0000 0.12200  0.09860  0.62400  Biso   1.000  H
  C255     1.0000 0.17040  0.11740  0.57210  Biso   1.000  C
  C256     1.0000 0.14210  0.00090  0.59750  Biso   1.000  C
  C257     1.0000 0.13880  0.91910  0.57940  Biso   1.000  C
  C258     1.0000 0.10990  0.90640  0.62370  Biso   1.000  C
  H110     1.0000 0.09440  0.92870  0.64310  Biso   1.000  H
  C259     1.0000 0.10560  0.85980  0.63720  Biso   1.000  C
  C260     1.0000 0.12830  0.82739  0.61210  Biso   1.000  C
  H111     1.0000 0.12490  0.79710  0.62200  Biso   1.000  H
  C261     1.0000 0.15770  0.83880  0.57030  Biso   1.000  C
  C262     1.0000 0.16190  0.88400  0.55410  Biso   1.000  C
  H112     1.0000 0.18080  0.89060  0.52530  Biso   1.000  H
  C263     1.0000 0.07130  0.84920  0.68050  Biso   1.000  C
  C264     1.0000 0.18440  0.80260  0.53930  Biso   1.000  C
  C265     1.0000 0.17430  0.16770  0.58110  Biso   1.000  C
  C266     1.0000 0.13240  0.23800  0.60330  Biso   1.000  C
  C267     1.0000 0.16160  0.27190  0.58010  Biso   1.000  C
  H113     1.0000 0.18560  0.26340  0.55690  Biso   1.000  H
  C268     1.0000 0.15490  0.31710  0.59150  Biso   1.000  C
  C269     1.0000 0.11940  0.32990  0.62550  Biso   1.000  C
  H114     1.0000 0.11620  0.36040  0.63480  Biso   1.000  H
  C270     1.0000 0.08800  0.29760  0.64630  Biso   1.000  C
  C271     1.0000 0.09610  0.25170  0.63490  Biso   1.000  C
  H115     1.0000 0.07590  0.22970  0.64940  Biso   1.000  H
  C272     1.0000 0.18590  0.35220  0.56730  Biso   1.000  C
  C273     1.0000 0.04900  0.31060  0.68440  Biso   1.000  C
  C274     1.0000 0.33130  0.02460  0.56950  Biso   1.000  C
  C275     1.0000 0.36120  0.05600  0.59940  Biso   1.000  C
  H116     1.0000 0.38660  0.05030  0.62210  Biso   1.000  H
  C276     1.0000 0.33950  0.09860  0.58330  Biso   1.000  C
  C277     1.0000 0.35800  0.14300  0.60550  Biso   1.000  C
  C278     1.0000 0.36440  0.22490  0.59550  Biso   1.000  C
  C279     1.0000 0.33900  0.25970  0.56830  Biso   1.000  C
  H117     1.0000 0.31690  0.25330  0.54220  Biso   1.000  H
  C280     1.0000 0.34980  0.30450  0.58390  Biso   1.000  C
  C281     1.0000 0.38310  0.31410  0.61840  Biso   1.000  C
  H118     1.0000 0.39070  0.34460  0.62440  Biso   1.000  H
  C282     1.0000 0.40760  0.28080  0.64600  Biso   1.000  C
  C283     1.0000 0.39760  0.23470  0.63190  Biso   1.000  C
  H119     1.0000 0.41420  0.21110  0.64800  Biso   1.000  H
  C284     1.0000 0.44370  0.29250  0.68280  Biso   1.000  C
  C285     1.0000 0.32260  0.34270  0.55350  Biso   1.000  C
  C286     1.0000 0.32800  0.97850  0.56790  Biso   1.000  C
  C287     1.0000 0.36460  0.90550  0.59230  Biso   1.000  C
  C288     1.0000 0.39340  0.88890  0.63330  Biso   1.000  C
  H120     1.0000 0.41020  0.90930  0.65410  Biso   1.000  H
  C289     1.0000 0.39680  0.84260  0.64260  Biso   1.000  C
  C290     1.0000 0.36800  0.81220  0.61570  Biso   1.000  C
  H121     1.0000 0.36860  0.78130  0.62360  Biso   1.000  H
  C291     1.0000 0.33870  0.82820  0.57720  Biso   1.000  C
  C292     1.0000 0.33620  0.87380  0.56480  Biso   1.000  C
  H122     1.0000 0.31600  0.88360  0.53840  Biso   1.000  H
  C293     1.0000 0.30840  0.79530  0.54670  Biso   1.000  C
  C294     1.0000 0.43320  0.82850  0.68140  Biso   1.000  C
  Cu19     1.0000 0.25445  0.13105  0.51568  Biso   1.000  Cu
  Cu20     1.0000 0.24831  0.01511  0.51022  Biso   1.000  Cu
  Cu21     1.0000 0.24508  0.77811  0.45932  Biso   1.000  Cu
  N49      1.0000 0.20270  0.09556  0.54580  Biso   1.000  N
  N50      1.0000 0.19270  0.05144  0.54560  Biso   1.000  N
  N51      1.0000 0.30250  0.09441  0.55440  Biso   1.000  N
  N52      1.0000 0.29640  0.04973  0.54660  Biso   1.000  N
  N53      1.0000 0.13560  0.19070  0.59370  Biso   1.000  N
  H123     1.0000 0.10920  0.17540  0.59650  Biso   1.000  H
  N54      1.0000 0.34950  0.18068  0.58330  Biso   1.000  N
  H124     1.0000 0.33160  0.17870  0.55620  Biso   1.000  H
  N55      1.0000 0.14840  0.96281  0.56800  Biso   1.000  N
  H125     1.0000 0.16030  0.96750  0.53780  Biso   1.000  H
  N56      1.0000 0.36410  0.95260  0.58520  Biso   1.000  N
  H126     1.0000 0.39040  0.96670  0.59290  Biso   1.000  H
  O121     1.0000 0.21790  0.18525  0.57240  Biso   1.000  O
  O122     1.0000 0.29270  0.96275  0.54040  Biso   1.000  O
  O123     1.0000 0.11400  0.00230  0.63500  Biso   1.000  O
  O124     1.0000 0.38190  0.13880  0.64380  Biso   1.000  O
  O125     1.0000 0.02205  0.27829  0.69940  Biso   1.000  O
  O126     1.0000 0.04905  0.35107  0.69780  Biso   1.000  O
  O127     1.0000 0.18410  0.39282  0.58200  Biso   1.000  O
  O128     1.0000 0.21271  0.33840  0.53150  Biso   1.000  O
  O129     1.0000 0.30317  0.33007  0.51160  Biso   1.000  O
  O130     1.0000 0.32210  0.38053  0.57200  Biso   1.000  O
  O131     1.0000 0.44730  0.33275  0.69640  Biso   1.000  O
  O132     1.0000 0.47165  0.25966  0.69720  Biso   1.000  O
  O133     1.0000 0.46110  0.85893  0.69760  Biso   1.000  O
  O134     1.0000 0.43276  0.78773  0.69580  Biso   1.000  O
  O135     1.0000 0.29691  0.75844  0.56980  Biso   1.000  O
  O136     1.0000 0.29130  0.80950  0.50560  Biso   1.000  O
  O137     1.0000 0.19520  0.81091  0.49610  Biso   1.000  O
  O138     1.0000 0.19795  0.76735  0.56740  Biso   1.000  O
  O139     1.0000 0.07188  0.80886  0.69590  Biso   1.000  O
  O140     1.0000 0.04411  0.88136  0.69730  Biso   1.000  O
  C295     1.0000 0.84640  0.95590  0.07410  Biso   1.000  C
  C296     1.0000 0.85680  0.90880  0.09740  Biso   1.000  C
  H127     1.0000 0.87800  0.90140  0.12400  Biso   1.000  H
  C297     1.0000 0.82960  0.88260  0.07210  Biso   1.000  C
  C298     1.0000 0.85790  0.99910  0.09750  Biso   1.000  C
  C299     1.0000 0.86120  0.08090  0.07940  Biso   1.000  C
  C300     1.0000 0.89010  0.09360  0.12370  Biso   1.000  C
  H128     1.0000 0.90560  0.07130  0.14310  Biso   1.000  H
  C301     1.0000 0.89440  0.14020  0.13720  Biso   1.000  C
  C302     1.0000 0.87170  0.17261  0.11210  Biso   1.000  C
  H129     1.0000 0.87510  0.20290  0.12200  Biso   1.000  H
  C303     1.0000 0.84230  0.16120  0.07030  Biso   1.000  C
  C304     1.0000 0.83810  0.11600  0.05410  Biso   1.000  C
  H130     1.0000 0.81920  0.10940  0.02530  Biso   1.000  H
  C305     1.0000 0.92870  0.15080  0.18050  Biso   1.000  C
  C306     1.0000 0.81560  0.19740  0.03930  Biso   1.000  C
  C307     1.0000 0.82570  0.83230  0.08110  Biso   1.000  C
  C308     1.0000 0.86760  0.76200  0.10330  Biso   1.000  C
  C309     1.0000 0.83840  0.72810  0.08010  Biso   1.000  C
  H131     1.0000 0.81440  0.73660  0.05690  Biso   1.000  H
  C310     1.0000 0.84510  0.68290  0.09150  Biso   1.000  C
  C311     1.0000 0.88060  0.67010  0.12550  Biso   1.000  C
  H132     1.0000 0.88380  0.63960  0.13480  Biso   1.000  H
  C312     1.0000 0.91200  0.70240  0.14630  Biso   1.000  C
  C313     1.0000 0.90390  0.74830  0.13490  Biso   1.000  C
  H133     1.0000 0.92410  0.77030  0.14940  Biso   1.000  H
  C314     1.0000 0.81410  0.64780  0.06730  Biso   1.000  C
  C315     1.0000 0.95100  0.68940  0.18440  Biso   1.000  C
  C316     1.0000 0.66870  0.97540  0.06950  Biso   1.000  C
  C317     1.0000 0.63880  0.94400  0.09940  Biso   1.000  C
  H134     1.0000 0.61340  0.94970  0.12210  Biso   1.000  H
  C318     1.0000 0.66050  0.90140  0.08330  Biso   1.000  C
  C319     1.0000 0.64200  0.85700  0.10550  Biso   1.000  C
  C320     1.0000 0.63560  0.77510  0.09550  Biso   1.000  C
  C321     1.0000 0.66100  0.74030  0.06830  Biso   1.000  C
  H135     1.0000 0.68310  0.74670  0.04220  Biso   1.000  H
  C322     1.0000 0.65020  0.69550  0.08390  Biso   1.000  C
  C323     1.0000 0.61690  0.68590  0.11840  Biso   1.000  C
  H136     1.0000 0.60930  0.65540  0.12440  Biso   1.000  H
  C324     1.0000 0.59240  0.71920  0.14600  Biso   1.000  C
  C325     1.0000 0.60240  0.76530  0.13190  Biso   1.000  C
  H137     1.0000 0.58580  0.78890  0.14800  Biso   1.000  H
  C326     1.0000 0.55630  0.70750  0.18280  Biso   1.000  C
  C327     1.0000 0.67740  0.65730  0.05350  Biso   1.000  C
  C328     1.0000 0.67200  0.02150  0.06790  Biso   1.000  C
  C329     1.0000 0.63540  0.09450  0.09230  Biso   1.000  C
  C330     1.0000 0.60660  0.11110  0.13330  Biso   1.000  C
  H138     1.0000 0.58980  0.09070  0.15410  Biso   1.000  H
  C331     1.0000 0.60320  0.15740  0.14260  Biso   1.000  C
  C332     1.0000 0.63200  0.18780  0.11570  Biso   1.000  C
  H139     1.0000 0.63140  0.21870  0.12360  Biso   1.000  H
  C333     1.0000 0.66130  0.17180  0.07720  Biso   1.000  C
  C334     1.0000 0.66380  0.12620  0.06480  Biso   1.000  C
  H140     1.0000 0.68400  0.11640  0.03840  Biso   1.000  H
  C335     1.0000 0.69160  0.20470  0.04670  Biso   1.000  C
  C336     1.0000 0.56680  0.17150  0.18140  Biso   1.000  C
  Cu22     1.0000 0.74555  0.86895  0.01568  Biso   1.000  Cu
  Cu23     1.0000 0.75169  0.98489  0.01022  Biso   1.000  Cu
  Cu24     1.0000 0.75492  0.22189  0.95932  Biso   1.000  Cu
  N57      1.0000 0.79730  0.90444  0.04580  Biso   1.000  N
  N58      1.0000 0.80730  0.94856  0.04560  Biso   1.000  N
  N59      1.0000 0.69750  0.90559  0.05440  Biso   1.000  N
  N60      1.0000 0.70360  0.95027  0.04660  Biso   1.000  N
  N61      1.0000 0.86440  0.80930  0.09370  Biso   1.000  N
  H141     1.0000 0.89080  0.82460  0.09650  Biso   1.000  H
  N62      1.0000 0.65050  0.81932  0.08330  Biso   1.000  N
  H142     1.0000 0.66840  0.82130  0.05620  Biso   1.000  H
  N63      1.0000 0.85160  0.03719  0.06800  Biso   1.000  N
  H143     1.0000 0.83970  0.03250  0.03780  Biso   1.000  H
  N64      1.0000 0.63590  0.04740  0.08520  Biso   1.000  N
  H144     1.0000 0.60960  0.03330  0.09290  Biso   1.000  H
  O141     1.0000 0.78210  0.81475  0.07240  Biso   1.000  O
  O142     1.0000 0.70730  0.03725  0.04040  Biso   1.000  O
  O143     1.0000 0.88600  0.99770  0.13500  Biso   1.000  O
  O144     1.0000 0.61810  0.86120  0.14380  Biso   1.000  O
  O145     1.0000 0.97795  0.72171  0.19940  Biso   1.000  O
  O146     1.0000 0.95095  0.64893  0.19780  Biso   1.000  O
  O147     1.0000 0.81590  0.60718  0.08200  Biso   1.000  O
  O148     1.0000 0.78729  0.66160  0.03150  Biso   1.000  O
  O149     1.0000 0.69683  0.66993  0.01160  Biso   1.000  O
  O150     1.0000 0.67790  0.61947  0.07200  Biso   1.000  O
  O151     1.0000 0.55270  0.66725  0.19640  Biso   1.000  O
  O152     1.0000 0.52835  0.74034  0.19720  Biso   1.000  O
  O153     1.0000 0.53890  0.14107  0.19760  Biso   1.000  O
  O154     1.0000 0.56724  0.21227  0.19580  Biso   1.000  O
  O155     1.0000 0.70309  0.24156  0.06980  Biso   1.000  O
  O156     1.0000 0.70870  0.19050  0.00560  Biso   1.000  O
  O157     1.0000 0.80480  0.18909  0.99610  Biso   1.000  O
  O158     1.0000 0.80205  0.23265  0.06740  Biso   1.000  O
  O159     1.0000 0.92812  0.19114  0.19590  Biso   1.000  O
  O160     1.0000 0.95589  0.11864  0.19730  Biso   1.000  O
  Cu25     1.0000 0.99570  0.62728  0.25000  Biso   1.000  Cu
  Cu26     1.0000 0.02738  0.71256  0.25000  Biso   1.000  Cu
  Cu27     1.0000 0.47753  0.73281  0.25000  Biso   1.000  Cu
  Cu28     1.0000 0.50889  0.64767  0.25000  Biso   1.000  Cu
  Cu29     1.0000 0.00430  0.37272  0.75000  Biso   1.000  Cu
  Cu30     1.0000 0.97262  0.28744  0.75000  Biso   1.000  Cu
  Cu31     1.0000 0.52247  0.26719  0.75000  Biso   1.000  Cu
  Cu32     1.0000 0.49111  0.35233  0.75000  Biso   1.000  Cu
  Cu33     1.0000 0.00430  0.12728  0.25000  Biso   1.000  Cu
  Cu34     1.0000 0.97262  0.21256  0.25000  Biso   1.000  Cu
  Cu35     1.0000 0.52247  0.23281  0.25000  Biso   1.000  Cu
  Cu36     1.0000 0.49111  0.14767  0.25000  Biso   1.000  Cu
  Cu37     1.0000 0.99570  0.87272  0.75000  Biso   1.000  Cu
  Cu38     1.0000 0.02738  0.78744  0.75000  Biso   1.000  Cu
  Cu39     1.0000 0.47753  0.76719  0.75000  Biso   1.000  Cu
  Cu40     1.0000 0.50889  0.85233  0.75000  Biso   1.000  Cu
