data_image0
_cell_length_a       26.3136
_cell_length_b       26.3136
_cell_length_c       26.3136
_cell_angle_alpha    90
_cell_angle_beta     90
_cell_angle_gamma    90

_symmetry_space_group_name_H-M    "P 1"
_symmetry_int_tables_number       1

loop_
  _symmetry_equiv_pos_as_xyz
  'x, y, z'

loop_
  _atom_site_label
  _atom_site_occupancy
  _atom_site_fract_x
  _atom_site_fract_y
  _atom_site_fract_z
  _atom_site_thermal_displace_type
  _atom_site_B_iso_or_equiv
  _atom_site_type_symbol
  O1       1.0000 0.05191  0.18253  0.25688  Biso   1.000  O
  O2       1.0000 0.05191  0.68253  0.75688  Biso   1.000  O
  O3       1.0000 0.55191  0.18253  0.75688  Biso   1.000  O
  O4       1.0000 0.55191  0.68253  0.25688  Biso   1.000  O
  O5       1.0000 0.94809  0.81747  0.25688  Biso   1.000  O
  O6       1.0000 0.94809  0.31747  0.75688  Biso   1.000  O
  O7       1.0000 0.44809  0.81747  0.75688  Biso   1.000  O
  O8       1.0000 0.44809  0.31747  0.25688  Biso   1.000  O
  O9       1.0000 0.94809  0.18253  0.74312  Biso   1.000  O
  O10      1.0000 0.94809  0.68253  0.24312  Biso   1.000  O
  O11      1.0000 0.44809  0.18253  0.24312  Biso   1.000  O
  O12      1.0000 0.44809  0.68253  0.74312  Biso   1.000  O
  O13      1.0000 0.05191  0.81747  0.74312  Biso   1.000  O
  O14      1.0000 0.05191  0.31747  0.24312  Biso   1.000  O
  O15      1.0000 0.55191  0.81747  0.24312  Biso   1.000  O
  O16      1.0000 0.55191  0.31747  0.74312  Biso   1.000  O
  O17      1.0000 0.25688  0.05191  0.18253  Biso   1.000  O
  O18      1.0000 0.25688  0.55191  0.68253  Biso   1.000  O
  O19      1.0000 0.75688  0.05191  0.68253  Biso   1.000  O
  O20      1.0000 0.75688  0.55191  0.18253  Biso   1.000  O
  O21      1.0000 0.25688  0.94809  0.81747  Biso   1.000  O
  O22      1.0000 0.25688  0.44809  0.31747  Biso   1.000  O
  O23      1.0000 0.75688  0.94809  0.31747  Biso   1.000  O
  O24      1.0000 0.75688  0.44809  0.81747  Biso   1.000  O
  O25      1.0000 0.74312  0.94809  0.18253  Biso   1.000  O
  O26      1.0000 0.74312  0.44809  0.68253  Biso   1.000  O
  O27      1.0000 0.24312  0.94809  0.68253  Biso   1.000  O
  O28      1.0000 0.24312  0.44809  0.18253  Biso   1.000  O
  O29      1.0000 0.74312  0.05191  0.81747  Biso   1.000  O
  O30      1.0000 0.74312  0.55191  0.31747  Biso   1.000  O
  O31      1.0000 0.24312  0.05191  0.31747  Biso   1.000  O
  O32      1.0000 0.24312  0.55191  0.81747  Biso   1.000  O
  O33      1.0000 0.18253  0.25688  0.05191  Biso   1.000  O
  O34      1.0000 0.18253  0.75688  0.55191  Biso   1.000  O
  O35      1.0000 0.68253  0.25688  0.55191  Biso   1.000  O
  O36      1.0000 0.68253  0.75688  0.05191  Biso   1.000  O
  O37      1.0000 0.81747  0.25688  0.94809  Biso   1.000  O
  O38      1.0000 0.81747  0.75688  0.44809  Biso   1.000  O
  O39      1.0000 0.31747  0.25688  0.44809  Biso   1.000  O
  O40      1.0000 0.31747  0.75688  0.94809  Biso   1.000  O
  O41      1.0000 0.18253  0.74312  0.94809  Biso   1.000  O
  O42      1.0000 0.18253  0.24312  0.44809  Biso   1.000  O
  O43      1.0000 0.68253  0.74312  0.44809  Biso   1.000  O
  O44      1.0000 0.68253  0.24312  0.94809  Biso   1.000  O
  O45      1.0000 0.81747  0.74312  0.05191  Biso   1.000  O
  O46      1.0000 0.81747  0.24312  0.55191  Biso   1.000  O
  O47      1.0000 0.31747  0.74312  0.55191  Biso   1.000  O
  O48      1.0000 0.31747  0.24312  0.05191  Biso   1.000  O
  O49      1.0000 0.18253  0.05191  0.74312  Biso   1.000  O
  O50      1.0000 0.18253  0.55191  0.24312  Biso   1.000  O
  O51      1.0000 0.68253  0.05191  0.24312  Biso   1.000  O
  O52      1.0000 0.68253  0.55191  0.74312  Biso   1.000  O
  O53      1.0000 0.81747  0.94809  0.74312  Biso   1.000  O
  O54      1.0000 0.81747  0.44809  0.24312  Biso   1.000  O
  O55      1.0000 0.31747  0.94809  0.24312  Biso   1.000  O
  O56      1.0000 0.31747  0.44809  0.74312  Biso   1.000  O
  O57      1.0000 0.18253  0.94809  0.25688  Biso   1.000  O
  O58      1.0000 0.18253  0.44809  0.75688  Biso   1.000  O
  O59      1.0000 0.68253  0.94809  0.75688  Biso   1.000  O
  O60      1.0000 0.68253  0.44809  0.25688  Biso   1.000  O
  O61      1.0000 0.81747  0.05191  0.25688  Biso   1.000  O
  O62      1.0000 0.81747  0.55191  0.75688  Biso   1.000  O
  O63      1.0000 0.31747  0.05191  0.75688  Biso   1.000  O
  O64      1.0000 0.31747  0.55191  0.25688  Biso   1.000  O
  O65      1.0000 0.05191  0.25688  0.81747  Biso   1.000  O
  O66      1.0000 0.05191  0.75688  0.31747  Biso   1.000  O
  O67      1.0000 0.55191  0.25688  0.31747  Biso   1.000  O
  O68      1.0000 0.55191  0.75688  0.81747  Biso   1.000  O
  O69      1.0000 0.94809  0.25688  0.18253  Biso   1.000  O
  O70      1.0000 0.94809  0.75688  0.68253  Biso   1.000  O
  O71      1.0000 0.44809  0.25688  0.68253  Biso   1.000  O
  O72      1.0000 0.44809  0.75688  0.18253  Biso   1.000  O
  O73      1.0000 0.94809  0.74312  0.81747  Biso   1.000  O
  O74      1.0000 0.94809  0.24312  0.31747  Biso   1.000  O
  O75      1.0000 0.44809  0.74312  0.31747  Biso   1.000  O
  O76      1.0000 0.44809  0.24312  0.81747  Biso   1.000  O
  O77      1.0000 0.05191  0.74312  0.18253  Biso   1.000  O
  O78      1.0000 0.05191  0.24312  0.68253  Biso   1.000  O
  O79      1.0000 0.55191  0.74312  0.68253  Biso   1.000  O
  O80      1.0000 0.55191  0.24312  0.18253  Biso   1.000  O
  O81      1.0000 0.25688  0.18253  0.94809  Biso   1.000  O
  O82      1.0000 0.25688  0.68253  0.44809  Biso   1.000  O
  O83      1.0000 0.75688  0.18253  0.44809  Biso   1.000  O
  O84      1.0000 0.75688  0.68253  0.94809  Biso   1.000  O
  O85      1.0000 0.25688  0.81747  0.05191  Biso   1.000  O
  O86      1.0000 0.25688  0.31747  0.55191  Biso   1.000  O
  O87      1.0000 0.75688  0.81747  0.55191  Biso   1.000  O
  O88      1.0000 0.75688  0.31747  0.05191  Biso   1.000  O
  O89      1.0000 0.74312  0.18253  0.05191  Biso   1.000  O
  O90      1.0000 0.74312  0.68253  0.55191  Biso   1.000  O
  O91      1.0000 0.24312  0.18253  0.55191  Biso   1.000  O
  O92      1.0000 0.24312  0.68253  0.05191  Biso   1.000  O
  O93      1.0000 0.74312  0.81747  0.94809  Biso   1.000  O
  O94      1.0000 0.74312  0.31747  0.44809  Biso   1.000  O
  O95      1.0000 0.24312  0.81747  0.44809  Biso   1.000  O
  O96      1.0000 0.24312  0.31747  0.94809  Biso   1.000  O
  O97      1.0000 0.94809  0.81747  0.74312  Biso   1.000  O
  O98      1.0000 0.94809  0.31747  0.24312  Biso   1.000  O
  O99      1.0000 0.44809  0.81747  0.24312  Biso   1.000  O
  O100     1.0000 0.44809  0.31747  0.74312  Biso   1.000  O
  O101     1.0000 0.05191  0.18253  0.74312  Biso   1.000  O
  O102     1.0000 0.05191  0.68253  0.24312  Biso   1.000  O
  O103     1.0000 0.55191  0.18253  0.24312  Biso   1.000  O
  O104     1.0000 0.55191  0.68253  0.74312  Biso   1.000  O
  O105     1.0000 0.05191  0.81747  0.25688  Biso   1.000  O
  O106     1.0000 0.05191  0.31747  0.75688  Biso   1.000  O
  O107     1.0000 0.55191  0.81747  0.75688  Biso   1.000  O
  O108     1.0000 0.55191  0.31747  0.25688  Biso   1.000  O
  O109     1.0000 0.94809  0.18253  0.25688  Biso   1.000  O
  O110     1.0000 0.94809  0.68253  0.75688  Biso   1.000  O
  O111     1.0000 0.44809  0.18253  0.75688  Biso   1.000  O
  O112     1.0000 0.44809  0.68253  0.25688  Biso   1.000  O
  O113     1.0000 0.74312  0.94809  0.81747  Biso   1.000  O
  O114     1.0000 0.74312  0.44809  0.31747  Biso   1.000  O
  O115     1.0000 0.24312  0.94809  0.31747  Biso   1.000  O
  O116     1.0000 0.24312  0.44809  0.81747  Biso   1.000  O
  O117     1.0000 0.74312  0.05191  0.18253  Biso   1.000  O
  O118     1.0000 0.74312  0.55191  0.68253  Biso   1.000  O
  O119     1.0000 0.24312  0.05191  0.68253  Biso   1.000  O
  O120     1.0000 0.24312  0.55191  0.18253  Biso   1.000  O
  O121     1.0000 0.25688  0.05191  0.81747  Biso   1.000  O
  O122     1.0000 0.25688  0.55191  0.31747  Biso   1.000  O
  O123     1.0000 0.75688  0.05191  0.31747  Biso   1.000  O
  O124     1.0000 0.75688  0.55191  0.81747  Biso   1.000  O
  O125     1.0000 0.25688  0.94809  0.18253  Biso   1.000  O
  O126     1.0000 0.25688  0.44809  0.68253  Biso   1.000  O
  O127     1.0000 0.75688  0.94809  0.68253  Biso   1.000  O
  O128     1.0000 0.75688  0.44809  0.18253  Biso   1.000  O
  O129     1.0000 0.81747  0.74312  0.94809  Biso   1.000  O
  O130     1.0000 0.81747  0.24312  0.44809  Biso   1.000  O
  O131     1.0000 0.31747  0.74312  0.44809  Biso   1.000  O
  O132     1.0000 0.31747  0.24312  0.94809  Biso   1.000  O
  O133     1.0000 0.18253  0.74312  0.05191  Biso   1.000  O
  O134     1.0000 0.18253  0.24312  0.55191  Biso   1.000  O
  O135     1.0000 0.68253  0.74312  0.55191  Biso   1.000  O
  O136     1.0000 0.68253  0.24312  0.05191  Biso   1.000  O
  O137     1.0000 0.81747  0.25688  0.05191  Biso   1.000  O
  O138     1.0000 0.81747  0.75688  0.55191  Biso   1.000  O
  O139     1.0000 0.31747  0.25688  0.55191  Biso   1.000  O
  O140     1.0000 0.31747  0.75688  0.05191  Biso   1.000  O
  O141     1.0000 0.18253  0.25688  0.94809  Biso   1.000  O
  O142     1.0000 0.18253  0.75688  0.44809  Biso   1.000  O
  O143     1.0000 0.68253  0.25688  0.44809  Biso   1.000  O
  O144     1.0000 0.68253  0.75688  0.94809  Biso   1.000  O
  O145     1.0000 0.81747  0.94809  0.25688  Biso   1.000  O
  O146     1.0000 0.81747  0.44809  0.75688  Biso   1.000  O
  O147     1.0000 0.31747  0.94809  0.75688  Biso   1.000  O
  O148     1.0000 0.31747  0.44809  0.25688  Biso   1.000  O
  O149     1.0000 0.18253  0.05191  0.25688  Biso   1.000  O
  O150     1.0000 0.18253  0.55191  0.75688  Biso   1.000  O
  O151     1.0000 0.68253  0.05191  0.75688  Biso   1.000  O
  O152     1.0000 0.68253  0.55191  0.25688  Biso   1.000  O
  O153     1.0000 0.81747  0.05191  0.74312  Biso   1.000  O
  O154     1.0000 0.81747  0.55191  0.24312  Biso   1.000  O
  O155     1.0000 0.31747  0.05191  0.24312  Biso   1.000  O
  O156     1.0000 0.31747  0.55191  0.74312  Biso   1.000  O
  O157     1.0000 0.18253  0.94809  0.74312  Biso   1.000  O
  O158     1.0000 0.18253  0.44809  0.24312  Biso   1.000  O
  O159     1.0000 0.68253  0.94809  0.24312  Biso   1.000  O
  O160     1.0000 0.68253  0.44809  0.74312  Biso   1.000  O
  O161     1.0000 0.94809  0.74312  0.18253  Biso   1.000  O
  O162     1.0000 0.94809  0.24312  0.68253  Biso   1.000  O
  O163     1.0000 0.44809  0.74312  0.68253  Biso   1.000  O
  O164     1.0000 0.44809  0.24312  0.18253  Biso   1.000  O
  O165     1.0000 0.05191  0.74312  0.81747  Biso   1.000  O
  O166     1.0000 0.05191  0.24312  0.31747  Biso   1.000  O
  O167     1.0000 0.55191  0.74312  0.31747  Biso   1.000  O
  O168     1.0000 0.55191  0.24312  0.81747  Biso   1.000  O
  O169     1.0000 0.05191  0.25688  0.18253  Biso   1.000  O
  O170     1.0000 0.05191  0.75688  0.68253  Biso   1.000  O
  O171     1.0000 0.55191  0.25688  0.68253  Biso   1.000  O
  O172     1.0000 0.55191  0.75688  0.18253  Biso   1.000  O
  O173     1.0000 0.94809  0.25688  0.81747  Biso   1.000  O
  O174     1.0000 0.94809  0.75688  0.31747  Biso   1.000  O
  O175     1.0000 0.44809  0.25688  0.31747  Biso   1.000  O
  O176     1.0000 0.44809  0.75688  0.81747  Biso   1.000  O
  O177     1.0000 0.74312  0.81747  0.05191  Biso   1.000  O
  O178     1.0000 0.74312  0.31747  0.55191  Biso   1.000  O
  O179     1.0000 0.24312  0.81747  0.55191  Biso   1.000  O
  O180     1.0000 0.24312  0.31747  0.05191  Biso   1.000  O
  O181     1.0000 0.74312  0.18253  0.94809  Biso   1.000  O
  O182     1.0000 0.74312  0.68253  0.44809  Biso   1.000  O
  O183     1.0000 0.24312  0.18253  0.44809  Biso   1.000  O
  O184     1.0000 0.24312  0.68253  0.94809  Biso   1.000  O
  O185     1.0000 0.25688  0.81747  0.94809  Biso   1.000  O
  O186     1.0000 0.25688  0.31747  0.44809  Biso   1.000  O
  O187     1.0000 0.75688  0.81747  0.44809  Biso   1.000  O
  O188     1.0000 0.75688  0.31747  0.94809  Biso   1.000  O
  O189     1.0000 0.25688  0.18253  0.05191  Biso   1.000  O
  O190     1.0000 0.25688  0.68253  0.55191  Biso   1.000  O
  O191     1.0000 0.75688  0.18253  0.55191  Biso   1.000  O
  O192     1.0000 0.75688  0.68253  0.05191  Biso   1.000  O
  Cu1      1.0000 0.00000  0.21448  0.21448  Biso   1.000  Cu
  Cu2      1.0000 0.00000  0.71448  0.71448  Biso   1.000  Cu
  Cu3      1.0000 0.50000  0.21448  0.71448  Biso   1.000  Cu
  Cu4      1.0000 0.50000  0.71448  0.21448  Biso   1.000  Cu
  Cu5      1.0000 0.00000  0.78552  0.21448  Biso   1.000  Cu
  Cu6      1.0000 0.00000  0.28552  0.71448  Biso   1.000  Cu
  Cu7      1.0000 0.50000  0.78552  0.71448  Biso   1.000  Cu
  Cu8      1.0000 0.50000  0.28552  0.21448  Biso   1.000  Cu
  Cu9      1.0000 0.00000  0.21448  0.78552  Biso   1.000  Cu
  Cu10     1.0000 0.00000  0.71448  0.28552  Biso   1.000  Cu
  Cu11     1.0000 0.50000  0.21448  0.28552  Biso   1.000  Cu
  Cu12     1.0000 0.50000  0.71448  0.78552  Biso   1.000  Cu
  Cu13     1.0000 0.00000  0.78552  0.78552  Biso   1.000  Cu
  Cu14     1.0000 0.00000  0.28552  0.28552  Biso   1.000  Cu
  Cu15     1.0000 0.50000  0.78552  0.28552  Biso   1.000  Cu
  Cu16     1.0000 0.50000  0.28552  0.78552  Biso   1.000  Cu
  Cu17     1.0000 0.21448  0.00000  0.21448  Biso   1.000  Cu
  Cu18     1.0000 0.21448  0.50000  0.71448  Biso   1.000  Cu
  Cu19     1.0000 0.71448  0.00000  0.71448  Biso   1.000  Cu
  Cu20     1.0000 0.71448  0.50000  0.21448  Biso   1.000  Cu
  Cu21     1.0000 0.21448  0.00000  0.78552  Biso   1.000  Cu
  Cu22     1.0000 0.21448  0.50000  0.28552  Biso   1.000  Cu
  Cu23     1.0000 0.71448  0.00000  0.28552  Biso   1.000  Cu
  Cu24     1.0000 0.71448  0.50000  0.78552  Biso   1.000  Cu
  Cu25     1.0000 0.78552  0.00000  0.21448  Biso   1.000  Cu
  Cu26     1.0000 0.78552  0.50000  0.71448  Biso   1.000  Cu
  Cu27     1.0000 0.28552  0.00000  0.71448  Biso   1.000  Cu
  Cu28     1.0000 0.28552  0.50000  0.21448  Biso   1.000  Cu
  Cu29     1.0000 0.78552  0.00000  0.78552  Biso   1.000  Cu
  Cu30     1.0000 0.78552  0.50000  0.28552  Biso   1.000  Cu
  Cu31     1.0000 0.28552  0.00000  0.28552  Biso   1.000  Cu
  Cu32     1.0000 0.28552  0.50000  0.78552  Biso   1.000  Cu
  Cu33     1.0000 0.21448  0.21448  0.00000  Biso   1.000  Cu
  Cu34     1.0000 0.21448  0.71448  0.50000  Biso   1.000  Cu
  Cu35     1.0000 0.71448  0.21448  0.50000  Biso   1.000  Cu
  Cu36     1.0000 0.71448  0.71448  0.00000  Biso   1.000  Cu
  Cu37     1.0000 0.78552  0.21448  0.00000  Biso   1.000  Cu
  Cu38     1.0000 0.78552  0.71448  0.50000  Biso   1.000  Cu
  Cu39     1.0000 0.28552  0.21448  0.50000  Biso   1.000  Cu
  Cu40     1.0000 0.28552  0.71448  0.00000  Biso   1.000  Cu
  Cu41     1.0000 0.21448  0.78552  0.00000  Biso   1.000  Cu
  Cu42     1.0000 0.21448  0.28552  0.50000  Biso   1.000  Cu
  Cu43     1.0000 0.71448  0.78552  0.50000  Biso   1.000  Cu
  Cu44     1.0000 0.71448  0.28552  0.00000  Biso   1.000  Cu
  Cu45     1.0000 0.78552  0.78552  0.00000  Biso   1.000  Cu
  Cu46     1.0000 0.78552  0.28552  0.50000  Biso   1.000  Cu
  Cu47     1.0000 0.28552  0.78552  0.50000  Biso   1.000  Cu
  Cu48     1.0000 0.28552  0.28552  0.00000  Biso   1.000  Cu
  C1       1.0000 0.06800  0.20300  0.29700  Biso   1.000  C
  C2       1.0000 0.11160  0.17780  0.32220  Biso   1.000  C
  C3       1.0000 0.56800  0.20300  0.79700  Biso   1.000  C
  C4       1.0000 0.61160  0.17780  0.82220  Biso   1.000  C
  C5       1.0000 0.93200  0.79700  0.29700  Biso   1.000  C
  C6       1.0000 0.88840  0.82220  0.32220  Biso   1.000  C
  C7       1.0000 0.43200  0.79700  0.79700  Biso   1.000  C
  C8       1.0000 0.38840  0.82220  0.82220  Biso   1.000  C
  C9       1.0000 0.43200  0.29700  0.29700  Biso   1.000  C
  C10      1.0000 0.38840  0.32220  0.32220  Biso   1.000  C
  C11      1.0000 0.93200  0.20300  0.70300  Biso   1.000  C
  C12      1.0000 0.88840  0.17780  0.67780  Biso   1.000  C
  C13      1.0000 0.43200  0.20300  0.20300  Biso   1.000  C
  C14      1.0000 0.38840  0.17780  0.17780  Biso   1.000  C
  C15      1.0000 0.06800  0.79700  0.70300  Biso   1.000  C
  C16      1.0000 0.11160  0.82220  0.67780  Biso   1.000  C
  C17      1.0000 0.06800  0.29700  0.20300  Biso   1.000  C
  C18      1.0000 0.11160  0.32220  0.17780  Biso   1.000  C
  C19      1.0000 0.56800  0.79700  0.20300  Biso   1.000  C
  C20      1.0000 0.61160  0.82220  0.17780  Biso   1.000  C
  C21      1.0000 0.29700  0.06800  0.20300  Biso   1.000  C
  C22      1.0000 0.32220  0.11160  0.17780  Biso   1.000  C
  C23      1.0000 0.29700  0.56800  0.70300  Biso   1.000  C
  C24      1.0000 0.32220  0.61160  0.67780  Biso   1.000  C
  C25      1.0000 0.29700  0.93200  0.79700  Biso   1.000  C
  C26      1.0000 0.32220  0.88840  0.82220  Biso   1.000  C
  C27      1.0000 0.29700  0.43200  0.29700  Biso   1.000  C
  C28      1.0000 0.32220  0.38840  0.32220  Biso   1.000  C
  C29      1.0000 0.70300  0.93200  0.20300  Biso   1.000  C
  C30      1.0000 0.67780  0.88840  0.17780  Biso   1.000  C
  C31      1.0000 0.70300  0.43200  0.70300  Biso   1.000  C
  C32      1.0000 0.67780  0.38840  0.67780  Biso   1.000  C
  C33      1.0000 0.20300  0.43200  0.20300  Biso   1.000  C
  C34      1.0000 0.17780  0.38840  0.17780  Biso   1.000  C
  C35      1.0000 0.70300  0.06800  0.79700  Biso   1.000  C
  C36      1.0000 0.67780  0.11160  0.82220  Biso   1.000  C
  C37      1.0000 0.70300  0.56800  0.29700  Biso   1.000  C
  C38      1.0000 0.67780  0.61160  0.32220  Biso   1.000  C
  C39      1.0000 0.20300  0.06800  0.29700  Biso   1.000  C
  C40      1.0000 0.17780  0.11160  0.32220  Biso   1.000  C
  C41      1.0000 0.20300  0.29700  0.06800  Biso   1.000  C
  C42      1.0000 0.17780  0.32220  0.11160  Biso   1.000  C
  C43      1.0000 0.20300  0.79700  0.56800  Biso   1.000  C
  C44      1.0000 0.17780  0.82220  0.61160  Biso   1.000  C
  C45      1.0000 0.79700  0.29700  0.93200  Biso   1.000  C
  C46      1.0000 0.82220  0.32220  0.88840  Biso   1.000  C
  C47      1.0000 0.79700  0.79700  0.43200  Biso   1.000  C
  C48      1.0000 0.82220  0.82220  0.38840  Biso   1.000  C
  C49      1.0000 0.29700  0.29700  0.43200  Biso   1.000  C
  C50      1.0000 0.32220  0.32220  0.38840  Biso   1.000  C
  C51      1.0000 0.20300  0.70300  0.93200  Biso   1.000  C
  C52      1.0000 0.17780  0.67780  0.88840  Biso   1.000  C
  C53      1.0000 0.20300  0.20300  0.43200  Biso   1.000  C
  C54      1.0000 0.17780  0.17780  0.38840  Biso   1.000  C
  C55      1.0000 0.79700  0.70300  0.06800  Biso   1.000  C
  C56      1.0000 0.82220  0.67780  0.11160  Biso   1.000  C
  C57      1.0000 0.79700  0.20300  0.56800  Biso   1.000  C
  C58      1.0000 0.82220  0.17780  0.61160  Biso   1.000  C
  C59      1.0000 0.29700  0.20300  0.06800  Biso   1.000  C
  C60      1.0000 0.32220  0.17780  0.11160  Biso   1.000  C
  C61      1.0000 0.20300  0.06800  0.70300  Biso   1.000  C
  C62      1.0000 0.17780  0.11160  0.67780  Biso   1.000  C
  C63      1.0000 0.20300  0.56800  0.20300  Biso   1.000  C
  C64      1.0000 0.17780  0.61160  0.17780  Biso   1.000  C
  C65      1.0000 0.79700  0.93200  0.70300  Biso   1.000  C
  C66      1.0000 0.82220  0.88840  0.67780  Biso   1.000  C
  C67      1.0000 0.79700  0.43200  0.20300  Biso   1.000  C
  C68      1.0000 0.82220  0.38840  0.17780  Biso   1.000  C
  C69      1.0000 0.29700  0.93200  0.20300  Biso   1.000  C
  C70      1.0000 0.32220  0.88840  0.17780  Biso   1.000  C
  C71      1.0000 0.20300  0.93200  0.29700  Biso   1.000  C
  C72      1.0000 0.17780  0.88840  0.32220  Biso   1.000  C
  C73      1.0000 0.20300  0.43200  0.79700  Biso   1.000  C
  C74      1.0000 0.17780  0.38840  0.82220  Biso   1.000  C
  C75      1.0000 0.79700  0.06800  0.29700  Biso   1.000  C
  C76      1.0000 0.82220  0.11160  0.32220  Biso   1.000  C
  C77      1.0000 0.79700  0.56800  0.79700  Biso   1.000  C
  C78      1.0000 0.82220  0.61160  0.82220  Biso   1.000  C
  C79      1.0000 0.29700  0.56800  0.29700  Biso   1.000  C
  C80      1.0000 0.32220  0.61160  0.32220  Biso   1.000  C
  C81      1.0000 0.06800  0.29700  0.79700  Biso   1.000  C
  C82      1.0000 0.11160  0.32220  0.82220  Biso   1.000  C
  C83      1.0000 0.56800  0.29700  0.29700  Biso   1.000  C
  C84      1.0000 0.61160  0.32220  0.32220  Biso   1.000  C
  C85      1.0000 0.93200  0.29700  0.20300  Biso   1.000  C
  C86      1.0000 0.88840  0.32220  0.17780  Biso   1.000  C
  C87      1.0000 0.43200  0.29700  0.70300  Biso   1.000  C
  C88      1.0000 0.38840  0.32220  0.67780  Biso   1.000  C
  C89      1.0000 0.93200  0.70300  0.79700  Biso   1.000  C
  C90      1.0000 0.88840  0.67780  0.82220  Biso   1.000  C
  C91      1.0000 0.93200  0.20300  0.29700  Biso   1.000  C
  C92      1.0000 0.88840  0.17780  0.32220  Biso   1.000  C
  C93      1.0000 0.43200  0.70300  0.29700  Biso   1.000  C
  C94      1.0000 0.38840  0.67780  0.32220  Biso   1.000  C
  C95      1.0000 0.06800  0.70300  0.20300  Biso   1.000  C
  C96      1.0000 0.11160  0.67780  0.17780  Biso   1.000  C
  C97      1.0000 0.56800  0.70300  0.70300  Biso   1.000  C
  C98      1.0000 0.61160  0.67780  0.67780  Biso   1.000  C
  C99      1.0000 0.56800  0.20300  0.20300  Biso   1.000  C
  C100     1.0000 0.61160  0.17780  0.17780  Biso   1.000  C
  C101     1.0000 0.29700  0.20300  0.93200  Biso   1.000  C
  C102     1.0000 0.32220  0.17780  0.88840  Biso   1.000  C
  C103     1.0000 0.29700  0.70300  0.43200  Biso   1.000  C
  C104     1.0000 0.32220  0.67780  0.38840  Biso   1.000  C
  C105     1.0000 0.29700  0.79700  0.06800  Biso   1.000  C
  C106     1.0000 0.32220  0.82220  0.11160  Biso   1.000  C
  C107     1.0000 0.29700  0.29700  0.56800  Biso   1.000  C
  C108     1.0000 0.32220  0.32220  0.61160  Biso   1.000  C
  C109     1.0000 0.70300  0.20300  0.06800  Biso   1.000  C
  C110     1.0000 0.67780  0.17780  0.11160  Biso   1.000  C
  C111     1.0000 0.70300  0.70300  0.56800  Biso   1.000  C
  C112     1.0000 0.67780  0.67780  0.61160  Biso   1.000  C
  C113     1.0000 0.20300  0.20300  0.56800  Biso   1.000  C
  C114     1.0000 0.17780  0.17780  0.61160  Biso   1.000  C
  C115     1.0000 0.70300  0.79700  0.93200  Biso   1.000  C
  C116     1.0000 0.67780  0.82220  0.88840  Biso   1.000  C
  C117     1.0000 0.70300  0.29700  0.43200  Biso   1.000  C
  C118     1.0000 0.67780  0.32220  0.38840  Biso   1.000  C
  C119     1.0000 0.20300  0.29700  0.93200  Biso   1.000  C
  C120     1.0000 0.17780  0.32220  0.88840  Biso   1.000  C
  C121     1.0000 0.93200  0.79700  0.70300  Biso   1.000  C
  C122     1.0000 0.88840  0.82220  0.67780  Biso   1.000  C
  C123     1.0000 0.43200  0.79700  0.20300  Biso   1.000  C
  C124     1.0000 0.38840  0.82220  0.17780  Biso   1.000  C
  C125     1.0000 0.06800  0.20300  0.70300  Biso   1.000  C
  C126     1.0000 0.11160  0.17780  0.67780  Biso   1.000  C
  C127     1.0000 0.06800  0.79700  0.29700  Biso   1.000  C
  C128     1.0000 0.11160  0.82220  0.32220  Biso   1.000  C
  C129     1.0000 0.56800  0.79700  0.79700  Biso   1.000  C
  C130     1.0000 0.61160  0.82220  0.82220  Biso   1.000  C
  C131     1.0000 0.43200  0.20300  0.79700  Biso   1.000  C
  C132     1.0000 0.38840  0.17780  0.82220  Biso   1.000  C
  C133     1.0000 0.70300  0.93200  0.79700  Biso   1.000  C
  C134     1.0000 0.67780  0.88840  0.82220  Biso   1.000  C
  C135     1.0000 0.70300  0.43200  0.29700  Biso   1.000  C
  C136     1.0000 0.67780  0.38840  0.32220  Biso   1.000  C
  C137     1.0000 0.70300  0.06800  0.20300  Biso   1.000  C
  C138     1.0000 0.67780  0.11160  0.17780  Biso   1.000  C
  C139     1.0000 0.70300  0.56800  0.70300  Biso   1.000  C
  C140     1.0000 0.67780  0.61160  0.67780  Biso   1.000  C
  C141     1.0000 0.29700  0.06800  0.79700  Biso   1.000  C
  C142     1.0000 0.32220  0.11160  0.82220  Biso   1.000  C
  C143     1.0000 0.29700  0.43200  0.70300  Biso   1.000  C
  C144     1.0000 0.32220  0.38840  0.67780  Biso   1.000  C
  C145     1.0000 0.79700  0.70300  0.93200  Biso   1.000  C
  C146     1.0000 0.82220  0.67780  0.88840  Biso   1.000  C
  C147     1.0000 0.79700  0.20300  0.43200  Biso   1.000  C
  C148     1.0000 0.82220  0.17780  0.38840  Biso   1.000  C
  C149     1.0000 0.20300  0.70300  0.06800  Biso   1.000  C
  C150     1.0000 0.17780  0.67780  0.11160  Biso   1.000  C
  C151     1.0000 0.79700  0.29700  0.06800  Biso   1.000  C
  C152     1.0000 0.82220  0.32220  0.11160  Biso   1.000  C
  C153     1.0000 0.79700  0.79700  0.56800  Biso   1.000  C
  C154     1.0000 0.82220  0.82220  0.61160  Biso   1.000  C
  C155     1.0000 0.20300  0.79700  0.43200  Biso   1.000  C
  C156     1.0000 0.17780  0.82220  0.38840  Biso   1.000  C
  C157     1.0000 0.79700  0.93200  0.29700  Biso   1.000  C
  C158     1.0000 0.82220  0.88840  0.32220  Biso   1.000  C
  C159     1.0000 0.79700  0.43200  0.79700  Biso   1.000  C
  C160     1.0000 0.82220  0.38840  0.82220  Biso   1.000  C
  C161     1.0000 0.20300  0.56800  0.79700  Biso   1.000  C
  C162     1.0000 0.17780  0.61160  0.82220  Biso   1.000  C
  C163     1.0000 0.79700  0.06800  0.70300  Biso   1.000  C
  C164     1.0000 0.82220  0.11160  0.67780  Biso   1.000  C
  C165     1.0000 0.79700  0.56800  0.20300  Biso   1.000  C
  C166     1.0000 0.82220  0.61160  0.17780  Biso   1.000  C
  C167     1.0000 0.20300  0.93200  0.70300  Biso   1.000  C
  C168     1.0000 0.17780  0.88840  0.67780  Biso   1.000  C
  C169     1.0000 0.93200  0.70300  0.20300  Biso   1.000  C
  C170     1.0000 0.88840  0.67780  0.17780  Biso   1.000  C
  C171     1.0000 0.43200  0.70300  0.70300  Biso   1.000  C
  C172     1.0000 0.38840  0.67780  0.67780  Biso   1.000  C
  C173     1.0000 0.06800  0.70300  0.79700  Biso   1.000  C
  C174     1.0000 0.11160  0.67780  0.82220  Biso   1.000  C
  C175     1.0000 0.56800  0.70300  0.29700  Biso   1.000  C
  C176     1.0000 0.61160  0.67780  0.32220  Biso   1.000  C
  C177     1.0000 0.56800  0.29700  0.70300  Biso   1.000  C
  C178     1.0000 0.61160  0.32220  0.67780  Biso   1.000  C
  C179     1.0000 0.93200  0.29700  0.79700  Biso   1.000  C
  C180     1.0000 0.88840  0.32220  0.82220  Biso   1.000  C
  C181     1.0000 0.70300  0.79700  0.06800  Biso   1.000  C
  C182     1.0000 0.67780  0.82220  0.11160  Biso   1.000  C
  C183     1.0000 0.70300  0.29700  0.56800  Biso   1.000  C
  C184     1.0000 0.67780  0.32220  0.61160  Biso   1.000  C
  C185     1.0000 0.70300  0.20300  0.93200  Biso   1.000  C
  C186     1.0000 0.67780  0.17780  0.88840  Biso   1.000  C
  C187     1.0000 0.70300  0.70300  0.43200  Biso   1.000  C
  C188     1.0000 0.67780  0.67780  0.38840  Biso   1.000  C
  C189     1.0000 0.29700  0.79700  0.93200  Biso   1.000  C
  C190     1.0000 0.32220  0.82220  0.88840  Biso   1.000  C
  C191     1.0000 0.29700  0.70300  0.56800  Biso   1.000  C
  C192     1.0000 0.32220  0.67780  0.61160  Biso   1.000  C
  C193     1.0000 0.13415  0.19950  0.36585  Biso   1.000  C
  H1       1.0000 0.11970  0.22920  0.38030  Biso   1.000  H
  F1       1.0000 0.10960  0.24770  0.39040  Biso   1.000  F
  C194     1.0000 0.13415  0.69950  0.86585  Biso   1.000  C
  H2       1.0000 0.11970  0.72920  0.88030  Biso   1.000  H
  F2       1.0000 0.10960  0.74770  0.89040  Biso   1.000  F
  C195     1.0000 0.86585  0.80050  0.36585  Biso   1.000  C
  H3       1.0000 0.88030  0.77080  0.38030  Biso   1.000  H
  F3       1.0000 0.89040  0.75230  0.39040  Biso   1.000  F
  C196     1.0000 0.86585  0.30050  0.86585  Biso   1.000  C
  H4       1.0000 0.88030  0.27080  0.88030  Biso   1.000  H
  F4       1.0000 0.89040  0.25230  0.89040  Biso   1.000  F
  C197     1.0000 0.36585  0.30050  0.36585  Biso   1.000  C
  H5       1.0000 0.38030  0.27080  0.38030  Biso   1.000  H
  F5       1.0000 0.39040  0.25230  0.39040  Biso   1.000  F
  C198     1.0000 0.86585  0.19950  0.63415  Biso   1.000  C
  H6       1.0000 0.88030  0.22920  0.61970  Biso   1.000  H
  F6       1.0000 0.89040  0.24770  0.60960  Biso   1.000  F
  C199     1.0000 0.86585  0.69950  0.13415  Biso   1.000  C
  H7       1.0000 0.88030  0.72920  0.11970  Biso   1.000  H
  F7       1.0000 0.89040  0.74770  0.10960  Biso   1.000  F
  C200     1.0000 0.36585  0.19950  0.13415  Biso   1.000  C
  H8       1.0000 0.38030  0.22920  0.11970  Biso   1.000  H
  F8       1.0000 0.39040  0.24770  0.10960  Biso   1.000  F
  C201     1.0000 0.13415  0.80050  0.63415  Biso   1.000  C
  H9       1.0000 0.11970  0.77080  0.61970  Biso   1.000  H
  F9       1.0000 0.10960  0.75230  0.60960  Biso   1.000  F
  C202     1.0000 0.13415  0.30050  0.13415  Biso   1.000  C
  H10      1.0000 0.11970  0.27080  0.11970  Biso   1.000  H
  F10      1.0000 0.10960  0.25230  0.10960  Biso   1.000  F
  C203     1.0000 0.36585  0.13415  0.19950  Biso   1.000  C
  H11      1.0000 0.38030  0.11970  0.22920  Biso   1.000  H
  F11      1.0000 0.39040  0.10960  0.24770  Biso   1.000  F
  C204     1.0000 0.36585  0.63415  0.69950  Biso   1.000  C
  H12      1.0000 0.38030  0.61970  0.72920  Biso   1.000  H
  F12      1.0000 0.39040  0.60960  0.74770  Biso   1.000  F
  C205     1.0000 0.36585  0.86585  0.80050  Biso   1.000  C
  H13      1.0000 0.38030  0.88030  0.77080  Biso   1.000  H
  F13      1.0000 0.39040  0.89040  0.75230  Biso   1.000  F
  C206     1.0000 0.36585  0.36585  0.30050  Biso   1.000  C
  H14      1.0000 0.38030  0.38030  0.27080  Biso   1.000  H
  F14      1.0000 0.39040  0.39040  0.25230  Biso   1.000  F
  C207     1.0000 0.63415  0.86585  0.19950  Biso   1.000  C
  H15      1.0000 0.61970  0.88030  0.22920  Biso   1.000  H
  F15      1.0000 0.60960  0.89040  0.24770  Biso   1.000  F
  C208     1.0000 0.63415  0.36585  0.69950  Biso   1.000  C
  H16      1.0000 0.61970  0.38030  0.72920  Biso   1.000  H
  F16      1.0000 0.60960  0.39040  0.74770  Biso   1.000  F
  C209     1.0000 0.13415  0.36585  0.19950  Biso   1.000  C
  H17      1.0000 0.11970  0.38030  0.22920  Biso   1.000  H
  F17      1.0000 0.10960  0.39040  0.24770  Biso   1.000  F
  C210     1.0000 0.63415  0.13415  0.80050  Biso   1.000  C
  H18      1.0000 0.61970  0.11970  0.77080  Biso   1.000  H
  F18      1.0000 0.60960  0.10960  0.75230  Biso   1.000  F
  C211     1.0000 0.63415  0.63415  0.30050  Biso   1.000  C
  H19      1.0000 0.61970  0.61970  0.27080  Biso   1.000  H
  F19      1.0000 0.60960  0.60960  0.25230  Biso   1.000  F
  C212     1.0000 0.13415  0.13415  0.30050  Biso   1.000  C
  H20      1.0000 0.11970  0.11970  0.27080  Biso   1.000  H
  F20      1.0000 0.10960  0.10960  0.25230  Biso   1.000  F
  C213     1.0000 0.19950  0.36585  0.13415  Biso   1.000  C
  H21      1.0000 0.22920  0.38030  0.11970  Biso   1.000  H
  F21      1.0000 0.24770  0.39040  0.10960  Biso   1.000  F
  C214     1.0000 0.69950  0.36585  0.63415  Biso   1.000  C
  H22      1.0000 0.72920  0.38030  0.61970  Biso   1.000  H
  F22      1.0000 0.74770  0.39040  0.60960  Biso   1.000  F
  C215     1.0000 0.80050  0.36585  0.86585  Biso   1.000  C
  H23      1.0000 0.77080  0.38030  0.88030  Biso   1.000  H
  F23      1.0000 0.75230  0.39040  0.89040  Biso   1.000  F
  C216     1.0000 0.30050  0.36585  0.36585  Biso   1.000  C
  H24      1.0000 0.27080  0.38030  0.38030  Biso   1.000  H
  F24      1.0000 0.25230  0.39040  0.39040  Biso   1.000  F
  C217     1.0000 0.19950  0.63415  0.86585  Biso   1.000  C
  H25      1.0000 0.22920  0.61970  0.88030  Biso   1.000  H
  F25      1.0000 0.24770  0.60960  0.89040  Biso   1.000  F
  C218     1.0000 0.19950  0.13415  0.36585  Biso   1.000  C
  H26      1.0000 0.22920  0.11970  0.38030  Biso   1.000  H
  F26      1.0000 0.24770  0.10960  0.39040  Biso   1.000  F
  C219     1.0000 0.69950  0.63415  0.36585  Biso   1.000  C
  H27      1.0000 0.72920  0.61970  0.38030  Biso   1.000  H
  F27      1.0000 0.74770  0.60960  0.39040  Biso   1.000  F
  C220     1.0000 0.80050  0.63415  0.13415  Biso   1.000  C
  H28      1.0000 0.77080  0.61970  0.11970  Biso   1.000  H
  F28      1.0000 0.75230  0.60960  0.10960  Biso   1.000  F
  C221     1.0000 0.30050  0.63415  0.63415  Biso   1.000  C
  H29      1.0000 0.27080  0.61970  0.61970  Biso   1.000  H
  F29      1.0000 0.25230  0.60960  0.60960  Biso   1.000  F
  C222     1.0000 0.30050  0.13415  0.13415  Biso   1.000  C
  H30      1.0000 0.27080  0.11970  0.11970  Biso   1.000  H
  F30      1.0000 0.25230  0.10960  0.10960  Biso   1.000  F
  C223     1.0000 0.19950  0.13415  0.63415  Biso   1.000  C
  H31      1.0000 0.22920  0.11970  0.61970  Biso   1.000  H
  F31      1.0000 0.24770  0.10960  0.60960  Biso   1.000  F
  C224     1.0000 0.69950  0.13415  0.13415  Biso   1.000  C
  H32      1.0000 0.72920  0.11970  0.11970  Biso   1.000  H
  F32      1.0000 0.74770  0.10960  0.10960  Biso   1.000  F
  C225     1.0000 0.80050  0.86585  0.63415  Biso   1.000  C
  H33      1.0000 0.77080  0.88030  0.61970  Biso   1.000  H
  F33      1.0000 0.75230  0.89040  0.60960  Biso   1.000  F
  C226     1.0000 0.80050  0.36585  0.13415  Biso   1.000  C
  H34      1.0000 0.77080  0.38030  0.11970  Biso   1.000  H
  F34      1.0000 0.75230  0.39040  0.10960  Biso   1.000  F
  C227     1.0000 0.30050  0.86585  0.13415  Biso   1.000  C
  H35      1.0000 0.27080  0.88030  0.11970  Biso   1.000  H
  F35      1.0000 0.25230  0.89040  0.10960  Biso   1.000  F
  C228     1.0000 0.19950  0.86585  0.36585  Biso   1.000  C
  H36      1.0000 0.22920  0.88030  0.38030  Biso   1.000  H
  F36      1.0000 0.24770  0.89040  0.39040  Biso   1.000  F
  C229     1.0000 0.69950  0.86585  0.86585  Biso   1.000  C
  H37      1.0000 0.72920  0.88030  0.88030  Biso   1.000  H
  F37      1.0000 0.74770  0.89040  0.89040  Biso   1.000  F
  C230     1.0000 0.69950  0.36585  0.36585  Biso   1.000  C
  H38      1.0000 0.72920  0.38030  0.38030  Biso   1.000  H
  F38      1.0000 0.74770  0.39040  0.39040  Biso   1.000  F
  C231     1.0000 0.80050  0.13415  0.36585  Biso   1.000  C
  H39      1.0000 0.77080  0.11970  0.38030  Biso   1.000  H
  F39      1.0000 0.75230  0.10960  0.39040  Biso   1.000  F
  C232     1.0000 0.30050  0.13415  0.86585  Biso   1.000  C
  H40      1.0000 0.27080  0.11970  0.88030  Biso   1.000  H
  F40      1.0000 0.25230  0.10960  0.89040  Biso   1.000  F
  C233     1.0000 0.13415  0.36585  0.80050  Biso   1.000  C
  H41      1.0000 0.11970  0.38030  0.77080  Biso   1.000  H
  F41      1.0000 0.10960  0.39040  0.75230  Biso   1.000  F
  C234     1.0000 0.13415  0.86585  0.30050  Biso   1.000  C
  H42      1.0000 0.11970  0.88030  0.27080  Biso   1.000  H
  F42      1.0000 0.10960  0.89040  0.25230  Biso   1.000  F
  C235     1.0000 0.86585  0.36585  0.19950  Biso   1.000  C
  H43      1.0000 0.88030  0.38030  0.22920  Biso   1.000  H
  F43      1.0000 0.89040  0.39040  0.24770  Biso   1.000  F
  C236     1.0000 0.86585  0.86585  0.69950  Biso   1.000  C
  H44      1.0000 0.88030  0.88030  0.72920  Biso   1.000  H
  F44      1.0000 0.89040  0.89040  0.74770  Biso   1.000  F
  C237     1.0000 0.36585  0.36585  0.69950  Biso   1.000  C
  H45      1.0000 0.38030  0.38030  0.72920  Biso   1.000  H
  F45      1.0000 0.39040  0.39040  0.74770  Biso   1.000  F
  C238     1.0000 0.86585  0.63415  0.80050  Biso   1.000  C
  H46      1.0000 0.88030  0.61970  0.77080  Biso   1.000  H
  F46      1.0000 0.89040  0.60960  0.75230  Biso   1.000  F
  C239     1.0000 0.86585  0.13415  0.30050  Biso   1.000  C
  H47      1.0000 0.88030  0.11970  0.27080  Biso   1.000  H
  F47      1.0000 0.89040  0.10960  0.25230  Biso   1.000  F
  C240     1.0000 0.36585  0.13415  0.80050  Biso   1.000  C
  H48      1.0000 0.38030  0.11970  0.77080  Biso   1.000  H
  F48      1.0000 0.39040  0.10960  0.75230  Biso   1.000  F
  C241     1.0000 0.13415  0.63415  0.19950  Biso   1.000  C
  H49      1.0000 0.11970  0.61970  0.22920  Biso   1.000  H
  F49      1.0000 0.10960  0.60960  0.24770  Biso   1.000  F
  C242     1.0000 0.13415  0.13415  0.69950  Biso   1.000  C
  H50      1.0000 0.11970  0.11970  0.72920  Biso   1.000  H
  F50      1.0000 0.10960  0.10960  0.74770  Biso   1.000  F
  C243     1.0000 0.36585  0.19950  0.86585  Biso   1.000  C
  H51      1.0000 0.38030  0.22920  0.88030  Biso   1.000  H
  F51      1.0000 0.39040  0.24770  0.89040  Biso   1.000  F
  C244     1.0000 0.36585  0.69950  0.36585  Biso   1.000  C
  H52      1.0000 0.38030  0.72920  0.38030  Biso   1.000  H
  F52      1.0000 0.39040  0.74770  0.39040  Biso   1.000  F
  C245     1.0000 0.36585  0.80050  0.13415  Biso   1.000  C
  H53      1.0000 0.38030  0.77080  0.11970  Biso   1.000  H
  F53      1.0000 0.39040  0.75230  0.10960  Biso   1.000  F
  C246     1.0000 0.36585  0.30050  0.63415  Biso   1.000  C
  H54      1.0000 0.38030  0.27080  0.61970  Biso   1.000  H
  F54      1.0000 0.39040  0.25230  0.60960  Biso   1.000  F
  C247     1.0000 0.63415  0.19950  0.13415  Biso   1.000  C
  H55      1.0000 0.61970  0.22920  0.11970  Biso   1.000  H
  F55      1.0000 0.60960  0.24770  0.10960  Biso   1.000  F
  C248     1.0000 0.63415  0.69950  0.63415  Biso   1.000  C
  H56      1.0000 0.61970  0.72920  0.61970  Biso   1.000  H
  F56      1.0000 0.60960  0.74770  0.60960  Biso   1.000  F
  C249     1.0000 0.13415  0.69950  0.13415  Biso   1.000  C
  H57      1.0000 0.11970  0.72920  0.11970  Biso   1.000  H
  F57      1.0000 0.10960  0.74770  0.10960  Biso   1.000  F
  C250     1.0000 0.63415  0.80050  0.86585  Biso   1.000  C
  H58      1.0000 0.61970  0.77080  0.88030  Biso   1.000  H
  F58      1.0000 0.60960  0.75230  0.89040  Biso   1.000  F
  C251     1.0000 0.63415  0.30050  0.36585  Biso   1.000  C
  H59      1.0000 0.61970  0.27080  0.38030  Biso   1.000  H
  F59      1.0000 0.60960  0.25230  0.39040  Biso   1.000  F
  C252     1.0000 0.13415  0.80050  0.36585  Biso   1.000  C
  H60      1.0000 0.11970  0.77080  0.38030  Biso   1.000  H
  F60      1.0000 0.10960  0.75230  0.39040  Biso   1.000  F
  C253     1.0000 0.86585  0.80050  0.63415  Biso   1.000  C
  H61      1.0000 0.88030  0.77080  0.61970  Biso   1.000  H
  F61      1.0000 0.89040  0.75230  0.60960  Biso   1.000  F
  C254     1.0000 0.86585  0.30050  0.13415  Biso   1.000  C
  H62      1.0000 0.88030  0.27080  0.11970  Biso   1.000  H
  F62      1.0000 0.89040  0.25230  0.10960  Biso   1.000  F
  C255     1.0000 0.13415  0.19950  0.63415  Biso   1.000  C
  H63      1.0000 0.11970  0.22920  0.61970  Biso   1.000  H
  F63      1.0000 0.10960  0.24770  0.60960  Biso   1.000  F
  C256     1.0000 0.13415  0.30050  0.86585  Biso   1.000  C
  H64      1.0000 0.11970  0.27080  0.88030  Biso   1.000  H
  F64      1.0000 0.10960  0.25230  0.89040  Biso   1.000  F
  C257     1.0000 0.86585  0.19950  0.36585  Biso   1.000  C
  H65      1.0000 0.88030  0.22920  0.38030  Biso   1.000  H
  F65      1.0000 0.89040  0.24770  0.39040  Biso   1.000  F
  C258     1.0000 0.86585  0.69950  0.86585  Biso   1.000  C
  H66      1.0000 0.88030  0.72920  0.88030  Biso   1.000  H
  F66      1.0000 0.89040  0.74770  0.89040  Biso   1.000  F
  C259     1.0000 0.63415  0.86585  0.80050  Biso   1.000  C
  H67      1.0000 0.61970  0.88030  0.77080  Biso   1.000  H
  F67      1.0000 0.60960  0.89040  0.75230  Biso   1.000  F
  C260     1.0000 0.63415  0.36585  0.30050  Biso   1.000  C
  H68      1.0000 0.61970  0.38030  0.27080  Biso   1.000  H
  F68      1.0000 0.60960  0.39040  0.25230  Biso   1.000  F
  C261     1.0000 0.63415  0.13415  0.19950  Biso   1.000  C
  H69      1.0000 0.61970  0.11970  0.22920  Biso   1.000  H
  F69      1.0000 0.60960  0.10960  0.24770  Biso   1.000  F
  C262     1.0000 0.63415  0.63415  0.69950  Biso   1.000  C
  H70      1.0000 0.61970  0.61970  0.72920  Biso   1.000  H
  F70      1.0000 0.60960  0.60960  0.74770  Biso   1.000  F
  C263     1.0000 0.36585  0.63415  0.30050  Biso   1.000  C
  H71      1.0000 0.38030  0.61970  0.27080  Biso   1.000  H
  F71      1.0000 0.39040  0.60960  0.25230  Biso   1.000  F
  C264     1.0000 0.36585  0.86585  0.19950  Biso   1.000  C
  H72      1.0000 0.38030  0.88030  0.22920  Biso   1.000  H
  F72      1.0000 0.39040  0.89040  0.24770  Biso   1.000  F
  C265     1.0000 0.80050  0.63415  0.86585  Biso   1.000  C
  H73      1.0000 0.77080  0.61970  0.88030  Biso   1.000  H
  F73      1.0000 0.75230  0.60960  0.89040  Biso   1.000  F
  C266     1.0000 0.30050  0.63415  0.36585  Biso   1.000  C
  H74      1.0000 0.27080  0.61970  0.38030  Biso   1.000  H
  F74      1.0000 0.25230  0.60960  0.39040  Biso   1.000  F
  C267     1.0000 0.19950  0.63415  0.13415  Biso   1.000  C
  H75      1.0000 0.22920  0.61970  0.11970  Biso   1.000  H
  F75      1.0000 0.24770  0.60960  0.10960  Biso   1.000  F
  C268     1.0000 0.69950  0.63415  0.63415  Biso   1.000  C
  H76      1.0000 0.72920  0.61970  0.61970  Biso   1.000  H
  F76      1.0000 0.74770  0.60960  0.60960  Biso   1.000  F
  C269     1.0000 0.30050  0.36585  0.63415  Biso   1.000  C
  H77      1.0000 0.27080  0.38030  0.61970  Biso   1.000  H
  F77      1.0000 0.25230  0.39040  0.60960  Biso   1.000  F
  C270     1.0000 0.19950  0.36585  0.86585  Biso   1.000  C
  H78      1.0000 0.22920  0.38030  0.88030  Biso   1.000  H
  F78      1.0000 0.24770  0.39040  0.89040  Biso   1.000  F
  C271     1.0000 0.80050  0.86585  0.36585  Biso   1.000  C
  H79      1.0000 0.77080  0.88030  0.38030  Biso   1.000  H
  F79      1.0000 0.75230  0.89040  0.39040  Biso   1.000  F
  C272     1.0000 0.30050  0.86585  0.86585  Biso   1.000  C
  H80      1.0000 0.27080  0.88030  0.88030  Biso   1.000  H
  F80      1.0000 0.25230  0.89040  0.89040  Biso   1.000  F
  C273     1.0000 0.69950  0.13415  0.86585  Biso   1.000  C
  H81      1.0000 0.72920  0.11970  0.88030  Biso   1.000  H
  F81      1.0000 0.74770  0.10960  0.89040  Biso   1.000  F
  C274     1.0000 0.80050  0.13415  0.63415  Biso   1.000  C
  H82      1.0000 0.77080  0.11970  0.61970  Biso   1.000  H
  F82      1.0000 0.75230  0.10960  0.60960  Biso   1.000  F
  C275     1.0000 0.19950  0.86585  0.63415  Biso   1.000  C
  H83      1.0000 0.22920  0.88030  0.61970  Biso   1.000  H
  F83      1.0000 0.24770  0.89040  0.60960  Biso   1.000  F
  C276     1.0000 0.69950  0.86585  0.13415  Biso   1.000  C
  H84      1.0000 0.72920  0.88030  0.11970  Biso   1.000  H
  F84      1.0000 0.74770  0.89040  0.10960  Biso   1.000  F
  C277     1.0000 0.86585  0.63415  0.19950  Biso   1.000  C
  H85      1.0000 0.88030  0.61970  0.22920  Biso   1.000  H
  F85      1.0000 0.89040  0.60960  0.24770  Biso   1.000  F
  C278     1.0000 0.86585  0.13415  0.69950  Biso   1.000  C
  H86      1.0000 0.88030  0.11970  0.72920  Biso   1.000  H
  F86      1.0000 0.89040  0.10960  0.74770  Biso   1.000  F
  C279     1.0000 0.13415  0.63415  0.80050  Biso   1.000  C
  H87      1.0000 0.11970  0.61970  0.77080  Biso   1.000  H
  F87      1.0000 0.10960  0.60960  0.75230  Biso   1.000  F
  C280     1.0000 0.13415  0.86585  0.69950  Biso   1.000  C
  H88      1.0000 0.11970  0.88030  0.72920  Biso   1.000  H
  F88      1.0000 0.10960  0.89040  0.74770  Biso   1.000  F
  C281     1.0000 0.86585  0.36585  0.80050  Biso   1.000  C
  H89      1.0000 0.88030  0.38030  0.77080  Biso   1.000  H
  F89      1.0000 0.89040  0.39040  0.75230  Biso   1.000  F
  C282     1.0000 0.86585  0.86585  0.30050  Biso   1.000  C
  H90      1.0000 0.88030  0.88030  0.27080  Biso   1.000  H
  F90      1.0000 0.89040  0.89040  0.25230  Biso   1.000  F
  C283     1.0000 0.63415  0.80050  0.13415  Biso   1.000  C
  H91      1.0000 0.61970  0.77080  0.11970  Biso   1.000  H
  F91      1.0000 0.60960  0.75230  0.10960  Biso   1.000  F
  C284     1.0000 0.63415  0.30050  0.63415  Biso   1.000  C
  H92      1.0000 0.61970  0.27080  0.61970  Biso   1.000  H
  F92      1.0000 0.60960  0.25230  0.60960  Biso   1.000  F
  C285     1.0000 0.63415  0.19950  0.86585  Biso   1.000  C
  H93      1.0000 0.61970  0.22920  0.88030  Biso   1.000  H
  F93      1.0000 0.60960  0.24770  0.89040  Biso   1.000  F
  C286     1.0000 0.63415  0.69950  0.36585  Biso   1.000  C
  H94      1.0000 0.61970  0.72920  0.38030  Biso   1.000  H
  F94      1.0000 0.60960  0.74770  0.39040  Biso   1.000  F
  C287     1.0000 0.36585  0.80050  0.86585  Biso   1.000  C
  H95      1.0000 0.38030  0.77080  0.88030  Biso   1.000  H
  F95      1.0000 0.39040  0.75230  0.89040  Biso   1.000  F
  C288     1.0000 0.36585  0.69950  0.63415  Biso   1.000  C
  H96      1.0000 0.38030  0.72920  0.61970  Biso   1.000  H
  F96      1.0000 0.39040  0.74770  0.60960  Biso   1.000  F
