data_image0
_cell_length_a       46.64
_cell_length_b       12.447
_cell_length_c       31.37
_cell_angle_alpha    90
_cell_angle_beta     131.263
_cell_angle_gamma    90

_symmetry_space_group_name_H-M    "P 1"
_symmetry_int_tables_number       1

loop_
  _symmetry_equiv_pos_as_xyz
  'x, y, z'

loop_
  _atom_site_label
  _atom_site_occupancy
  _atom_site_fract_x
  _atom_site_fract_y
  _atom_site_fract_z
  _atom_site_thermal_displace_type
  _atom_site_B_iso_or_equiv
  _atom_site_type_symbol
  Cd1      1.0000 0.37754  0.62607  0.39546  Biso   1.000  Cd
  Cd2      1.0000 0.08689  0.46801  0.07084  Biso   1.000  Cd
  Cd3      1.0000 0.13959  0.80489  0.12080  Biso   1.000  Cd
  C1       1.0000 0.05800  0.44670  0.94500  Biso   1.000  C
  H1       1.0000 0.03490  0.45910  0.93610  Biso   1.000  H
  C2       1.0000 0.12530  0.42900  0.20330  Biso   1.000  C
  H2       1.0000 0.14680  0.41580  0.20780  Biso   1.000  H
  C3       1.0000 0.34610  0.65150  0.26990  Biso   1.000  C
  H3       1.0000 0.32900  0.69640  0.26720  Biso   1.000  H
  C4       1.0000 0.16150  0.54950  0.14320  Biso   1.000  C
  C5       1.0000 0.43820  0.40240  0.47150  Biso   1.000  C
  C6       1.0000 0.05810  0.43000  0.90020  Biso   1.000  C
  H4       1.0000 0.03540  0.43470  0.86270  Biso   1.000  H
  C7       1.0000 0.12800  0.41260  0.25130  Biso   1.000  C
  H5       1.0000 0.15090  0.39340  0.28660  Biso   1.000  H
  C8       1.0000 0.34040  0.63200  0.22140  Biso   1.000  C
  H6       1.0000 0.32050  0.66600  0.18770  Biso   1.000  H
  C9       1.0000 0.20340  0.57940  0.18680  Biso   1.000  C
  H7       1.0000 0.20610  0.63730  0.20990  Biso   1.000  H
  H8       1.0000 0.21110  0.60740  0.16680  Biso   1.000  H
  C10      1.0000 0.47400  0.41380  0.53260  Biso   1.000  C
  H9       1.0000 0.46690  0.41780  0.55560  Biso   1.000  H
  H10      1.0000 0.48630  0.48100  0.53720  Biso   1.000  H
  C11      1.0000 0.09280  0.40720  0.91270  Biso   1.000  C
  C12      1.0000 0.09540  0.42620  0.24300  Biso   1.000  C
  C13      1.0000 0.36440  0.56120  0.22250  Biso   1.000  C
  C14      1.0000 0.23150  0.48960  0.22680  Biso   1.000  C
  H11      1.0000 0.22320  0.45740  0.24520  Biso   1.000  H
  H12      1.0000 0.23100  0.43430  0.20460  Biso   1.000  H
  C15      1.0000 0.50410  0.31790  0.55610  Biso   1.000  C
  H13      1.0000 0.52550  0.32860  0.59620  Biso   1.000  H
  H14      1.0000 0.49210  0.25010  0.55160  Biso   1.000  H
  C16      1.0000 0.12690  0.40150  0.97050  Biso   1.000  C
  H15      1.0000 0.15040  0.38690  0.98110  Biso   1.000  H
  C17      1.0000 0.06270  0.46070  0.19140  Biso   1.000  C
  H16      1.0000 0.04060  0.47120  0.18560  Biso   1.000  H
  C18      1.0000 0.39560  0.51790  0.27490  Biso   1.000  C
  H17      1.0000 0.41330  0.47480  0.27820  Biso   1.000  H
  C19      1.0000 0.27210  0.53000  0.27180  Biso   1.000  C
  H18      1.0000 0.28060  0.55940  0.25310  Biso   1.000  H
  H19      1.0000 0.27210  0.58810  0.29240  Biso   1.000  H
  C20      1.0000 0.51870  0.31370  0.52350  Biso   1.000  C
  H20      1.0000 0.49690  0.31080  0.48310  Biso   1.000  H
  H21      1.0000 0.53260  0.37930  0.53100  Biso   1.000  H
  C21      1.0000 0.12300  0.41950  0.01150  Biso   1.000  C
  H22      1.0000 0.14490  0.41310  0.04950  Biso   1.000  H
  C22      1.0000 0.06280  0.48020  0.14710  Biso   1.000  C
  H23      1.0000 0.04070  0.50650  0.11280  Biso   1.000  H
  C23      1.0000 0.39940  0.54030  0.32070  Biso   1.000  C
  H24      1.0000 0.41960  0.50790  0.35480  Biso   1.000  H
  C24      1.0000 0.30030  0.44650  0.31370  Biso   1.000  C
  C25      1.0000 0.54370  0.22050  0.53930  Biso   1.000  C
  C26      1.0000 0.09200  0.38500  0.86650  Biso   1.000  C
  H25      1.0000 0.06930  0.39280  0.82920  Biso   1.000  H
  C27      1.0000 0.09370  0.40580  0.28810  Biso   1.000  C
  H26      1.0000 0.07360  0.43060  0.28490  Biso   1.000  H
  C28      1.0000 0.35790  0.53810  0.17050  Biso   1.000  C
  H27      1.0000 0.33710  0.56910  0.13640  Biso   1.000  H
  C29      1.0000 0.14620  0.30170  0.83510  Biso   1.000  C
  H28      1.0000 0.16950  0.29600  0.87200  Biso   1.000  H
  C30      1.0000 0.14400  0.28300  0.41630  Biso   1.000  C
  H29      1.0000 0.16460  0.26010  0.42010  Biso   1.000  H
  C31      1.0000 0.39460  0.41760  0.12110  Biso   1.000  C
  H30      1.0000 0.41650  0.39230  0.15600  Biso   1.000  H
  C32      1.0000 0.17350  0.21880  0.75080  Biso   1.000  C
  H31      1.0000 0.19590  0.20020  0.75880  Biso   1.000  H
  C33      1.0000 0.11390  0.72850  0.00290  Biso   1.000  C
  H32      1.0000 0.09410  0.70210  0.00000  Biso   1.000  H
  C34      1.0000 0.41680  0.63970  0.52720  Biso   1.000  C
  H33      1.0000 0.43820  0.65560  0.53170  Biso   1.000  H
  C35      1.0000 0.17550  0.24450  0.79750  Biso   1.000  C
  H34      1.0000 0.19850  0.24080  0.83470  Biso   1.000  H
  C36      1.0000 0.11380  0.70720  0.95870  Biso   1.000  C
  H35      1.0000 0.09370  0.66920  0.92690  Biso   1.000  H
  C37      1.0000 0.42100  0.62910  0.57460  Biso   1.000  C
  H36      1.0000 0.44480  0.64060  0.61030  Biso   1.000  H
  C38      1.0000 0.14300  0.27430  0.78600  Biso   1.000  C
  C39      1.0000 0.14320  0.74190  0.96190  Biso   1.000  C
  C40      1.0000 0.38980  0.60100  0.56960  Biso   1.000  C
  C41      1.0000 0.10910  0.27890  0.72870  Biso   1.000  C
  H37      1.0000 0.08660  0.30130  0.71960  Biso   1.000  H
  C42      1.0000 0.17270  0.80100  0.00930  Biso   1.000  C
  H38      1.0000 0.19300  0.82700  0.01310  Biso   1.000  H
  C43      1.0000 0.35540  0.58710  0.51470  Biso   1.000  C
  H39      1.0000 0.33380  0.56920  0.50910  Biso   1.000  H
  C44      1.0000 0.10870  0.25040  0.68540  Biso   1.000  C
  H40      1.0000 0.08580  0.25200  0.64800  Biso   1.000  H
  C45      1.0000 0.17050  0.81880  0.05020  Biso   1.000  C
  H41      1.0000 0.19040  0.85740  0.08200  Biso   1.000  H
  C46      1.0000 0.35270  0.59860  0.47090  Biso   1.000  C
  H42      1.0000 0.32910  0.58620  0.43520  Biso   1.000  H
  N1       1.0000 0.09060  0.44460  0.00040  Biso   1.000  N
  N2       1.0000 0.09290  0.46280  0.15190  Biso   1.000  N
  N3       1.0000 0.37570  0.60780  0.32170  Biso   1.000  N
  N4       1.0000 0.12180  0.35530  0.87590  Biso   1.000  N
  N5       1.0000 0.12200  0.35120  0.33240  Biso   1.000  N
  N6       1.0000 0.37990  0.47680  0.17140  Biso   1.000  N
  N7       1.0000 0.11510  0.33490  0.82550  Biso   1.000  N
  N8       1.0000 0.11710  0.33530  0.37230  Biso   1.000  N
  N9       1.0000 0.36950  0.46730  0.11850  Biso   1.000  N
  N10      1.0000 0.14110  0.22030  0.69660  Biso   1.000  N
  N11      1.0000 0.14140  0.78490  0.04860  Biso   1.000  N
  N12      1.0000 0.38250  0.62780  0.47380  Biso   1.000  N
  O1       1.0000 0.13640  0.62150  0.11590  Biso   1.000  O
  O2       1.0000 0.42190  0.48860  0.44340  Biso   1.000  O
  O3       1.0000 0.15360  0.44980  0.13610  Biso   1.000  O
  O4       1.0000 0.42490  0.30890  0.44960  Biso   1.000  O
  O5       1.0000 0.33570  0.48030  0.35660  Biso   1.000  O
  O6       1.0000 0.57980  0.23190  0.56750  Biso   1.000  O
  O7       1.0000 0.20720  0.84750  0.19190  Biso   1.000  O
  O8       1.0000 0.52960  0.12510  0.52590  Biso   1.000  O
  Cd4      1.0000 0.87754  0.12607  0.39546  Biso   1.000  Cd
  Cd5      1.0000 0.58689  0.96801  0.07084  Biso   1.000  Cd
  Cd6      1.0000 0.63959  0.30489  0.12080  Biso   1.000  Cd
  C47      1.0000 0.55800  0.94670  0.94500  Biso   1.000  C
  H43      1.0000 0.53490  0.95910  0.93610  Biso   1.000  H
  C48      1.0000 0.62530  0.92900  0.20330  Biso   1.000  C
  H44      1.0000 0.64680  0.91580  0.20780  Biso   1.000  H
  C49      1.0000 0.84610  0.15150  0.26990  Biso   1.000  C
  H45      1.0000 0.82900  0.19640  0.26720  Biso   1.000  H
  C50      1.0000 0.66150  0.04950  0.14320  Biso   1.000  C
  C51      1.0000 0.93820  0.90240  0.47150  Biso   1.000  C
  C52      1.0000 0.55810  0.93000  0.90020  Biso   1.000  C
  H46      1.0000 0.53540  0.93470  0.86270  Biso   1.000  H
  C53      1.0000 0.62800  0.91260  0.25130  Biso   1.000  C
  H47      1.0000 0.65090  0.89340  0.28660  Biso   1.000  H
  C54      1.0000 0.84040  0.13200  0.22140  Biso   1.000  C
  H48      1.0000 0.82050  0.16600  0.18770  Biso   1.000  H
  C55      1.0000 0.70340  0.07940  0.18680  Biso   1.000  C
  H49      1.0000 0.70610  0.13730  0.20990  Biso   1.000  H
  H50      1.0000 0.71110  0.10740  0.16680  Biso   1.000  H
  C56      1.0000 0.97400  0.91380  0.53260  Biso   1.000  C
  H51      1.0000 0.96690  0.91780  0.55560  Biso   1.000  H
  H52      1.0000 0.98630  0.98100  0.53720  Biso   1.000  H
  C57      1.0000 0.59280  0.90720  0.91270  Biso   1.000  C
  C58      1.0000 0.59540  0.92620  0.24300  Biso   1.000  C
  C59      1.0000 0.86440  0.06120  0.22250  Biso   1.000  C
  C60      1.0000 0.73150  0.98960  0.22680  Biso   1.000  C
  H53      1.0000 0.72320  0.95740  0.24520  Biso   1.000  H
  H54      1.0000 0.73100  0.93430  0.20460  Biso   1.000  H
  C61      1.0000 0.00410  0.81790  0.55610  Biso   1.000  C
  H55      1.0000 0.02550  0.82860  0.59620  Biso   1.000  H
  H56      1.0000 0.99210  0.75010  0.55160  Biso   1.000  H
  C62      1.0000 0.62690  0.90150  0.97050  Biso   1.000  C
  H57      1.0000 0.65040  0.88690  0.98110  Biso   1.000  H
  C63      1.0000 0.56270  0.96070  0.19140  Biso   1.000  C
  H58      1.0000 0.54060  0.97120  0.18560  Biso   1.000  H
  C64      1.0000 0.89560  0.01790  0.27490  Biso   1.000  C
  H59      1.0000 0.91330  0.97480  0.27820  Biso   1.000  H
  C65      1.0000 0.77210  0.03000  0.27180  Biso   1.000  C
  H60      1.0000 0.78060  0.05940  0.25310  Biso   1.000  H
  H61      1.0000 0.77210  0.08810  0.29240  Biso   1.000  H
  C66      1.0000 0.01870  0.81370  0.52350  Biso   1.000  C
  H62      1.0000 0.99690  0.81080  0.48310  Biso   1.000  H
  H63      1.0000 0.03260  0.87930  0.53100  Biso   1.000  H
  C67      1.0000 0.62300  0.91950  0.01150  Biso   1.000  C
  H64      1.0000 0.64490  0.91310  0.04950  Biso   1.000  H
  C68      1.0000 0.56280  0.98020  0.14710  Biso   1.000  C
  H65      1.0000 0.54070  0.00650  0.11280  Biso   1.000  H
  C69      1.0000 0.89940  0.04030  0.32070  Biso   1.000  C
  H66      1.0000 0.91960  0.00790  0.35480  Biso   1.000  H
  C70      1.0000 0.80030  0.94650  0.31370  Biso   1.000  C
  C71      1.0000 0.04370  0.72050  0.53930  Biso   1.000  C
  C72      1.0000 0.59200  0.88500  0.86650  Biso   1.000  C
  H67      1.0000 0.56930  0.89280  0.82920  Biso   1.000  H
  C73      1.0000 0.59370  0.90580  0.28810  Biso   1.000  C
  H68      1.0000 0.57360  0.93060  0.28490  Biso   1.000  H
  C74      1.0000 0.85790  0.03810  0.17050  Biso   1.000  C
  H69      1.0000 0.83710  0.06910  0.13640  Biso   1.000  H
  C75      1.0000 0.64620  0.80170  0.83510  Biso   1.000  C
  H70      1.0000 0.66950  0.79600  0.87200  Biso   1.000  H
  C76      1.0000 0.64400  0.78300  0.41630  Biso   1.000  C
  H71      1.0000 0.66460  0.76010  0.42010  Biso   1.000  H
  C77      1.0000 0.89460  0.91760  0.12110  Biso   1.000  C
  H72      1.0000 0.91650  0.89230  0.15600  Biso   1.000  H
  C78      1.0000 0.67350  0.71880  0.75080  Biso   1.000  C
  H73      1.0000 0.69590  0.70020  0.75880  Biso   1.000  H
  C79      1.0000 0.61390  0.22850  0.00290  Biso   1.000  C
  H74      1.0000 0.59410  0.20210  0.00000  Biso   1.000  H
  C80      1.0000 0.91680  0.13970  0.52720  Biso   1.000  C
  H75      1.0000 0.93820  0.15560  0.53170  Biso   1.000  H
  C81      1.0000 0.67550  0.74450  0.79750  Biso   1.000  C
  H76      1.0000 0.69850  0.74080  0.83470  Biso   1.000  H
  C82      1.0000 0.61380  0.20720  0.95870  Biso   1.000  C
  H77      1.0000 0.59370  0.16920  0.92690  Biso   1.000  H
  C83      1.0000 0.92100  0.12910  0.57460  Biso   1.000  C
  H78      1.0000 0.94480  0.14060  0.61030  Biso   1.000  H
  C84      1.0000 0.64300  0.77430  0.78600  Biso   1.000  C
  C85      1.0000 0.64320  0.24190  0.96190  Biso   1.000  C
  C86      1.0000 0.88980  0.10100  0.56960  Biso   1.000  C
  C87      1.0000 0.60910  0.77890  0.72870  Biso   1.000  C
  H79      1.0000 0.58660  0.80130  0.71960  Biso   1.000  H
  C88      1.0000 0.67270  0.30100  0.00930  Biso   1.000  C
  H80      1.0000 0.69300  0.32700  0.01310  Biso   1.000  H
  C89      1.0000 0.85540  0.08710  0.51470  Biso   1.000  C
  H81      1.0000 0.83380  0.06920  0.50910  Biso   1.000  H
  C90      1.0000 0.60870  0.75040  0.68540  Biso   1.000  C
  H82      1.0000 0.58580  0.75200  0.64800  Biso   1.000  H
  C91      1.0000 0.67050  0.31880  0.05020  Biso   1.000  C
  H83      1.0000 0.69040  0.35740  0.08200  Biso   1.000  H
  C92      1.0000 0.85270  0.09860  0.47090  Biso   1.000  C
  H84      1.0000 0.82910  0.08620  0.43520  Biso   1.000  H
  N13      1.0000 0.59060  0.94460  0.00040  Biso   1.000  N
  N14      1.0000 0.59290  0.96280  0.15190  Biso   1.000  N
  N15      1.0000 0.87570  0.10780  0.32170  Biso   1.000  N
  N16      1.0000 0.62180  0.85530  0.87590  Biso   1.000  N
  N17      1.0000 0.62200  0.85120  0.33240  Biso   1.000  N
  N18      1.0000 0.87990  0.97680  0.17140  Biso   1.000  N
  N19      1.0000 0.61510  0.83490  0.82550  Biso   1.000  N
  N20      1.0000 0.61710  0.83530  0.37230  Biso   1.000  N
  N21      1.0000 0.86950  0.96730  0.11850  Biso   1.000  N
  N22      1.0000 0.64110  0.72030  0.69660  Biso   1.000  N
  N23      1.0000 0.64140  0.28490  0.04860  Biso   1.000  N
  N24      1.0000 0.88250  0.12780  0.47380  Biso   1.000  N
  O9       1.0000 0.63640  0.12150  0.11590  Biso   1.000  O
  O10      1.0000 0.92190  0.98860  0.44340  Biso   1.000  O
  O11      1.0000 0.65360  0.94980  0.13610  Biso   1.000  O
  O12      1.0000 0.92490  0.80890  0.44960  Biso   1.000  O
  O13      1.0000 0.83570  0.98030  0.35660  Biso   1.000  O
  O14      1.0000 0.07980  0.73190  0.56750  Biso   1.000  O
  O15      1.0000 0.70720  0.34750  0.19190  Biso   1.000  O
  O16      1.0000 0.02960  0.62510  0.52590  Biso   1.000  O
  Cd7      1.0000 0.62246  0.62607  0.10454  Biso   1.000  Cd
  Cd8      1.0000 0.91311  0.46801  0.42916  Biso   1.000  Cd
  Cd9      1.0000 0.86041  0.80489  0.37920  Biso   1.000  Cd
  C93      1.0000 0.94200  0.44670  0.55500  Biso   1.000  C
  H85      1.0000 0.96510  0.45910  0.56390  Biso   1.000  H
  C94      1.0000 0.87470  0.42900  0.29670  Biso   1.000  C
  H86      1.0000 0.85320  0.41580  0.29220  Biso   1.000  H
  C95      1.0000 0.65390  0.65150  0.23010  Biso   1.000  C
  H87      1.0000 0.67100  0.69640  0.23280  Biso   1.000  H
  C96      1.0000 0.83850  0.54950  0.35680  Biso   1.000  C
  C97      1.0000 0.56180  0.40240  0.02850  Biso   1.000  C
  C98      1.0000 0.94190  0.43000  0.59980  Biso   1.000  C
  H88      1.0000 0.96460  0.43470  0.63730  Biso   1.000  H
  C99      1.0000 0.87200  0.41260  0.24870  Biso   1.000  C
  H89      1.0000 0.84910  0.39340  0.21340  Biso   1.000  H
  C100     1.0000 0.65960  0.63200  0.27860  Biso   1.000  C
  H90      1.0000 0.67950  0.66600  0.31230  Biso   1.000  H
  C101     1.0000 0.79660  0.57940  0.31320  Biso   1.000  C
  H91      1.0000 0.79390  0.63730  0.29010  Biso   1.000  H
  H92      1.0000 0.78890  0.60740  0.33320  Biso   1.000  H
  C102     1.0000 0.52600  0.41380  0.96740  Biso   1.000  C
  H93      1.0000 0.53310  0.41780  0.94440  Biso   1.000  H
  H94      1.0000 0.51370  0.48100  0.96280  Biso   1.000  H
  C103     1.0000 0.90720  0.40720  0.58730  Biso   1.000  C
  C104     1.0000 0.90460  0.42620  0.25700  Biso   1.000  C
  C105     1.0000 0.63560  0.56120  0.27750  Biso   1.000  C
  C106     1.0000 0.76850  0.48960  0.27320  Biso   1.000  C
  H95      1.0000 0.77680  0.45740  0.25480  Biso   1.000  H
  H96      1.0000 0.76900  0.43430  0.29540  Biso   1.000  H
  C107     1.0000 0.49590  0.31790  0.94390  Biso   1.000  C
  H97      1.0000 0.47450  0.32860  0.90380  Biso   1.000  H
  H98      1.0000 0.50790  0.25010  0.94840  Biso   1.000  H
  C108     1.0000 0.87310  0.40150  0.52950  Biso   1.000  C
  H99      1.0000 0.84960  0.38690  0.51890  Biso   1.000  H
  C109     1.0000 0.93730  0.46070  0.30860  Biso   1.000  C
  H100     1.0000 0.95940  0.47120  0.31440  Biso   1.000  H
  C110     1.0000 0.60440  0.51790  0.22510  Biso   1.000  C
  H101     1.0000 0.58670  0.47480  0.22180  Biso   1.000  H
  C111     1.0000 0.72790  0.53000  0.22820  Biso   1.000  C
  H102     1.0000 0.71940  0.55940  0.24690  Biso   1.000  H
  H103     1.0000 0.72790  0.58810  0.20760  Biso   1.000  H
  C112     1.0000 0.48130  0.31370  0.97650  Biso   1.000  C
  H104     1.0000 0.50310  0.31080  0.01690  Biso   1.000  H
  H105     1.0000 0.46740  0.37930  0.96900  Biso   1.000  H
  C113     1.0000 0.87700  0.41950  0.48850  Biso   1.000  C
  H106     1.0000 0.85510  0.41310  0.45050  Biso   1.000  H
  C114     1.0000 0.93720  0.48020  0.35290  Biso   1.000  C
  H107     1.0000 0.95930  0.50650  0.38720  Biso   1.000  H
  C115     1.0000 0.60060  0.54030  0.17930  Biso   1.000  C
  H108     1.0000 0.58040  0.50790  0.14520  Biso   1.000  H
  C116     1.0000 0.69970  0.44650  0.18630  Biso   1.000  C
  C117     1.0000 0.45630  0.22050  0.96070  Biso   1.000  C
  C118     1.0000 0.90800  0.38500  0.63350  Biso   1.000  C
  H109     1.0000 0.93070  0.39280  0.67080  Biso   1.000  H
  C119     1.0000 0.90630  0.40580  0.21190  Biso   1.000  C
  H110     1.0000 0.92640  0.43060  0.21510  Biso   1.000  H
  C120     1.0000 0.64210  0.53810  0.32950  Biso   1.000  C
  H111     1.0000 0.66290  0.56910  0.36360  Biso   1.000  H
  C121     1.0000 0.85380  0.30170  0.66490  Biso   1.000  C
  H112     1.0000 0.83050  0.29600  0.62800  Biso   1.000  H
  C122     1.0000 0.85600  0.28300  0.08370  Biso   1.000  C
  H113     1.0000 0.83540  0.26010  0.07990  Biso   1.000  H
  C123     1.0000 0.60540  0.41760  0.37890  Biso   1.000  C
  H114     1.0000 0.58350  0.39230  0.34400  Biso   1.000  H
  C124     1.0000 0.82650  0.21880  0.74920  Biso   1.000  C
  H115     1.0000 0.80410  0.20020  0.74120  Biso   1.000  H
  C125     1.0000 0.88610  0.72850  0.49710  Biso   1.000  C
  H116     1.0000 0.90590  0.70210  0.50000  Biso   1.000  H
  C126     1.0000 0.58320  0.63970  0.97280  Biso   1.000  C
  H117     1.0000 0.56180  0.65560  0.96830  Biso   1.000  H
  C127     1.0000 0.82450  0.24450  0.70250  Biso   1.000  C
  H118     1.0000 0.80150  0.24080  0.66530  Biso   1.000  H
  C128     1.0000 0.88620  0.70720  0.54130  Biso   1.000  C
  H119     1.0000 0.90630  0.66920  0.57310  Biso   1.000  H
  C129     1.0000 0.57900  0.62910  0.92540  Biso   1.000  C
  H120     1.0000 0.55520  0.64060  0.88970  Biso   1.000  H
  C130     1.0000 0.85700  0.27430  0.71400  Biso   1.000  C
  C131     1.0000 0.85680  0.74190  0.53810  Biso   1.000  C
  C132     1.0000 0.61020  0.60100  0.93040  Biso   1.000  C
  C133     1.0000 0.89090  0.27890  0.77130  Biso   1.000  C
  H121     1.0000 0.91340  0.30130  0.78040  Biso   1.000  H
  C134     1.0000 0.82730  0.80100  0.49070  Biso   1.000  C
  H122     1.0000 0.80700  0.82700  0.48690  Biso   1.000  H
  C135     1.0000 0.64460  0.58710  0.98530  Biso   1.000  C
  H123     1.0000 0.66620  0.56920  0.99090  Biso   1.000  H
  C136     1.0000 0.89130  0.25040  0.81460  Biso   1.000  C
  H124     1.0000 0.91420  0.25200  0.85200  Biso   1.000  H
  C137     1.0000 0.82950  0.81880  0.44980  Biso   1.000  C
  H125     1.0000 0.80960  0.85740  0.41800  Biso   1.000  H
  C138     1.0000 0.64730  0.59860  0.02910  Biso   1.000  C
  H126     1.0000 0.67090  0.58620  0.06480  Biso   1.000  H
  N25      1.0000 0.90940  0.44460  0.49960  Biso   1.000  N
  N26      1.0000 0.90710  0.46280  0.34810  Biso   1.000  N
  N27      1.0000 0.62430  0.60780  0.17830  Biso   1.000  N
  N28      1.0000 0.87820  0.35530  0.62410  Biso   1.000  N
  N29      1.0000 0.87800  0.35120  0.16760  Biso   1.000  N
  N30      1.0000 0.62010  0.47680  0.32860  Biso   1.000  N
  N31      1.0000 0.88490  0.33490  0.67450  Biso   1.000  N
  N32      1.0000 0.88290  0.33530  0.12770  Biso   1.000  N
  N33      1.0000 0.63050  0.46730  0.38150  Biso   1.000  N
  N34      1.0000 0.85890  0.22030  0.80340  Biso   1.000  N
  N35      1.0000 0.85860  0.78490  0.45140  Biso   1.000  N
  N36      1.0000 0.61750  0.62780  0.02620  Biso   1.000  N
  O17      1.0000 0.86360  0.62150  0.38410  Biso   1.000  O
  O18      1.0000 0.57810  0.48860  0.05660  Biso   1.000  O
  O19      1.0000 0.84640  0.44980  0.36390  Biso   1.000  O
  O20      1.0000 0.57510  0.30890  0.05040  Biso   1.000  O
  O21      1.0000 0.66430  0.48030  0.14340  Biso   1.000  O
  O22      1.0000 0.42020  0.23190  0.93250  Biso   1.000  O
  O23      1.0000 0.79280  0.84750  0.30810  Biso   1.000  O
  O24      1.0000 0.47040  0.12510  0.97410  Biso   1.000  O
  Cd10     1.0000 0.12246  0.12607  0.10454  Biso   1.000  Cd
  Cd11     1.0000 0.41311  0.96801  0.42916  Biso   1.000  Cd
  Cd12     1.0000 0.36041  0.30489  0.37920  Biso   1.000  Cd
  C139     1.0000 0.44200  0.94670  0.55500  Biso   1.000  C
  H127     1.0000 0.46510  0.95910  0.56390  Biso   1.000  H
  C140     1.0000 0.37470  0.92900  0.29670  Biso   1.000  C
  H128     1.0000 0.35320  0.91580  0.29220  Biso   1.000  H
  C141     1.0000 0.15390  0.15150  0.23010  Biso   1.000  C
  H129     1.0000 0.17100  0.19640  0.23280  Biso   1.000  H
  C142     1.0000 0.33850  0.04950  0.35680  Biso   1.000  C
  C143     1.0000 0.06180  0.90240  0.02850  Biso   1.000  C
  C144     1.0000 0.44190  0.93000  0.59980  Biso   1.000  C
  H130     1.0000 0.46460  0.93470  0.63730  Biso   1.000  H
  C145     1.0000 0.37200  0.91260  0.24870  Biso   1.000  C
  H131     1.0000 0.34910  0.89340  0.21340  Biso   1.000  H
  C146     1.0000 0.15960  0.13200  0.27860  Biso   1.000  C
  H132     1.0000 0.17950  0.16600  0.31230  Biso   1.000  H
  C147     1.0000 0.29660  0.07940  0.31320  Biso   1.000  C
  H133     1.0000 0.29390  0.13730  0.29010  Biso   1.000  H
  H134     1.0000 0.28890  0.10740  0.33320  Biso   1.000  H
  C148     1.0000 0.02600  0.91380  0.96740  Biso   1.000  C
  H135     1.0000 0.03310  0.91780  0.94440  Biso   1.000  H
  H136     1.0000 0.01370  0.98100  0.96280  Biso   1.000  H
  C149     1.0000 0.40720  0.90720  0.58730  Biso   1.000  C
  C150     1.0000 0.40460  0.92620  0.25700  Biso   1.000  C
  C151     1.0000 0.13560  0.06120  0.27750  Biso   1.000  C
  C152     1.0000 0.26850  0.98960  0.27320  Biso   1.000  C
  H137     1.0000 0.27680  0.95740  0.25480  Biso   1.000  H
  H138     1.0000 0.26900  0.93430  0.29540  Biso   1.000  H
  C153     1.0000 0.99590  0.81790  0.94390  Biso   1.000  C
  H139     1.0000 0.97450  0.82860  0.90380  Biso   1.000  H
  H140     1.0000 0.00790  0.75010  0.94840  Biso   1.000  H
  C154     1.0000 0.37310  0.90150  0.52950  Biso   1.000  C
  H141     1.0000 0.34960  0.88690  0.51890  Biso   1.000  H
  C155     1.0000 0.43730  0.96070  0.30860  Biso   1.000  C
  H142     1.0000 0.45940  0.97120  0.31440  Biso   1.000  H
  C156     1.0000 0.10440  0.01790  0.22510  Biso   1.000  C
  H143     1.0000 0.08670  0.97480  0.22180  Biso   1.000  H
  C157     1.0000 0.22790  0.03000  0.22820  Biso   1.000  C
  H144     1.0000 0.21940  0.05940  0.24690  Biso   1.000  H
  H145     1.0000 0.22790  0.08810  0.20760  Biso   1.000  H
  C158     1.0000 0.98130  0.81370  0.97650  Biso   1.000  C
  H146     1.0000 0.00310  0.81080  0.01690  Biso   1.000  H
  H147     1.0000 0.96740  0.87930  0.96900  Biso   1.000  H
  C159     1.0000 0.37700  0.91950  0.48850  Biso   1.000  C
  H148     1.0000 0.35510  0.91310  0.45050  Biso   1.000  H
  C160     1.0000 0.43720  0.98020  0.35290  Biso   1.000  C
  H149     1.0000 0.45930  0.00650  0.38720  Biso   1.000  H
  C161     1.0000 0.10060  0.04030  0.17930  Biso   1.000  C
  H150     1.0000 0.08040  0.00790  0.14520  Biso   1.000  H
  C162     1.0000 0.19970  0.94650  0.18630  Biso   1.000  C
  C163     1.0000 0.95630  0.72050  0.96070  Biso   1.000  C
  C164     1.0000 0.40800  0.88500  0.63350  Biso   1.000  C
  H151     1.0000 0.43070  0.89280  0.67080  Biso   1.000  H
  C165     1.0000 0.40630  0.90580  0.21190  Biso   1.000  C
  H152     1.0000 0.42640  0.93060  0.21510  Biso   1.000  H
  C166     1.0000 0.14210  0.03810  0.32950  Biso   1.000  C
  H153     1.0000 0.16290  0.06910  0.36360  Biso   1.000  H
  C167     1.0000 0.35380  0.80170  0.66490  Biso   1.000  C
  H154     1.0000 0.33050  0.79600  0.62800  Biso   1.000  H
  C168     1.0000 0.35600  0.78300  0.08370  Biso   1.000  C
  H155     1.0000 0.33540  0.76010  0.07990  Biso   1.000  H
  C169     1.0000 0.10540  0.91760  0.37890  Biso   1.000  C
  H156     1.0000 0.08350  0.89230  0.34400  Biso   1.000  H
  C170     1.0000 0.32650  0.71880  0.74920  Biso   1.000  C
  H157     1.0000 0.30410  0.70020  0.74120  Biso   1.000  H
  C171     1.0000 0.38610  0.22850  0.49710  Biso   1.000  C
  H158     1.0000 0.40590  0.20210  0.50000  Biso   1.000  H
  C172     1.0000 0.08320  0.13970  0.97280  Biso   1.000  C
  H159     1.0000 0.06180  0.15560  0.96830  Biso   1.000  H
  C173     1.0000 0.32450  0.74450  0.70250  Biso   1.000  C
  H160     1.0000 0.30150  0.74080  0.66530  Biso   1.000  H
  C174     1.0000 0.38620  0.20720  0.54130  Biso   1.000  C
  H161     1.0000 0.40630  0.16920  0.57310  Biso   1.000  H
  C175     1.0000 0.07900  0.12910  0.92540  Biso   1.000  C
  H162     1.0000 0.05520  0.14060  0.88970  Biso   1.000  H
  C176     1.0000 0.35700  0.77430  0.71400  Biso   1.000  C
  C177     1.0000 0.35680  0.24190  0.53810  Biso   1.000  C
  C178     1.0000 0.11020  0.10100  0.93040  Biso   1.000  C
  C179     1.0000 0.39090  0.77890  0.77130  Biso   1.000  C
  H163     1.0000 0.41340  0.80130  0.78040  Biso   1.000  H
  C180     1.0000 0.32730  0.30100  0.49070  Biso   1.000  C
  H164     1.0000 0.30700  0.32700  0.48690  Biso   1.000  H
  C181     1.0000 0.14460  0.08710  0.98530  Biso   1.000  C
  H165     1.0000 0.16620  0.06920  0.99090  Biso   1.000  H
  C182     1.0000 0.39130  0.75040  0.81460  Biso   1.000  C
  H166     1.0000 0.41420  0.75200  0.85200  Biso   1.000  H
  C183     1.0000 0.32950  0.31880  0.44980  Biso   1.000  C
  H167     1.0000 0.30960  0.35740  0.41800  Biso   1.000  H
  C184     1.0000 0.14730  0.09860  0.02910  Biso   1.000  C
  H168     1.0000 0.17090  0.08620  0.06480  Biso   1.000  H
  N37      1.0000 0.40940  0.94460  0.49960  Biso   1.000  N
  N38      1.0000 0.40710  0.96280  0.34810  Biso   1.000  N
  N39      1.0000 0.12430  0.10780  0.17830  Biso   1.000  N
  N40      1.0000 0.37820  0.85530  0.62410  Biso   1.000  N
  N41      1.0000 0.37800  0.85120  0.16760  Biso   1.000  N
  N42      1.0000 0.12010  0.97680  0.32860  Biso   1.000  N
  N43      1.0000 0.38490  0.83490  0.67450  Biso   1.000  N
  N44      1.0000 0.38290  0.83530  0.12770  Biso   1.000  N
  N45      1.0000 0.13050  0.96730  0.38150  Biso   1.000  N
  N46      1.0000 0.35890  0.72030  0.80340  Biso   1.000  N
  N47      1.0000 0.35860  0.28490  0.45140  Biso   1.000  N
  N48      1.0000 0.11750  0.12780  0.02620  Biso   1.000  N
  O25      1.0000 0.36360  0.12150  0.38410  Biso   1.000  O
  O26      1.0000 0.07810  0.98860  0.05660  Biso   1.000  O
  O27      1.0000 0.34640  0.94980  0.36390  Biso   1.000  O
  O28      1.0000 0.07510  0.80890  0.05040  Biso   1.000  O
  O29      1.0000 0.16430  0.98030  0.14340  Biso   1.000  O
  O30      1.0000 0.92020  0.73190  0.93250  Biso   1.000  O
  O31      1.0000 0.29280  0.34750  0.30810  Biso   1.000  O
  O32      1.0000 0.97040  0.62510  0.97410  Biso   1.000  O
  Cd13     1.0000 0.62246  0.37393  0.60454  Biso   1.000  Cd
  Cd14     1.0000 0.91311  0.53199  0.92916  Biso   1.000  Cd
  Cd15     1.0000 0.86041  0.19511  0.87920  Biso   1.000  Cd
  C185     1.0000 0.94200  0.55330  0.05500  Biso   1.000  C
  H169     1.0000 0.96510  0.54090  0.06390  Biso   1.000  H
  C186     1.0000 0.87470  0.57100  0.79670  Biso   1.000  C
  H170     1.0000 0.85320  0.58420  0.79220  Biso   1.000  H
  C187     1.0000 0.65390  0.34850  0.73010  Biso   1.000  C
  H171     1.0000 0.67100  0.30360  0.73280  Biso   1.000  H
  C188     1.0000 0.83850  0.45050  0.85680  Biso   1.000  C
  C189     1.0000 0.56180  0.59760  0.52850  Biso   1.000  C
  C190     1.0000 0.94190  0.57000  0.09980  Biso   1.000  C
  H172     1.0000 0.96460  0.56530  0.13730  Biso   1.000  H
  C191     1.0000 0.87200  0.58740  0.74870  Biso   1.000  C
  H173     1.0000 0.84910  0.60660  0.71340  Biso   1.000  H
  C192     1.0000 0.65960  0.36800  0.77860  Biso   1.000  C
  H174     1.0000 0.67950  0.33400  0.81230  Biso   1.000  H
  C193     1.0000 0.79660  0.42060  0.81320  Biso   1.000  C
  H175     1.0000 0.79390  0.36270  0.79010  Biso   1.000  H
  H176     1.0000 0.78890  0.39260  0.83320  Biso   1.000  H
  C194     1.0000 0.52600  0.58620  0.46740  Biso   1.000  C
  H177     1.0000 0.53310  0.58220  0.44440  Biso   1.000  H
  H178     1.0000 0.51370  0.51900  0.46280  Biso   1.000  H
  C195     1.0000 0.90720  0.59280  0.08730  Biso   1.000  C
  C196     1.0000 0.90460  0.57380  0.75700  Biso   1.000  C
  C197     1.0000 0.63560  0.43880  0.77750  Biso   1.000  C
  C198     1.0000 0.76850  0.51040  0.77320  Biso   1.000  C
  H179     1.0000 0.77680  0.54260  0.75480  Biso   1.000  H
  H180     1.0000 0.76900  0.56570  0.79540  Biso   1.000  H
  C199     1.0000 0.49590  0.68210  0.44390  Biso   1.000  C
  H181     1.0000 0.47450  0.67140  0.40380  Biso   1.000  H
  H182     1.0000 0.50790  0.74990  0.44840  Biso   1.000  H
  C200     1.0000 0.87310  0.59850  0.02950  Biso   1.000  C
  H183     1.0000 0.84960  0.61310  0.01890  Biso   1.000  H
  C201     1.0000 0.93730  0.53930  0.80860  Biso   1.000  C
  H184     1.0000 0.95940  0.52880  0.81440  Biso   1.000  H
  C202     1.0000 0.60440  0.48210  0.72510  Biso   1.000  C
  H185     1.0000 0.58670  0.52520  0.72180  Biso   1.000  H
  C203     1.0000 0.72790  0.47000  0.72820  Biso   1.000  C
  H186     1.0000 0.71940  0.44060  0.74690  Biso   1.000  H
  H187     1.0000 0.72790  0.41190  0.70760  Biso   1.000  H
  C204     1.0000 0.48130  0.68630  0.47650  Biso   1.000  C
  H188     1.0000 0.50310  0.68920  0.51690  Biso   1.000  H
  H189     1.0000 0.46740  0.62070  0.46900  Biso   1.000  H
  C205     1.0000 0.87700  0.58050  0.98850  Biso   1.000  C
  H190     1.0000 0.85510  0.58690  0.95050  Biso   1.000  H
  C206     1.0000 0.93720  0.51980  0.85290  Biso   1.000  C
  H191     1.0000 0.95930  0.49350  0.88720  Biso   1.000  H
  C207     1.0000 0.60060  0.45970  0.67930  Biso   1.000  C
  H192     1.0000 0.58040  0.49210  0.64520  Biso   1.000  H
  C208     1.0000 0.69970  0.55350  0.68630  Biso   1.000  C
  C209     1.0000 0.45630  0.77950  0.46070  Biso   1.000  C
  C210     1.0000 0.90800  0.61500  0.13350  Biso   1.000  C
  H193     1.0000 0.93070  0.60720  0.17080  Biso   1.000  H
  C211     1.0000 0.90630  0.59420  0.71190  Biso   1.000  C
  H194     1.0000 0.92640  0.56940  0.71510  Biso   1.000  H
  C212     1.0000 0.64210  0.46190  0.82950  Biso   1.000  C
  H195     1.0000 0.66290  0.43090  0.86360  Biso   1.000  H
  C213     1.0000 0.85380  0.69830  0.16490  Biso   1.000  C
  H196     1.0000 0.83050  0.70400  0.12800  Biso   1.000  H
  C214     1.0000 0.85600  0.71700  0.58370  Biso   1.000  C
  H197     1.0000 0.83540  0.73990  0.57990  Biso   1.000  H
  C215     1.0000 0.60540  0.58240  0.87890  Biso   1.000  C
  H198     1.0000 0.58350  0.60770  0.84400  Biso   1.000  H
  C216     1.0000 0.82650  0.78120  0.24920  Biso   1.000  C
  H199     1.0000 0.80410  0.79980  0.24120  Biso   1.000  H
  C217     1.0000 0.88610  0.27150  0.99710  Biso   1.000  C
  H200     1.0000 0.90590  0.29790  0.00000  Biso   1.000  H
  C218     1.0000 0.58320  0.36030  0.47280  Biso   1.000  C
  H201     1.0000 0.56180  0.34440  0.46830  Biso   1.000  H
  C219     1.0000 0.82450  0.75550  0.20250  Biso   1.000  C
  H202     1.0000 0.80150  0.75920  0.16530  Biso   1.000  H
  C220     1.0000 0.88620  0.29280  0.04130  Biso   1.000  C
  H203     1.0000 0.90630  0.33080  0.07310  Biso   1.000  H
  C221     1.0000 0.57900  0.37090  0.42540  Biso   1.000  C
  H204     1.0000 0.55520  0.35940  0.38970  Biso   1.000  H
  C222     1.0000 0.85700  0.72570  0.21400  Biso   1.000  C
  C223     1.0000 0.85680  0.25810  0.03810  Biso   1.000  C
  C224     1.0000 0.61020  0.39900  0.43040  Biso   1.000  C
  C225     1.0000 0.89090  0.72110  0.27130  Biso   1.000  C
  H205     1.0000 0.91340  0.69870  0.28040  Biso   1.000  H
  C226     1.0000 0.82730  0.19900  0.99070  Biso   1.000  C
  H206     1.0000 0.80700  0.17300  0.98690  Biso   1.000  H
  C227     1.0000 0.64460  0.41290  0.48530  Biso   1.000  C
  H207     1.0000 0.66620  0.43080  0.49090  Biso   1.000  H
  C228     1.0000 0.89130  0.74960  0.31460  Biso   1.000  C
  H208     1.0000 0.91420  0.74800  0.35200  Biso   1.000  H
  C229     1.0000 0.82950  0.18120  0.94980  Biso   1.000  C
  H209     1.0000 0.80960  0.14260  0.91800  Biso   1.000  H
  C230     1.0000 0.64730  0.40140  0.52910  Biso   1.000  C
  H210     1.0000 0.67090  0.41380  0.56480  Biso   1.000  H
  N49      1.0000 0.90940  0.55540  0.99960  Biso   1.000  N
  N50      1.0000 0.90710  0.53720  0.84810  Biso   1.000  N
  N51      1.0000 0.62430  0.39220  0.67830  Biso   1.000  N
  N52      1.0000 0.87820  0.64470  0.12410  Biso   1.000  N
  N53      1.0000 0.87800  0.64880  0.66760  Biso   1.000  N
  N54      1.0000 0.62010  0.52320  0.82860  Biso   1.000  N
  N55      1.0000 0.88490  0.66510  0.17450  Biso   1.000  N
  N56      1.0000 0.88290  0.66470  0.62770  Biso   1.000  N
  N57      1.0000 0.63050  0.53270  0.88150  Biso   1.000  N
  N58      1.0000 0.85890  0.77970  0.30340  Biso   1.000  N
  N59      1.0000 0.85860  0.21510  0.95140  Biso   1.000  N
  N60      1.0000 0.61750  0.37220  0.52620  Biso   1.000  N
  O33      1.0000 0.86360  0.37850  0.88410  Biso   1.000  O
  O34      1.0000 0.57810  0.51140  0.55660  Biso   1.000  O
  O35      1.0000 0.84640  0.55020  0.86390  Biso   1.000  O
  O36      1.0000 0.57510  0.69110  0.55040  Biso   1.000  O
  O37      1.0000 0.66430  0.51970  0.64340  Biso   1.000  O
  O38      1.0000 0.42020  0.76810  0.43250  Biso   1.000  O
  O39      1.0000 0.79280  0.15250  0.80810  Biso   1.000  O
  O40      1.0000 0.47040  0.87490  0.47410  Biso   1.000  O
  Cd16     1.0000 0.12246  0.87393  0.60454  Biso   1.000  Cd
  Cd17     1.0000 0.41311  0.03199  0.92916  Biso   1.000  Cd
  Cd18     1.0000 0.36041  0.69511  0.87920  Biso   1.000  Cd
  C231     1.0000 0.44200  0.05330  0.05500  Biso   1.000  C
  H211     1.0000 0.46510  0.04090  0.06390  Biso   1.000  H
  C232     1.0000 0.37470  0.07100  0.79670  Biso   1.000  C
  H212     1.0000 0.35320  0.08420  0.79220  Biso   1.000  H
  C233     1.0000 0.15390  0.84850  0.73010  Biso   1.000  C
  H213     1.0000 0.17100  0.80360  0.73280  Biso   1.000  H
  C234     1.0000 0.33850  0.95050  0.85680  Biso   1.000  C
  C235     1.0000 0.06180  0.09760  0.52850  Biso   1.000  C
  C236     1.0000 0.44190  0.07000  0.09980  Biso   1.000  C
  H214     1.0000 0.46460  0.06530  0.13730  Biso   1.000  H
  C237     1.0000 0.37200  0.08740  0.74870  Biso   1.000  C
  H215     1.0000 0.34910  0.10660  0.71340  Biso   1.000  H
  C238     1.0000 0.15960  0.86800  0.77860  Biso   1.000  C
  H216     1.0000 0.17950  0.83400  0.81230  Biso   1.000  H
  C239     1.0000 0.29660  0.92060  0.81320  Biso   1.000  C
  H217     1.0000 0.29390  0.86270  0.79010  Biso   1.000  H
  H218     1.0000 0.28890  0.89260  0.83320  Biso   1.000  H
  C240     1.0000 0.02600  0.08620  0.46740  Biso   1.000  C
  H219     1.0000 0.03310  0.08220  0.44440  Biso   1.000  H
  H220     1.0000 0.01370  0.01900  0.46280  Biso   1.000  H
  C241     1.0000 0.40720  0.09280  0.08730  Biso   1.000  C
  C242     1.0000 0.40460  0.07380  0.75700  Biso   1.000  C
  C243     1.0000 0.13560  0.93880  0.77750  Biso   1.000  C
  C244     1.0000 0.26850  0.01040  0.77320  Biso   1.000  C
  H221     1.0000 0.27680  0.04260  0.75480  Biso   1.000  H
  H222     1.0000 0.26900  0.06570  0.79540  Biso   1.000  H
  C245     1.0000 0.99590  0.18210  0.44390  Biso   1.000  C
  H223     1.0000 0.97450  0.17140  0.40380  Biso   1.000  H
  H224     1.0000 0.00790  0.24990  0.44840  Biso   1.000  H
  C246     1.0000 0.37310  0.09850  0.02950  Biso   1.000  C
  H225     1.0000 0.34960  0.11310  0.01890  Biso   1.000  H
  C247     1.0000 0.43730  0.03930  0.80860  Biso   1.000  C
  H226     1.0000 0.45940  0.02880  0.81440  Biso   1.000  H
  C248     1.0000 0.10440  0.98210  0.72510  Biso   1.000  C
  H227     1.0000 0.08670  0.02520  0.72180  Biso   1.000  H
  C249     1.0000 0.22790  0.97000  0.72820  Biso   1.000  C
  H228     1.0000 0.21940  0.94060  0.74690  Biso   1.000  H
  H229     1.0000 0.22790  0.91190  0.70760  Biso   1.000  H
  C250     1.0000 0.98130  0.18630  0.47650  Biso   1.000  C
  H230     1.0000 0.00310  0.18920  0.51690  Biso   1.000  H
  H231     1.0000 0.96740  0.12070  0.46900  Biso   1.000  H
  C251     1.0000 0.37700  0.08050  0.98850  Biso   1.000  C
  H232     1.0000 0.35510  0.08690  0.95050  Biso   1.000  H
  C252     1.0000 0.43720  0.01980  0.85290  Biso   1.000  C
  H233     1.0000 0.45930  0.99350  0.88720  Biso   1.000  H
  C253     1.0000 0.10060  0.95970  0.67930  Biso   1.000  C
  H234     1.0000 0.08040  0.99210  0.64520  Biso   1.000  H
  C254     1.0000 0.19970  0.05350  0.68630  Biso   1.000  C
  C255     1.0000 0.95630  0.27950  0.46070  Biso   1.000  C
  C256     1.0000 0.40800  0.11500  0.13350  Biso   1.000  C
  H235     1.0000 0.43070  0.10720  0.17080  Biso   1.000  H
  C257     1.0000 0.40630  0.09420  0.71190  Biso   1.000  C
  H236     1.0000 0.42640  0.06940  0.71510  Biso   1.000  H
  C258     1.0000 0.14210  0.96190  0.82950  Biso   1.000  C
  H237     1.0000 0.16290  0.93090  0.86360  Biso   1.000  H
  C259     1.0000 0.35380  0.19830  0.16490  Biso   1.000  C
  H238     1.0000 0.33050  0.20400  0.12800  Biso   1.000  H
  C260     1.0000 0.35600  0.21700  0.58370  Biso   1.000  C
  H239     1.0000 0.33540  0.23990  0.57990  Biso   1.000  H
  C261     1.0000 0.10540  0.08240  0.87890  Biso   1.000  C
  H240     1.0000 0.08350  0.10770  0.84400  Biso   1.000  H
  C262     1.0000 0.32650  0.28120  0.24920  Biso   1.000  C
  H241     1.0000 0.30410  0.29980  0.24120  Biso   1.000  H
  C263     1.0000 0.38610  0.77150  0.99710  Biso   1.000  C
  H242     1.0000 0.40590  0.79790  0.00000  Biso   1.000  H
  C264     1.0000 0.08320  0.86030  0.47280  Biso   1.000  C
  H243     1.0000 0.06180  0.84440  0.46830  Biso   1.000  H
  C265     1.0000 0.32450  0.25550  0.20250  Biso   1.000  C
  H244     1.0000 0.30150  0.25920  0.16530  Biso   1.000  H
  C266     1.0000 0.38620  0.79280  0.04130  Biso   1.000  C
  H245     1.0000 0.40630  0.83080  0.07310  Biso   1.000  H
  C267     1.0000 0.07900  0.87090  0.42540  Biso   1.000  C
  H246     1.0000 0.05520  0.85940  0.38970  Biso   1.000  H
  C268     1.0000 0.35700  0.22570  0.21400  Biso   1.000  C
  C269     1.0000 0.35680  0.75810  0.03810  Biso   1.000  C
  C270     1.0000 0.11020  0.89900  0.43040  Biso   1.000  C
  C271     1.0000 0.39090  0.22110  0.27130  Biso   1.000  C
  H247     1.0000 0.41340  0.19870  0.28040  Biso   1.000  H
  C272     1.0000 0.32730  0.69900  0.99070  Biso   1.000  C
  H248     1.0000 0.30700  0.67300  0.98690  Biso   1.000  H
  C273     1.0000 0.14460  0.91290  0.48530  Biso   1.000  C
  H249     1.0000 0.16620  0.93080  0.49090  Biso   1.000  H
  C274     1.0000 0.39130  0.24960  0.31460  Biso   1.000  C
  H250     1.0000 0.41420  0.24800  0.35200  Biso   1.000  H
  C275     1.0000 0.32950  0.68120  0.94980  Biso   1.000  C
  H251     1.0000 0.30960  0.64260  0.91800  Biso   1.000  H
  C276     1.0000 0.14730  0.90140  0.52910  Biso   1.000  C
  H252     1.0000 0.17090  0.91380  0.56480  Biso   1.000  H
  N61      1.0000 0.40940  0.05540  0.99960  Biso   1.000  N
  N62      1.0000 0.40710  0.03720  0.84810  Biso   1.000  N
  N63      1.0000 0.12430  0.89220  0.67830  Biso   1.000  N
  N64      1.0000 0.37820  0.14470  0.12410  Biso   1.000  N
  N65      1.0000 0.37800  0.14880  0.66760  Biso   1.000  N
  N66      1.0000 0.12010  0.02320  0.82860  Biso   1.000  N
  N67      1.0000 0.38490  0.16510  0.17450  Biso   1.000  N
  N68      1.0000 0.38290  0.16470  0.62770  Biso   1.000  N
  N69      1.0000 0.13050  0.03270  0.88150  Biso   1.000  N
  N70      1.0000 0.35890  0.27970  0.30340  Biso   1.000  N
  N71      1.0000 0.35860  0.71510  0.95140  Biso   1.000  N
  N72      1.0000 0.11750  0.87220  0.52620  Biso   1.000  N
  O41      1.0000 0.36360  0.87850  0.88410  Biso   1.000  O
  O42      1.0000 0.07810  0.01140  0.55660  Biso   1.000  O
  O43      1.0000 0.34640  0.05020  0.86390  Biso   1.000  O
  O44      1.0000 0.07510  0.19110  0.55040  Biso   1.000  O
  O45      1.0000 0.16430  0.01970  0.64340  Biso   1.000  O
  O46      1.0000 0.92020  0.26810  0.43250  Biso   1.000  O
  O47      1.0000 0.29280  0.65250  0.80810  Biso   1.000  O
  O48      1.0000 0.97040  0.37490  0.47410  Biso   1.000  O
  Cd19     1.0000 0.37754  0.37393  0.89546  Biso   1.000  Cd
  Cd20     1.0000 0.08689  0.53199  0.57084  Biso   1.000  Cd
  Cd21     1.0000 0.13959  0.19511  0.62080  Biso   1.000  Cd
  C277     1.0000 0.05800  0.55330  0.44500  Biso   1.000  C
  H253     1.0000 0.03490  0.54090  0.43610  Biso   1.000  H
  C278     1.0000 0.12530  0.57100  0.70330  Biso   1.000  C
  H254     1.0000 0.14680  0.58420  0.70780  Biso   1.000  H
  C279     1.0000 0.34610  0.34850  0.76990  Biso   1.000  C
  H255     1.0000 0.32900  0.30360  0.76720  Biso   1.000  H
  C280     1.0000 0.16150  0.45050  0.64320  Biso   1.000  C
  C281     1.0000 0.43820  0.59760  0.97150  Biso   1.000  C
  C282     1.0000 0.05810  0.57000  0.40020  Biso   1.000  C
  H256     1.0000 0.03540  0.56530  0.36270  Biso   1.000  H
  C283     1.0000 0.12800  0.58740  0.75130  Biso   1.000  C
  H257     1.0000 0.15090  0.60660  0.78660  Biso   1.000  H
  C284     1.0000 0.34040  0.36800  0.72140  Biso   1.000  C
  H258     1.0000 0.32050  0.33400  0.68770  Biso   1.000  H
  C285     1.0000 0.20340  0.42060  0.68680  Biso   1.000  C
  H259     1.0000 0.20610  0.36270  0.70990  Biso   1.000  H
  H260     1.0000 0.21110  0.39260  0.66680  Biso   1.000  H
  C286     1.0000 0.47400  0.58620  0.03260  Biso   1.000  C
  H261     1.0000 0.46690  0.58220  0.05560  Biso   1.000  H
  H262     1.0000 0.48630  0.51900  0.03720  Biso   1.000  H
  C287     1.0000 0.09280  0.59280  0.41270  Biso   1.000  C
  C288     1.0000 0.09540  0.57380  0.74300  Biso   1.000  C
  C289     1.0000 0.36440  0.43880  0.72250  Biso   1.000  C
  C290     1.0000 0.23150  0.51040  0.72680  Biso   1.000  C
  H263     1.0000 0.22320  0.54260  0.74520  Biso   1.000  H
  H264     1.0000 0.23100  0.56570  0.70460  Biso   1.000  H
  C291     1.0000 0.50410  0.68210  0.05610  Biso   1.000  C
  H265     1.0000 0.52550  0.67140  0.09620  Biso   1.000  H
  H266     1.0000 0.49210  0.74990  0.05160  Biso   1.000  H
  C292     1.0000 0.12690  0.59850  0.47050  Biso   1.000  C
  H267     1.0000 0.15040  0.61310  0.48110  Biso   1.000  H
  C293     1.0000 0.06270  0.53930  0.69140  Biso   1.000  C
  H268     1.0000 0.04060  0.52880  0.68560  Biso   1.000  H
  C294     1.0000 0.39560  0.48210  0.77490  Biso   1.000  C
  H269     1.0000 0.41330  0.52520  0.77820  Biso   1.000  H
  C295     1.0000 0.27210  0.47000  0.77180  Biso   1.000  C
  H270     1.0000 0.28060  0.44060  0.75310  Biso   1.000  H
  H271     1.0000 0.27210  0.41190  0.79240  Biso   1.000  H
  C296     1.0000 0.51870  0.68630  0.02350  Biso   1.000  C
  H272     1.0000 0.49690  0.68920  0.98310  Biso   1.000  H
  H273     1.0000 0.53260  0.62070  0.03100  Biso   1.000  H
  C297     1.0000 0.12300  0.58050  0.51150  Biso   1.000  C
  H274     1.0000 0.14490  0.58690  0.54950  Biso   1.000  H
  C298     1.0000 0.06280  0.51980  0.64710  Biso   1.000  C
  H275     1.0000 0.04070  0.49350  0.61280  Biso   1.000  H
  C299     1.0000 0.39940  0.45970  0.82070  Biso   1.000  C
  H276     1.0000 0.41960  0.49210  0.85480  Biso   1.000  H
  C300     1.0000 0.30030  0.55350  0.81370  Biso   1.000  C
  C301     1.0000 0.54370  0.77950  0.03930  Biso   1.000  C
  C302     1.0000 0.09200  0.61500  0.36650  Biso   1.000  C
  H277     1.0000 0.06930  0.60720  0.32920  Biso   1.000  H
  C303     1.0000 0.09370  0.59420  0.78810  Biso   1.000  C
  H278     1.0000 0.07360  0.56940  0.78490  Biso   1.000  H
  C304     1.0000 0.35790  0.46190  0.67050  Biso   1.000  C
  H279     1.0000 0.33710  0.43090  0.63640  Biso   1.000  H
  C305     1.0000 0.14620  0.69830  0.33510  Biso   1.000  C
  H280     1.0000 0.16950  0.70400  0.37200  Biso   1.000  H
  C306     1.0000 0.14400  0.71700  0.91630  Biso   1.000  C
  H281     1.0000 0.16460  0.73990  0.92010  Biso   1.000  H
  C307     1.0000 0.39460  0.58240  0.62110  Biso   1.000  C
  H282     1.0000 0.41650  0.60770  0.65600  Biso   1.000  H
  C308     1.0000 0.17350  0.78120  0.25080  Biso   1.000  C
  H283     1.0000 0.19590  0.79980  0.25880  Biso   1.000  H
  C309     1.0000 0.11390  0.27150  0.50290  Biso   1.000  C
  H284     1.0000 0.09410  0.29790  0.50000  Biso   1.000  H
  C310     1.0000 0.41680  0.36030  0.02720  Biso   1.000  C
  H285     1.0000 0.43820  0.34440  0.03170  Biso   1.000  H
  C311     1.0000 0.17550  0.75550  0.29750  Biso   1.000  C
  H286     1.0000 0.19850  0.75920  0.33470  Biso   1.000  H
  C312     1.0000 0.11380  0.29280  0.45870  Biso   1.000  C
  H287     1.0000 0.09370  0.33080  0.42690  Biso   1.000  H
  C313     1.0000 0.42100  0.37090  0.07460  Biso   1.000  C
  H288     1.0000 0.44480  0.35940  0.11030  Biso   1.000  H
  C314     1.0000 0.14300  0.72570  0.28600  Biso   1.000  C
  C315     1.0000 0.14320  0.25810  0.46190  Biso   1.000  C
  C316     1.0000 0.38980  0.39900  0.06960  Biso   1.000  C
  C317     1.0000 0.10910  0.72110  0.22870  Biso   1.000  C
  H289     1.0000 0.08660  0.69870  0.21960  Biso   1.000  H
  C318     1.0000 0.17270  0.19900  0.50930  Biso   1.000  C
  H290     1.0000 0.19300  0.17300  0.51310  Biso   1.000  H
  C319     1.0000 0.35540  0.41290  0.01470  Biso   1.000  C
  H291     1.0000 0.33380  0.43080  0.00910  Biso   1.000  H
  C320     1.0000 0.10870  0.74960  0.18540  Biso   1.000  C
  H292     1.0000 0.08580  0.74800  0.14800  Biso   1.000  H
  C321     1.0000 0.17050  0.18120  0.55020  Biso   1.000  C
  H293     1.0000 0.19040  0.14260  0.58200  Biso   1.000  H
  C322     1.0000 0.35270  0.40140  0.97090  Biso   1.000  C
  H294     1.0000 0.32910  0.41380  0.93520  Biso   1.000  H
  N73      1.0000 0.09060  0.55540  0.50040  Biso   1.000  N
  N74      1.0000 0.09290  0.53720  0.65190  Biso   1.000  N
  N75      1.0000 0.37570  0.39220  0.82170  Biso   1.000  N
  N76      1.0000 0.12180  0.64470  0.37590  Biso   1.000  N
  N77      1.0000 0.12200  0.64880  0.83240  Biso   1.000  N
  N78      1.0000 0.37990  0.52320  0.67140  Biso   1.000  N
  N79      1.0000 0.11510  0.66510  0.32550  Biso   1.000  N
  N80      1.0000 0.11710  0.66470  0.87230  Biso   1.000  N
  N81      1.0000 0.36950  0.53270  0.61850  Biso   1.000  N
  N82      1.0000 0.14110  0.77970  0.19660  Biso   1.000  N
  N83      1.0000 0.14140  0.21510  0.54860  Biso   1.000  N
  N84      1.0000 0.38250  0.37220  0.97380  Biso   1.000  N
  O49      1.0000 0.13640  0.37850  0.61590  Biso   1.000  O
  O50      1.0000 0.42190  0.51140  0.94340  Biso   1.000  O
  O51      1.0000 0.15360  0.55020  0.63610  Biso   1.000  O
  O52      1.0000 0.42490  0.69110  0.94960  Biso   1.000  O
  O53      1.0000 0.33570  0.51970  0.85660  Biso   1.000  O
  O54      1.0000 0.57980  0.76810  0.06750  Biso   1.000  O
  O55      1.0000 0.20720  0.15250  0.69190  Biso   1.000  O
  O56      1.0000 0.52960  0.87490  0.02590  Biso   1.000  O
  Cd22     1.0000 0.87754  0.87393  0.89546  Biso   1.000  Cd
  Cd23     1.0000 0.58689  0.03199  0.57084  Biso   1.000  Cd
  Cd24     1.0000 0.63959  0.69511  0.62080  Biso   1.000  Cd
  C323     1.0000 0.55800  0.05330  0.44500  Biso   1.000  C
  H295     1.0000 0.53490  0.04090  0.43610  Biso   1.000  H
  C324     1.0000 0.62530  0.07100  0.70330  Biso   1.000  C
  H296     1.0000 0.64680  0.08420  0.70780  Biso   1.000  H
  C325     1.0000 0.84610  0.84850  0.76990  Biso   1.000  C
  H297     1.0000 0.82900  0.80360  0.76720  Biso   1.000  H
  C326     1.0000 0.66150  0.95050  0.64320  Biso   1.000  C
  C327     1.0000 0.93820  0.09760  0.97150  Biso   1.000  C
  C328     1.0000 0.55810  0.07000  0.40020  Biso   1.000  C
  H298     1.0000 0.53540  0.06530  0.36270  Biso   1.000  H
  C329     1.0000 0.62800  0.08740  0.75130  Biso   1.000  C
  H299     1.0000 0.65090  0.10660  0.78660  Biso   1.000  H
  C330     1.0000 0.84040  0.86800  0.72140  Biso   1.000  C
  H300     1.0000 0.82050  0.83400  0.68770  Biso   1.000  H
  C331     1.0000 0.70340  0.92060  0.68680  Biso   1.000  C
  H301     1.0000 0.70610  0.86270  0.70990  Biso   1.000  H
  H302     1.0000 0.71110  0.89260  0.66680  Biso   1.000  H
  C332     1.0000 0.97400  0.08620  0.03260  Biso   1.000  C
  H303     1.0000 0.96690  0.08220  0.05560  Biso   1.000  H
  H304     1.0000 0.98630  0.01900  0.03720  Biso   1.000  H
  C333     1.0000 0.59280  0.09280  0.41270  Biso   1.000  C
  C334     1.0000 0.59540  0.07380  0.74300  Biso   1.000  C
  C335     1.0000 0.86440  0.93880  0.72250  Biso   1.000  C
  C336     1.0000 0.73150  0.01040  0.72680  Biso   1.000  C
  H305     1.0000 0.72320  0.04260  0.74520  Biso   1.000  H
  H306     1.0000 0.73100  0.06570  0.70460  Biso   1.000  H
  C337     1.0000 0.00410  0.18210  0.05610  Biso   1.000  C
  H307     1.0000 0.02550  0.17140  0.09620  Biso   1.000  H
  H308     1.0000 0.99210  0.24990  0.05160  Biso   1.000  H
  C338     1.0000 0.62690  0.09850  0.47050  Biso   1.000  C
  H309     1.0000 0.65040  0.11310  0.48110  Biso   1.000  H
  C339     1.0000 0.56270  0.03930  0.69140  Biso   1.000  C
  H310     1.0000 0.54060  0.02880  0.68560  Biso   1.000  H
  C340     1.0000 0.89560  0.98210  0.77490  Biso   1.000  C
  H311     1.0000 0.91330  0.02520  0.77820  Biso   1.000  H
  C341     1.0000 0.77210  0.97000  0.77180  Biso   1.000  C
  H312     1.0000 0.78060  0.94060  0.75310  Biso   1.000  H
  H313     1.0000 0.77210  0.91190  0.79240  Biso   1.000  H
  C342     1.0000 0.01870  0.18630  0.02350  Biso   1.000  C
  H314     1.0000 0.99690  0.18920  0.98310  Biso   1.000  H
  H315     1.0000 0.03260  0.12070  0.03100  Biso   1.000  H
  C343     1.0000 0.62300  0.08050  0.51150  Biso   1.000  C
  H316     1.0000 0.64490  0.08690  0.54950  Biso   1.000  H
  C344     1.0000 0.56280  0.01980  0.64710  Biso   1.000  C
  H317     1.0000 0.54070  0.99350  0.61280  Biso   1.000  H
  C345     1.0000 0.89940  0.95970  0.82070  Biso   1.000  C
  H318     1.0000 0.91960  0.99210  0.85480  Biso   1.000  H
  C346     1.0000 0.80030  0.05350  0.81370  Biso   1.000  C
  C347     1.0000 0.04370  0.27950  0.03930  Biso   1.000  C
  C348     1.0000 0.59200  0.11500  0.36650  Biso   1.000  C
  H319     1.0000 0.56930  0.10720  0.32920  Biso   1.000  H
  C349     1.0000 0.59370  0.09420  0.78810  Biso   1.000  C
  H320     1.0000 0.57360  0.06940  0.78490  Biso   1.000  H
  C350     1.0000 0.85790  0.96190  0.67050  Biso   1.000  C
  H321     1.0000 0.83710  0.93090  0.63640  Biso   1.000  H
  C351     1.0000 0.64620  0.19830  0.33510  Biso   1.000  C
  H322     1.0000 0.66950  0.20400  0.37200  Biso   1.000  H
  C352     1.0000 0.64400  0.21700  0.91630  Biso   1.000  C
  H323     1.0000 0.66460  0.23990  0.92010  Biso   1.000  H
  C353     1.0000 0.89460  0.08240  0.62110  Biso   1.000  C
  H324     1.0000 0.91650  0.10770  0.65600  Biso   1.000  H
  C354     1.0000 0.67350  0.28120  0.25080  Biso   1.000  C
  H325     1.0000 0.69590  0.29980  0.25880  Biso   1.000  H
  C355     1.0000 0.61390  0.77150  0.50290  Biso   1.000  C
  H326     1.0000 0.59410  0.79790  0.50000  Biso   1.000  H
  C356     1.0000 0.91680  0.86030  0.02720  Biso   1.000  C
  H327     1.0000 0.93820  0.84440  0.03170  Biso   1.000  H
  C357     1.0000 0.67550  0.25550  0.29750  Biso   1.000  C
  H328     1.0000 0.69850  0.25920  0.33470  Biso   1.000  H
  C358     1.0000 0.61380  0.79280  0.45870  Biso   1.000  C
  H329     1.0000 0.59370  0.83080  0.42690  Biso   1.000  H
  C359     1.0000 0.92100  0.87090  0.07460  Biso   1.000  C
  H330     1.0000 0.94480  0.85940  0.11030  Biso   1.000  H
  C360     1.0000 0.64300  0.22570  0.28600  Biso   1.000  C
  C361     1.0000 0.64320  0.75810  0.46190  Biso   1.000  C
  C362     1.0000 0.88980  0.89900  0.06960  Biso   1.000  C
  C363     1.0000 0.60910  0.22110  0.22870  Biso   1.000  C
  H331     1.0000 0.58660  0.19870  0.21960  Biso   1.000  H
  C364     1.0000 0.67270  0.69900  0.50930  Biso   1.000  C
  H332     1.0000 0.69300  0.67300  0.51310  Biso   1.000  H
  C365     1.0000 0.85540  0.91290  0.01470  Biso   1.000  C
  H333     1.0000 0.83380  0.93080  0.00910  Biso   1.000  H
  C366     1.0000 0.60870  0.24960  0.18540  Biso   1.000  C
  H334     1.0000 0.58580  0.24800  0.14800  Biso   1.000  H
  C367     1.0000 0.67050  0.68120  0.55020  Biso   1.000  C
  H335     1.0000 0.69040  0.64260  0.58200  Biso   1.000  H
  C368     1.0000 0.85270  0.90140  0.97090  Biso   1.000  C
  H336     1.0000 0.82910  0.91380  0.93520  Biso   1.000  H
  N85      1.0000 0.59060  0.05540  0.50040  Biso   1.000  N
  N86      1.0000 0.59290  0.03720  0.65190  Biso   1.000  N
  N87      1.0000 0.87570  0.89220  0.82170  Biso   1.000  N
  N88      1.0000 0.62180  0.14470  0.37590  Biso   1.000  N
  N89      1.0000 0.62200  0.14880  0.83240  Biso   1.000  N
  N90      1.0000 0.87990  0.02320  0.67140  Biso   1.000  N
  N91      1.0000 0.61510  0.16510  0.32550  Biso   1.000  N
  N92      1.0000 0.61710  0.16470  0.87230  Biso   1.000  N
  N93      1.0000 0.86950  0.03270  0.61850  Biso   1.000  N
  N94      1.0000 0.64110  0.27970  0.19660  Biso   1.000  N
  N95      1.0000 0.64140  0.71510  0.54860  Biso   1.000  N
  N96      1.0000 0.88250  0.87220  0.97380  Biso   1.000  N
  O57      1.0000 0.63640  0.87850  0.61590  Biso   1.000  O
  O58      1.0000 0.92190  0.01140  0.94340  Biso   1.000  O
  O59      1.0000 0.65360  0.05020  0.63610  Biso   1.000  O
  O60      1.0000 0.92490  0.19110  0.94960  Biso   1.000  O
  O61      1.0000 0.83570  0.01970  0.85660  Biso   1.000  O
  O62      1.0000 0.07980  0.26810  0.06750  Biso   1.000  O
  O63      1.0000 0.70720  0.65250  0.69190  Biso   1.000  O
  O64      1.0000 0.02960  0.37490  0.02590  Biso   1.000  O
