data_image0
_cell_length_a       29.881
_cell_length_b       29.881
_cell_length_c       29.881
_cell_angle_alpha    90
_cell_angle_beta     90
_cell_angle_gamma    90

_symmetry_space_group_name_H-M    "P 1"
_symmetry_int_tables_number       1

loop_
  _symmetry_equiv_pos_as_xyz
  'x, y, z'

loop_
  _atom_site_label
  _atom_site_occupancy
  _atom_site_fract_x
  _atom_site_fract_y
  _atom_site_fract_z
  _atom_site_thermal_displace_type
  _atom_site_B_iso_or_equiv
  _atom_site_type_symbol
  Er1      1.0000 0.24316  0.18123  0.14139  Biso   1.000  Er
  O1       1.0000 0.31556  0.20182  0.15652  Biso   1.000  O
  O2       1.0000 0.31787  0.24746  0.21811  Biso   1.000  O
  O3       1.0000 0.64100  0.25869  0.89420  Biso   1.000  O
  O4       1.0000 0.69875  0.29889  0.91967  Biso   1.000  O
  O5       1.0000 0.24750  0.17303  0.22105  Biso   1.000  O
  H1       1.0000 0.27370  0.16200  0.22980  Biso   1.000  H
  N1       1.0000 0.60501  0.24403  0.18525  Biso   1.000  N
  C1       1.0000 0.33628  0.22670  0.18531  Biso   1.000  C
  C2       1.0000 0.38596  0.23000  0.17903  Biso   1.000  C
  C3       1.0000 0.40616  0.21330  0.14008  Biso   1.000  C
  H2       1.0000 0.38890  0.19860  0.11880  Biso   1.000  H
  C4       1.0000 0.41357  0.24970  0.21113  Biso   1.000  C
  H3       1.0000 0.40070  0.25930  0.23780  Biso   1.000  H
  C5       1.0000 0.45209  0.21850  0.13311  Biso   1.000  C
  H4       1.0000 0.46470  0.20780  0.10670  Biso   1.000  H
  C6       1.0000 0.45908  0.25560  0.20522  Biso   1.000  C
  H5       1.0000 0.47620  0.26970  0.22700  Biso   1.000  H
  C7       1.0000 0.47953  0.23940  0.16457  Biso   1.000  C
  C8       1.0000 0.56083  0.24130  0.19107  Biso   1.000  C
  H6       1.0000 0.55030  0.23660  0.22000  Biso   1.000  H
  C9       1.0000 0.52887  0.24481  0.15652  Biso   1.000  C
  C10      1.0000 0.54512  0.25245  0.11384  Biso   1.000  C
  H7       1.0000 0.52520  0.25540  0.09010  Biso   1.000  H
  C11      1.0000 0.59190  0.25587  0.10589  Biso   1.000  C
  C12      1.0000 0.61960  0.25050  0.14276  Biso   1.000  C
  H8       1.0000 0.65030  0.25140  0.13800  Biso   1.000  H
  C13      1.0000 0.61008  0.26080  0.05978  Biso   1.000  C
  C14      1.0000 0.58807  0.24350  0.02251  Biso   1.000  C
  H9       1.0000 0.56170  0.22740  0.02650  Biso   1.000  H
  C15      1.0000 0.65052  0.28310  0.05184  Biso   1.000  C
  H10      1.0000 0.66650  0.29430  0.07610  Biso   1.000  H
  C16      1.0000 0.60462  0.24980  0.97960  Biso   1.000  C
  H11      1.0000 0.58870  0.23880  0.95520  Biso   1.000  H
  C17      1.0000 0.66757  0.28910  0.00923  Biso   1.000  C
  H12      1.0000 0.69440  0.30440  0.00530  Biso   1.000  H
  C18      1.0000 0.64509  0.27250  0.97256  Biso   1.000  C
  C19      1.0000 0.66282  0.27707  0.92477  Biso   1.000  C
  Er2      1.0000 0.25684  0.81877  0.64139  Biso   1.000  Er
  O6       1.0000 0.18444  0.79818  0.65652  Biso   1.000  O
  O7       1.0000 0.18213  0.75254  0.71811  Biso   1.000  O
  O8       1.0000 0.85900  0.74131  0.39420  Biso   1.000  O
  O9       1.0000 0.80125  0.70111  0.41967  Biso   1.000  O
  O10      1.0000 0.25250  0.82697  0.72105  Biso   1.000  O
  H13      1.0000 0.22630  0.83800  0.72980  Biso   1.000  H
  N2       1.0000 0.89499  0.75597  0.68525  Biso   1.000  N
  C20      1.0000 0.16372  0.77330  0.68531  Biso   1.000  C
  C21      1.0000 0.11404  0.77000  0.67903  Biso   1.000  C
  C22      1.0000 0.09384  0.78670  0.64008  Biso   1.000  C
  H14      1.0000 0.11110  0.80140  0.61880  Biso   1.000  H
  C23      1.0000 0.08643  0.75030  0.71113  Biso   1.000  C
  H15      1.0000 0.09930  0.74070  0.73780  Biso   1.000  H
  C24      1.0000 0.04791  0.78150  0.63311  Biso   1.000  C
  H16      1.0000 0.03530  0.79220  0.60670  Biso   1.000  H
  C25      1.0000 0.04092  0.74440  0.70522  Biso   1.000  C
  H17      1.0000 0.02380  0.73030  0.72700  Biso   1.000  H
  C26      1.0000 0.02047  0.76060  0.66457  Biso   1.000  C
  C27      1.0000 0.93917  0.75870  0.69107  Biso   1.000  C
  H18      1.0000 0.94970  0.76340  0.72000  Biso   1.000  H
  C28      1.0000 0.97113  0.75519  0.65652  Biso   1.000  C
  C29      1.0000 0.95488  0.74755  0.61384  Biso   1.000  C
  H19      1.0000 0.97480  0.74460  0.59010  Biso   1.000  H
  C30      1.0000 0.90810  0.74413  0.60589  Biso   1.000  C
  C31      1.0000 0.88040  0.74950  0.64276  Biso   1.000  C
  H20      1.0000 0.84970  0.74860  0.63800  Biso   1.000  H
  C32      1.0000 0.88992  0.73920  0.55978  Biso   1.000  C
  C33      1.0000 0.91193  0.75650  0.52251  Biso   1.000  C
  H21      1.0000 0.93830  0.77260  0.52650  Biso   1.000  H
  C34      1.0000 0.84948  0.71690  0.55184  Biso   1.000  C
  H22      1.0000 0.83350  0.70570  0.57610  Biso   1.000  H
  C35      1.0000 0.89538  0.75020  0.47960  Biso   1.000  C
  H23      1.0000 0.91130  0.76120  0.45520  Biso   1.000  H
  C36      1.0000 0.83243  0.71090  0.50923  Biso   1.000  C
  H24      1.0000 0.80560  0.69560  0.50530  Biso   1.000  H
  C37      1.0000 0.85491  0.72750  0.47256  Biso   1.000  C
  C38      1.0000 0.83718  0.72293  0.42477  Biso   1.000  C
  Er3      1.0000 0.75684  0.68123  0.35861  Biso   1.000  Er
  O11      1.0000 0.68444  0.70182  0.34348  Biso   1.000  O
  O12      1.0000 0.68213  0.74746  0.28189  Biso   1.000  O
  O13      1.0000 0.35900  0.75869  0.60580  Biso   1.000  O
  O14      1.0000 0.30125  0.79889  0.58033  Biso   1.000  O
  O15      1.0000 0.75250  0.67303  0.27895  Biso   1.000  O
  H25      1.0000 0.72630  0.66200  0.27020  Biso   1.000  H
  N3       1.0000 0.39499  0.74403  0.31475  Biso   1.000  N
  C39      1.0000 0.66372  0.72670  0.31469  Biso   1.000  C
  C40      1.0000 0.61404  0.73000  0.32097  Biso   1.000  C
  C41      1.0000 0.59384  0.71330  0.35992  Biso   1.000  C
  H26      1.0000 0.61110  0.69860  0.38120  Biso   1.000  H
  C42      1.0000 0.58643  0.74970  0.28887  Biso   1.000  C
  H27      1.0000 0.59930  0.75930  0.26220  Biso   1.000  H
  C43      1.0000 0.54791  0.71850  0.36689  Biso   1.000  C
  H28      1.0000 0.53530  0.70780  0.39330  Biso   1.000  H
  C44      1.0000 0.54092  0.75560  0.29478  Biso   1.000  C
  H29      1.0000 0.52380  0.76970  0.27300  Biso   1.000  H
  C45      1.0000 0.52047  0.73940  0.33543  Biso   1.000  C
  C46      1.0000 0.43917  0.74130  0.30893  Biso   1.000  C
  H30      1.0000 0.44970  0.73660  0.28000  Biso   1.000  H
  C47      1.0000 0.47113  0.74481  0.34348  Biso   1.000  C
  C48      1.0000 0.45488  0.75245  0.38616  Biso   1.000  C
  H31      1.0000 0.47480  0.75540  0.40990  Biso   1.000  H
  C49      1.0000 0.40810  0.75587  0.39411  Biso   1.000  C
  C50      1.0000 0.38040  0.75050  0.35724  Biso   1.000  C
  H32      1.0000 0.34970  0.75140  0.36200  Biso   1.000  H
  C51      1.0000 0.38992  0.76080  0.44022  Biso   1.000  C
  C52      1.0000 0.41193  0.74350  0.47749  Biso   1.000  C
  H33      1.0000 0.43830  0.72740  0.47350  Biso   1.000  H
  C53      1.0000 0.34948  0.78310  0.44816  Biso   1.000  C
  H34      1.0000 0.33350  0.79430  0.42390  Biso   1.000  H
  C54      1.0000 0.39538  0.74980  0.52040  Biso   1.000  C
  H35      1.0000 0.41130  0.73880  0.54480  Biso   1.000  H
  C55      1.0000 0.33243  0.78910  0.49077  Biso   1.000  C
  H36      1.0000 0.30560  0.80440  0.49470  Biso   1.000  H
  C56      1.0000 0.35491  0.77250  0.52744  Biso   1.000  C
  C57      1.0000 0.33718  0.77707  0.57523  Biso   1.000  C
  Er4      1.0000 0.74316  0.31877  0.85861  Biso   1.000  Er
  O16      1.0000 0.81556  0.29818  0.84348  Biso   1.000  O
  O17      1.0000 0.81787  0.25254  0.78189  Biso   1.000  O
  O18      1.0000 0.14100  0.24131  0.10580  Biso   1.000  O
  O19      1.0000 0.19875  0.20111  0.08033  Biso   1.000  O
  O20      1.0000 0.74750  0.32697  0.77895  Biso   1.000  O
  H37      1.0000 0.77370  0.33800  0.77020  Biso   1.000  H
  N4       1.0000 0.10501  0.25597  0.81475  Biso   1.000  N
  C58      1.0000 0.83628  0.27330  0.81469  Biso   1.000  C
  C59      1.0000 0.88596  0.27000  0.82097  Biso   1.000  C
  C60      1.0000 0.90616  0.28670  0.85992  Biso   1.000  C
  H38      1.0000 0.88890  0.30140  0.88120  Biso   1.000  H
  C61      1.0000 0.91357  0.25030  0.78887  Biso   1.000  C
  H39      1.0000 0.90070  0.24070  0.76220  Biso   1.000  H
  C62      1.0000 0.95209  0.28150  0.86689  Biso   1.000  C
  H40      1.0000 0.96470  0.29220  0.89330  Biso   1.000  H
  C63      1.0000 0.95908  0.24440  0.79478  Biso   1.000  C
  H41      1.0000 0.97620  0.23030  0.77300  Biso   1.000  H
  C64      1.0000 0.97953  0.26060  0.83543  Biso   1.000  C
  C65      1.0000 0.06083  0.25870  0.80893  Biso   1.000  C
  H42      1.0000 0.05030  0.26340  0.78000  Biso   1.000  H
  C66      1.0000 0.02887  0.25519  0.84348  Biso   1.000  C
  C67      1.0000 0.04512  0.24755  0.88616  Biso   1.000  C
  H43      1.0000 0.02520  0.24460  0.90990  Biso   1.000  H
  C68      1.0000 0.09190  0.24413  0.89411  Biso   1.000  C
  C69      1.0000 0.11960  0.24950  0.85724  Biso   1.000  C
  H44      1.0000 0.15030  0.24860  0.86200  Biso   1.000  H
  C70      1.0000 0.11008  0.23920  0.94022  Biso   1.000  C
  C71      1.0000 0.08807  0.25650  0.97749  Biso   1.000  C
  H45      1.0000 0.06170  0.27260  0.97350  Biso   1.000  H
  C72      1.0000 0.15052  0.21690  0.94816  Biso   1.000  C
  H46      1.0000 0.16650  0.20570  0.92390  Biso   1.000  H
  C73      1.0000 0.10462  0.25020  0.02040  Biso   1.000  C
  H47      1.0000 0.08870  0.26120  0.04480  Biso   1.000  H
  C74      1.0000 0.16757  0.21090  0.99077  Biso   1.000  C
  H48      1.0000 0.19440  0.19560  0.99470  Biso   1.000  H
  C75      1.0000 0.14509  0.22750  0.02744  Biso   1.000  C
  C76      1.0000 0.16282  0.22293  0.07523  Biso   1.000  C
  Er5      1.0000 0.14139  0.24316  0.18123  Biso   1.000  Er
  O21      1.0000 0.15652  0.31556  0.20182  Biso   1.000  O
  O22      1.0000 0.21811  0.31787  0.24746  Biso   1.000  O
  O23      1.0000 0.89420  0.64100  0.25869  Biso   1.000  O
  O24      1.0000 0.91967  0.69875  0.29889  Biso   1.000  O
  O25      1.0000 0.22105  0.24750  0.17303  Biso   1.000  O
  H49      1.0000 0.22980  0.27370  0.16200  Biso   1.000  H
  N5       1.0000 0.18525  0.60501  0.24403  Biso   1.000  N
  C77      1.0000 0.18531  0.33628  0.22670  Biso   1.000  C
  C78      1.0000 0.17903  0.38596  0.23000  Biso   1.000  C
  C79      1.0000 0.14008  0.40616  0.21330  Biso   1.000  C
  H50      1.0000 0.11880  0.38890  0.19860  Biso   1.000  H
  C80      1.0000 0.21113  0.41357  0.24970  Biso   1.000  C
  H51      1.0000 0.23780  0.40070  0.25930  Biso   1.000  H
  C81      1.0000 0.13311  0.45209  0.21850  Biso   1.000  C
  H52      1.0000 0.10670  0.46470  0.20780  Biso   1.000  H
  C82      1.0000 0.20522  0.45908  0.25560  Biso   1.000  C
  H53      1.0000 0.22700  0.47620  0.26970  Biso   1.000  H
  C83      1.0000 0.16457  0.47953  0.23940  Biso   1.000  C
  C84      1.0000 0.19107  0.56083  0.24130  Biso   1.000  C
  H54      1.0000 0.22000  0.55030  0.23660  Biso   1.000  H
  C85      1.0000 0.15652  0.52887  0.24481  Biso   1.000  C
  C86      1.0000 0.11384  0.54512  0.25245  Biso   1.000  C
  H55      1.0000 0.09010  0.52520  0.25540  Biso   1.000  H
  C87      1.0000 0.10589  0.59190  0.25587  Biso   1.000  C
  C88      1.0000 0.14276  0.61960  0.25050  Biso   1.000  C
  H56      1.0000 0.13800  0.65030  0.25140  Biso   1.000  H
  C89      1.0000 0.05978  0.61008  0.26080  Biso   1.000  C
  C90      1.0000 0.02251  0.58807  0.24350  Biso   1.000  C
  H57      1.0000 0.02650  0.56170  0.22740  Biso   1.000  H
  C91      1.0000 0.05184  0.65052  0.28310  Biso   1.000  C
  H58      1.0000 0.07610  0.66650  0.29430  Biso   1.000  H
  C92      1.0000 0.97960  0.60462  0.24980  Biso   1.000  C
  H59      1.0000 0.95520  0.58870  0.23880  Biso   1.000  H
  C93      1.0000 0.00923  0.66757  0.28910  Biso   1.000  C
  H60      1.0000 0.00530  0.69440  0.30440  Biso   1.000  H
  C94      1.0000 0.97256  0.64509  0.27250  Biso   1.000  C
  C95      1.0000 0.92477  0.66282  0.27707  Biso   1.000  C
  Er6      1.0000 0.64139  0.25684  0.81877  Biso   1.000  Er
  O26      1.0000 0.65652  0.18444  0.79818  Biso   1.000  O
  O27      1.0000 0.71811  0.18213  0.75254  Biso   1.000  O
  O28      1.0000 0.39420  0.85900  0.74131  Biso   1.000  O
  O29      1.0000 0.41967  0.80125  0.70111  Biso   1.000  O
  O30      1.0000 0.72105  0.25250  0.82697  Biso   1.000  O
  H61      1.0000 0.72980  0.22630  0.83800  Biso   1.000  H
  N6       1.0000 0.68525  0.89499  0.75597  Biso   1.000  N
  C96      1.0000 0.68531  0.16372  0.77330  Biso   1.000  C
  C97      1.0000 0.67903  0.11404  0.77000  Biso   1.000  C
  C98      1.0000 0.64008  0.09384  0.78670  Biso   1.000  C
  H62      1.0000 0.61880  0.11110  0.80140  Biso   1.000  H
  C99      1.0000 0.71113  0.08643  0.75030  Biso   1.000  C
  H63      1.0000 0.73780  0.09930  0.74070  Biso   1.000  H
  C100     1.0000 0.63311  0.04791  0.78150  Biso   1.000  C
  H64      1.0000 0.60670  0.03530  0.79220  Biso   1.000  H
  C101     1.0000 0.70522  0.04092  0.74440  Biso   1.000  C
  H65      1.0000 0.72700  0.02380  0.73030  Biso   1.000  H
  C102     1.0000 0.66457  0.02047  0.76060  Biso   1.000  C
  C103     1.0000 0.69107  0.93917  0.75870  Biso   1.000  C
  H66      1.0000 0.72000  0.94970  0.76340  Biso   1.000  H
  C104     1.0000 0.65652  0.97113  0.75519  Biso   1.000  C
  C105     1.0000 0.61384  0.95488  0.74755  Biso   1.000  C
  H67      1.0000 0.59010  0.97480  0.74460  Biso   1.000  H
  C106     1.0000 0.60589  0.90810  0.74413  Biso   1.000  C
  C107     1.0000 0.64276  0.88040  0.74950  Biso   1.000  C
  H68      1.0000 0.63800  0.84970  0.74860  Biso   1.000  H
  C108     1.0000 0.55978  0.88992  0.73920  Biso   1.000  C
  C109     1.0000 0.52251  0.91193  0.75650  Biso   1.000  C
  H69      1.0000 0.52650  0.93830  0.77260  Biso   1.000  H
  C110     1.0000 0.55184  0.84948  0.71690  Biso   1.000  C
  H70      1.0000 0.57610  0.83350  0.70570  Biso   1.000  H
  C111     1.0000 0.47960  0.89538  0.75020  Biso   1.000  C
  H71      1.0000 0.45520  0.91130  0.76120  Biso   1.000  H
  C112     1.0000 0.50923  0.83243  0.71090  Biso   1.000  C
  H72      1.0000 0.50530  0.80560  0.69560  Biso   1.000  H
  C113     1.0000 0.47256  0.85491  0.72750  Biso   1.000  C
  C114     1.0000 0.42477  0.83718  0.72293  Biso   1.000  C
  Er7      1.0000 0.35861  0.75684  0.68123  Biso   1.000  Er
  O31      1.0000 0.34348  0.68444  0.70182  Biso   1.000  O
  O32      1.0000 0.28189  0.68213  0.74746  Biso   1.000  O
  O33      1.0000 0.60580  0.35900  0.75869  Biso   1.000  O
  O34      1.0000 0.58033  0.30125  0.79889  Biso   1.000  O
  O35      1.0000 0.27895  0.75250  0.67303  Biso   1.000  O
  H73      1.0000 0.27020  0.72630  0.66200  Biso   1.000  H
  N7       1.0000 0.31475  0.39499  0.74403  Biso   1.000  N
  C115     1.0000 0.31469  0.66372  0.72670  Biso   1.000  C
  C116     1.0000 0.32097  0.61404  0.73000  Biso   1.000  C
  C117     1.0000 0.35992  0.59384  0.71330  Biso   1.000  C
  H74      1.0000 0.38120  0.61110  0.69860  Biso   1.000  H
  C118     1.0000 0.28887  0.58643  0.74970  Biso   1.000  C
  H75      1.0000 0.26220  0.59930  0.75930  Biso   1.000  H
  C119     1.0000 0.36689  0.54791  0.71850  Biso   1.000  C
  H76      1.0000 0.39330  0.53530  0.70780  Biso   1.000  H
  C120     1.0000 0.29478  0.54092  0.75560  Biso   1.000  C
  H77      1.0000 0.27300  0.52380  0.76970  Biso   1.000  H
  C121     1.0000 0.33543  0.52047  0.73940  Biso   1.000  C
  C122     1.0000 0.30893  0.43917  0.74130  Biso   1.000  C
  H78      1.0000 0.28000  0.44970  0.73660  Biso   1.000  H
  C123     1.0000 0.34348  0.47113  0.74481  Biso   1.000  C
  C124     1.0000 0.38616  0.45488  0.75245  Biso   1.000  C
  H79      1.0000 0.40990  0.47480  0.75540  Biso   1.000  H
  C125     1.0000 0.39411  0.40810  0.75587  Biso   1.000  C
  C126     1.0000 0.35724  0.38040  0.75050  Biso   1.000  C
  H80      1.0000 0.36200  0.34970  0.75140  Biso   1.000  H
  C127     1.0000 0.44022  0.38992  0.76080  Biso   1.000  C
  C128     1.0000 0.47749  0.41193  0.74350  Biso   1.000  C
  H81      1.0000 0.47350  0.43830  0.72740  Biso   1.000  H
  C129     1.0000 0.44816  0.34948  0.78310  Biso   1.000  C
  H82      1.0000 0.42390  0.33350  0.79430  Biso   1.000  H
  C130     1.0000 0.52040  0.39538  0.74980  Biso   1.000  C
  H83      1.0000 0.54480  0.41130  0.73880  Biso   1.000  H
  C131     1.0000 0.49077  0.33243  0.78910  Biso   1.000  C
  H84      1.0000 0.49470  0.30560  0.80440  Biso   1.000  H
  C132     1.0000 0.52744  0.35491  0.77250  Biso   1.000  C
  C133     1.0000 0.57523  0.33718  0.77707  Biso   1.000  C
  Er8      1.0000 0.85861  0.74316  0.31877  Biso   1.000  Er
  O36      1.0000 0.84348  0.81556  0.29818  Biso   1.000  O
  O37      1.0000 0.78189  0.81787  0.25254  Biso   1.000  O
  O38      1.0000 0.10580  0.14100  0.24131  Biso   1.000  O
  O39      1.0000 0.08033  0.19875  0.20111  Biso   1.000  O
  O40      1.0000 0.77895  0.74750  0.32697  Biso   1.000  O
  H85      1.0000 0.77020  0.77370  0.33800  Biso   1.000  H
  N8       1.0000 0.81475  0.10501  0.25597  Biso   1.000  N
  C134     1.0000 0.81469  0.83628  0.27330  Biso   1.000  C
  C135     1.0000 0.82097  0.88596  0.27000  Biso   1.000  C
  C136     1.0000 0.85992  0.90616  0.28670  Biso   1.000  C
  H86      1.0000 0.88120  0.88890  0.30140  Biso   1.000  H
  C137     1.0000 0.78887  0.91357  0.25030  Biso   1.000  C
  H87      1.0000 0.76220  0.90070  0.24070  Biso   1.000  H
  C138     1.0000 0.86689  0.95209  0.28150  Biso   1.000  C
  H88      1.0000 0.89330  0.96470  0.29220  Biso   1.000  H
  C139     1.0000 0.79478  0.95908  0.24440  Biso   1.000  C
  H89      1.0000 0.77300  0.97620  0.23030  Biso   1.000  H
  C140     1.0000 0.83543  0.97953  0.26060  Biso   1.000  C
  C141     1.0000 0.80893  0.06083  0.25870  Biso   1.000  C
  H90      1.0000 0.78000  0.05030  0.26340  Biso   1.000  H
  C142     1.0000 0.84348  0.02887  0.25519  Biso   1.000  C
  C143     1.0000 0.88616  0.04512  0.24755  Biso   1.000  C
  H91      1.0000 0.90990  0.02520  0.24460  Biso   1.000  H
  C144     1.0000 0.89411  0.09190  0.24413  Biso   1.000  C
  C145     1.0000 0.85724  0.11960  0.24950  Biso   1.000  C
  H92      1.0000 0.86200  0.15030  0.24860  Biso   1.000  H
  C146     1.0000 0.94022  0.11008  0.23920  Biso   1.000  C
  C147     1.0000 0.97749  0.08807  0.25650  Biso   1.000  C
  H93      1.0000 0.97350  0.06170  0.27260  Biso   1.000  H
  C148     1.0000 0.94816  0.15052  0.21690  Biso   1.000  C
  H94      1.0000 0.92390  0.16650  0.20570  Biso   1.000  H
  C149     1.0000 0.02040  0.10462  0.25020  Biso   1.000  C
  H95      1.0000 0.04480  0.08870  0.26120  Biso   1.000  H
  C150     1.0000 0.99077  0.16757  0.21090  Biso   1.000  C
  H96      1.0000 0.99470  0.19440  0.19560  Biso   1.000  H
  C151     1.0000 0.02744  0.14509  0.22750  Biso   1.000  C
  C152     1.0000 0.07523  0.16282  0.22293  Biso   1.000  C
  Er9      1.0000 0.18123  0.14139  0.24316  Biso   1.000  Er
  O41      1.0000 0.20182  0.15652  0.31556  Biso   1.000  O
  O42      1.0000 0.24746  0.21811  0.31787  Biso   1.000  O
  O43      1.0000 0.25869  0.89420  0.64100  Biso   1.000  O
  O44      1.0000 0.29889  0.91967  0.69875  Biso   1.000  O
  O45      1.0000 0.17303  0.22105  0.24750  Biso   1.000  O
  H97      1.0000 0.16200  0.22980  0.27370  Biso   1.000  H
  N9       1.0000 0.24403  0.18525  0.60501  Biso   1.000  N
  C153     1.0000 0.22670  0.18531  0.33628  Biso   1.000  C
  C154     1.0000 0.23000  0.17903  0.38596  Biso   1.000  C
  C155     1.0000 0.21330  0.14008  0.40616  Biso   1.000  C
  H98      1.0000 0.19860  0.11880  0.38890  Biso   1.000  H
  C156     1.0000 0.24970  0.21113  0.41357  Biso   1.000  C
  H99      1.0000 0.25930  0.23780  0.40070  Biso   1.000  H
  C157     1.0000 0.21850  0.13311  0.45209  Biso   1.000  C
  H100     1.0000 0.20780  0.10670  0.46470  Biso   1.000  H
  C158     1.0000 0.25560  0.20522  0.45908  Biso   1.000  C
  H101     1.0000 0.26970  0.22700  0.47620  Biso   1.000  H
  C159     1.0000 0.23940  0.16457  0.47953  Biso   1.000  C
  C160     1.0000 0.24130  0.19107  0.56083  Biso   1.000  C
  H102     1.0000 0.23660  0.22000  0.55030  Biso   1.000  H
  C161     1.0000 0.24481  0.15652  0.52887  Biso   1.000  C
  C162     1.0000 0.25245  0.11384  0.54512  Biso   1.000  C
  H103     1.0000 0.25540  0.09010  0.52520  Biso   1.000  H
  C163     1.0000 0.25587  0.10589  0.59190  Biso   1.000  C
  C164     1.0000 0.25050  0.14276  0.61960  Biso   1.000  C
  H104     1.0000 0.25140  0.13800  0.65030  Biso   1.000  H
  C165     1.0000 0.26080  0.05978  0.61008  Biso   1.000  C
  C166     1.0000 0.24350  0.02251  0.58807  Biso   1.000  C
  H105     1.0000 0.22740  0.02650  0.56170  Biso   1.000  H
  C167     1.0000 0.28310  0.05184  0.65052  Biso   1.000  C
  H106     1.0000 0.29430  0.07610  0.66650  Biso   1.000  H
  C168     1.0000 0.24980  0.97960  0.60462  Biso   1.000  C
  H107     1.0000 0.23880  0.95520  0.58870  Biso   1.000  H
  C169     1.0000 0.28910  0.00923  0.66757  Biso   1.000  C
  H108     1.0000 0.30440  0.00530  0.69440  Biso   1.000  H
  C170     1.0000 0.27250  0.97256  0.64509  Biso   1.000  C
  C171     1.0000 0.27707  0.92477  0.66282  Biso   1.000  C
  Er10     1.0000 0.81877  0.64139  0.25684  Biso   1.000  Er
  O46      1.0000 0.79818  0.65652  0.18444  Biso   1.000  O
  O47      1.0000 0.75254  0.71811  0.18213  Biso   1.000  O
  O48      1.0000 0.74131  0.39420  0.85900  Biso   1.000  O
  O49      1.0000 0.70111  0.41967  0.80125  Biso   1.000  O
  O50      1.0000 0.82697  0.72105  0.25250  Biso   1.000  O
  H109     1.0000 0.83800  0.72980  0.22630  Biso   1.000  H
  N10      1.0000 0.75597  0.68525  0.89499  Biso   1.000  N
  C172     1.0000 0.77330  0.68531  0.16372  Biso   1.000  C
  C173     1.0000 0.77000  0.67903  0.11404  Biso   1.000  C
  C174     1.0000 0.78670  0.64008  0.09384  Biso   1.000  C
  H110     1.0000 0.80140  0.61880  0.11110  Biso   1.000  H
  C175     1.0000 0.75030  0.71113  0.08643  Biso   1.000  C
  H111     1.0000 0.74070  0.73780  0.09930  Biso   1.000  H
  C176     1.0000 0.78150  0.63311  0.04791  Biso   1.000  C
  H112     1.0000 0.79220  0.60670  0.03530  Biso   1.000  H
  C177     1.0000 0.74440  0.70522  0.04092  Biso   1.000  C
  H113     1.0000 0.73030  0.72700  0.02380  Biso   1.000  H
  C178     1.0000 0.76060  0.66457  0.02047  Biso   1.000  C
  C179     1.0000 0.75870  0.69107  0.93917  Biso   1.000  C
  H114     1.0000 0.76340  0.72000  0.94970  Biso   1.000  H
  C180     1.0000 0.75519  0.65652  0.97113  Biso   1.000  C
  C181     1.0000 0.74755  0.61384  0.95488  Biso   1.000  C
  H115     1.0000 0.74460  0.59010  0.97480  Biso   1.000  H
  C182     1.0000 0.74413  0.60589  0.90810  Biso   1.000  C
  C183     1.0000 0.74950  0.64276  0.88040  Biso   1.000  C
  H116     1.0000 0.74860  0.63800  0.84970  Biso   1.000  H
  C184     1.0000 0.73920  0.55978  0.88992  Biso   1.000  C
  C185     1.0000 0.75650  0.52251  0.91193  Biso   1.000  C
  H117     1.0000 0.77260  0.52650  0.93830  Biso   1.000  H
  C186     1.0000 0.71690  0.55184  0.84948  Biso   1.000  C
  H118     1.0000 0.70570  0.57610  0.83350  Biso   1.000  H
  C187     1.0000 0.75020  0.47960  0.89538  Biso   1.000  C
  H119     1.0000 0.76120  0.45520  0.91130  Biso   1.000  H
  C188     1.0000 0.71090  0.50923  0.83243  Biso   1.000  C
  H120     1.0000 0.69560  0.50530  0.80560  Biso   1.000  H
  C189     1.0000 0.72750  0.47256  0.85491  Biso   1.000  C
  C190     1.0000 0.72293  0.42477  0.83718  Biso   1.000  C
  Er11     1.0000 0.68123  0.35861  0.75684  Biso   1.000  Er
  O51      1.0000 0.70182  0.34348  0.68444  Biso   1.000  O
  O52      1.0000 0.74746  0.28189  0.68213  Biso   1.000  O
  O53      1.0000 0.75869  0.60580  0.35900  Biso   1.000  O
  O54      1.0000 0.79889  0.58033  0.30125  Biso   1.000  O
  O55      1.0000 0.67303  0.27895  0.75250  Biso   1.000  O
  H121     1.0000 0.66200  0.27020  0.72630  Biso   1.000  H
  N11      1.0000 0.74403  0.31475  0.39499  Biso   1.000  N
  C191     1.0000 0.72670  0.31469  0.66372  Biso   1.000  C
  C192     1.0000 0.73000  0.32097  0.61404  Biso   1.000  C
  C193     1.0000 0.71330  0.35992  0.59384  Biso   1.000  C
  H122     1.0000 0.69860  0.38120  0.61110  Biso   1.000  H
  C194     1.0000 0.74970  0.28887  0.58643  Biso   1.000  C
  H123     1.0000 0.75930  0.26220  0.59930  Biso   1.000  H
  C195     1.0000 0.71850  0.36689  0.54791  Biso   1.000  C
  H124     1.0000 0.70780  0.39330  0.53530  Biso   1.000  H
  C196     1.0000 0.75560  0.29478  0.54092  Biso   1.000  C
  H125     1.0000 0.76970  0.27300  0.52380  Biso   1.000  H
  C197     1.0000 0.73940  0.33543  0.52047  Biso   1.000  C
  C198     1.0000 0.74130  0.30893  0.43917  Biso   1.000  C
  H126     1.0000 0.73660  0.28000  0.44970  Biso   1.000  H
  C199     1.0000 0.74481  0.34348  0.47113  Biso   1.000  C
  C200     1.0000 0.75245  0.38616  0.45488  Biso   1.000  C
  H127     1.0000 0.75540  0.40990  0.47480  Biso   1.000  H
  C201     1.0000 0.75587  0.39411  0.40810  Biso   1.000  C
  C202     1.0000 0.75050  0.35724  0.38040  Biso   1.000  C
  H128     1.0000 0.75140  0.36200  0.34970  Biso   1.000  H
  C203     1.0000 0.76080  0.44022  0.38992  Biso   1.000  C
  C204     1.0000 0.74350  0.47749  0.41193  Biso   1.000  C
  H129     1.0000 0.72740  0.47350  0.43830  Biso   1.000  H
  C205     1.0000 0.78310  0.44816  0.34948  Biso   1.000  C
  H130     1.0000 0.79430  0.42390  0.33350  Biso   1.000  H
  C206     1.0000 0.74980  0.52040  0.39538  Biso   1.000  C
  H131     1.0000 0.73880  0.54480  0.41130  Biso   1.000  H
  C207     1.0000 0.78910  0.49077  0.33243  Biso   1.000  C
  H132     1.0000 0.80440  0.49470  0.30560  Biso   1.000  H
  C208     1.0000 0.77250  0.52744  0.35491  Biso   1.000  C
  C209     1.0000 0.77707  0.57523  0.33718  Biso   1.000  C
  Er12     1.0000 0.31877  0.85861  0.74316  Biso   1.000  Er
  O56      1.0000 0.29818  0.84348  0.81556  Biso   1.000  O
  O57      1.0000 0.25254  0.78189  0.81787  Biso   1.000  O
  O58      1.0000 0.24131  0.10580  0.14100  Biso   1.000  O
  O59      1.0000 0.20111  0.08033  0.19875  Biso   1.000  O
  O60      1.0000 0.32697  0.77895  0.74750  Biso   1.000  O
  H133     1.0000 0.33800  0.77020  0.77370  Biso   1.000  H
  N12      1.0000 0.25597  0.81475  0.10501  Biso   1.000  N
  C210     1.0000 0.27330  0.81469  0.83628  Biso   1.000  C
  C211     1.0000 0.27000  0.82097  0.88596  Biso   1.000  C
  C212     1.0000 0.28670  0.85992  0.90616  Biso   1.000  C
  H134     1.0000 0.30140  0.88120  0.88890  Biso   1.000  H
  C213     1.0000 0.25030  0.78887  0.91357  Biso   1.000  C
  H135     1.0000 0.24070  0.76220  0.90070  Biso   1.000  H
  C214     1.0000 0.28150  0.86689  0.95209  Biso   1.000  C
  H136     1.0000 0.29220  0.89330  0.96470  Biso   1.000  H
  C215     1.0000 0.24440  0.79478  0.95908  Biso   1.000  C
  H137     1.0000 0.23030  0.77300  0.97620  Biso   1.000  H
  C216     1.0000 0.26060  0.83543  0.97953  Biso   1.000  C
  C217     1.0000 0.25870  0.80893  0.06083  Biso   1.000  C
  H138     1.0000 0.26340  0.78000  0.05030  Biso   1.000  H
  C218     1.0000 0.25519  0.84348  0.02887  Biso   1.000  C
  C219     1.0000 0.24755  0.88616  0.04512  Biso   1.000  C
  H139     1.0000 0.24460  0.90990  0.02520  Biso   1.000  H
  C220     1.0000 0.24413  0.89411  0.09190  Biso   1.000  C
  C221     1.0000 0.24950  0.85724  0.11960  Biso   1.000  C
  H140     1.0000 0.24860  0.86200  0.15030  Biso   1.000  H
  C222     1.0000 0.23920  0.94022  0.11008  Biso   1.000  C
  C223     1.0000 0.25650  0.97749  0.08807  Biso   1.000  C
  H141     1.0000 0.27260  0.97350  0.06170  Biso   1.000  H
  C224     1.0000 0.21690  0.94816  0.15052  Biso   1.000  C
  H142     1.0000 0.20570  0.92390  0.16650  Biso   1.000  H
  C225     1.0000 0.25020  0.02040  0.10462  Biso   1.000  C
  H143     1.0000 0.26120  0.04480  0.08870  Biso   1.000  H
  C226     1.0000 0.21090  0.99077  0.16757  Biso   1.000  C
  H144     1.0000 0.19560  0.99470  0.19440  Biso   1.000  H
  C227     1.0000 0.22750  0.02744  0.14509  Biso   1.000  C
  C228     1.0000 0.22293  0.07523  0.16282  Biso   1.000  C
  Er13     1.0000 0.24763  0.24763  0.24763  Biso   1.000  Er
  O61      1.0000 0.17074  0.17074  0.17074  Biso   1.000  O
  H145     1.0000 0.15429  0.15429  0.15429  Biso   1.000  H
  Er14     1.0000 0.25237  0.75237  0.74763  Biso   1.000  Er
  O62      1.0000 0.32926  0.82926  0.67074  Biso   1.000  O
  H146     1.0000 0.34571  0.84571  0.65429  Biso   1.000  H
  Er15     1.0000 0.75237  0.74763  0.25237  Biso   1.000  Er
  O63      1.0000 0.82926  0.67074  0.32926  Biso   1.000  O
  H147     1.0000 0.84571  0.65429  0.34571  Biso   1.000  H
  Er16     1.0000 0.74763  0.25237  0.75237  Biso   1.000  Er
  O64      1.0000 0.67074  0.32926  0.82926  Biso   1.000  O
  H148     1.0000 0.65429  0.34571  0.84571  Biso   1.000  H
  Er17     1.0000 0.75684  0.81877  0.85861  Biso   1.000  Er
  O65      1.0000 0.68444  0.79818  0.84348  Biso   1.000  O
  O66      1.0000 0.68213  0.75254  0.78189  Biso   1.000  O
  O67      1.0000 0.35900  0.74131  0.10580  Biso   1.000  O
  O68      1.0000 0.30125  0.70111  0.08033  Biso   1.000  O
  O69      1.0000 0.75250  0.82697  0.77895  Biso   1.000  O
  H149     1.0000 0.72630  0.83800  0.77020  Biso   1.000  H
  N13      1.0000 0.39499  0.75597  0.81475  Biso   1.000  N
  C229     1.0000 0.66372  0.77330  0.81469  Biso   1.000  C
  C230     1.0000 0.61404  0.77000  0.82097  Biso   1.000  C
  C231     1.0000 0.59384  0.78670  0.85992  Biso   1.000  C
  H150     1.0000 0.61110  0.80140  0.88120  Biso   1.000  H
  C232     1.0000 0.58643  0.75030  0.78887  Biso   1.000  C
  H151     1.0000 0.59930  0.74070  0.76220  Biso   1.000  H
  C233     1.0000 0.54791  0.78150  0.86689  Biso   1.000  C
  H152     1.0000 0.53530  0.79220  0.89330  Biso   1.000  H
  C234     1.0000 0.54092  0.74440  0.79478  Biso   1.000  C
  H153     1.0000 0.52380  0.73030  0.77300  Biso   1.000  H
  C235     1.0000 0.52047  0.76060  0.83543  Biso   1.000  C
  C236     1.0000 0.43917  0.75870  0.80893  Biso   1.000  C
  H154     1.0000 0.44970  0.76340  0.78000  Biso   1.000  H
  C237     1.0000 0.47113  0.75519  0.84348  Biso   1.000  C
  C238     1.0000 0.45488  0.74755  0.88616  Biso   1.000  C
  H155     1.0000 0.47480  0.74460  0.90990  Biso   1.000  H
  C239     1.0000 0.40810  0.74413  0.89411  Biso   1.000  C
  C240     1.0000 0.38040  0.74950  0.85724  Biso   1.000  C
  H156     1.0000 0.34970  0.74860  0.86200  Biso   1.000  H
  C241     1.0000 0.38992  0.73920  0.94022  Biso   1.000  C
  C242     1.0000 0.41193  0.75650  0.97749  Biso   1.000  C
  H157     1.0000 0.43830  0.77260  0.97350  Biso   1.000  H
  C243     1.0000 0.34948  0.71690  0.94816  Biso   1.000  C
  H158     1.0000 0.33350  0.70570  0.92390  Biso   1.000  H
  C244     1.0000 0.39538  0.75020  0.02040  Biso   1.000  C
  H159     1.0000 0.41130  0.76120  0.04480  Biso   1.000  H
  C245     1.0000 0.33243  0.71090  0.99077  Biso   1.000  C
  H160     1.0000 0.30560  0.69560  0.99470  Biso   1.000  H
  C246     1.0000 0.35491  0.72750  0.02744  Biso   1.000  C
  C247     1.0000 0.33718  0.72293  0.07523  Biso   1.000  C
  Er18     1.0000 0.74316  0.18123  0.35861  Biso   1.000  Er
  O70      1.0000 0.81556  0.20182  0.34348  Biso   1.000  O
  O71      1.0000 0.81787  0.24746  0.28189  Biso   1.000  O
  O72      1.0000 0.14100  0.25869  0.60580  Biso   1.000  O
  O73      1.0000 0.19875  0.29889  0.58033  Biso   1.000  O
  O74      1.0000 0.74750  0.17303  0.27895  Biso   1.000  O
  H161     1.0000 0.77370  0.16200  0.27020  Biso   1.000  H
  N14      1.0000 0.10501  0.24403  0.31475  Biso   1.000  N
  C248     1.0000 0.83628  0.22670  0.31469  Biso   1.000  C
  C249     1.0000 0.88596  0.23000  0.32097  Biso   1.000  C
  C250     1.0000 0.90616  0.21330  0.35992  Biso   1.000  C
  H162     1.0000 0.88890  0.19860  0.38120  Biso   1.000  H
  C251     1.0000 0.91357  0.24970  0.28887  Biso   1.000  C
  H163     1.0000 0.90070  0.25930  0.26220  Biso   1.000  H
  C252     1.0000 0.95209  0.21850  0.36689  Biso   1.000  C
  H164     1.0000 0.96470  0.20780  0.39330  Biso   1.000  H
  C253     1.0000 0.95908  0.25560  0.29478  Biso   1.000  C
  H165     1.0000 0.97620  0.26970  0.27300  Biso   1.000  H
  C254     1.0000 0.97953  0.23940  0.33543  Biso   1.000  C
  C255     1.0000 0.06083  0.24130  0.30893  Biso   1.000  C
  H166     1.0000 0.05030  0.23660  0.28000  Biso   1.000  H
  C256     1.0000 0.02887  0.24481  0.34348  Biso   1.000  C
  C257     1.0000 0.04512  0.25245  0.38616  Biso   1.000  C
  H167     1.0000 0.02520  0.25540  0.40990  Biso   1.000  H
  C258     1.0000 0.09190  0.25587  0.39411  Biso   1.000  C
  C259     1.0000 0.11960  0.25050  0.35724  Biso   1.000  C
  H168     1.0000 0.15030  0.25140  0.36200  Biso   1.000  H
  C260     1.0000 0.11008  0.26080  0.44022  Biso   1.000  C
  C261     1.0000 0.08807  0.24350  0.47749  Biso   1.000  C
  H169     1.0000 0.06170  0.22740  0.47350  Biso   1.000  H
  C262     1.0000 0.15052  0.28310  0.44816  Biso   1.000  C
  H170     1.0000 0.16650  0.29430  0.42390  Biso   1.000  H
  C263     1.0000 0.10462  0.24980  0.52040  Biso   1.000  C
  H171     1.0000 0.08870  0.23880  0.54480  Biso   1.000  H
  C264     1.0000 0.16757  0.28910  0.49077  Biso   1.000  C
  H172     1.0000 0.19440  0.30440  0.49470  Biso   1.000  H
  C265     1.0000 0.14509  0.27250  0.52744  Biso   1.000  C
  C266     1.0000 0.16282  0.27707  0.57523  Biso   1.000  C
  Er19     1.0000 0.24316  0.31877  0.64139  Biso   1.000  Er
  O75      1.0000 0.31556  0.29818  0.65652  Biso   1.000  O
  O76      1.0000 0.31787  0.25254  0.71811  Biso   1.000  O
  O77      1.0000 0.64100  0.24131  0.39420  Biso   1.000  O
  O78      1.0000 0.69875  0.20111  0.41967  Biso   1.000  O
  O79      1.0000 0.24750  0.32697  0.72105  Biso   1.000  O
  H173     1.0000 0.27370  0.33800  0.72980  Biso   1.000  H
  N15      1.0000 0.60501  0.25597  0.68525  Biso   1.000  N
  C267     1.0000 0.33628  0.27330  0.68531  Biso   1.000  C
  C268     1.0000 0.38596  0.27000  0.67903  Biso   1.000  C
  C269     1.0000 0.40616  0.28670  0.64008  Biso   1.000  C
  H174     1.0000 0.38890  0.30140  0.61880  Biso   1.000  H
  C270     1.0000 0.41357  0.25030  0.71113  Biso   1.000  C
  H175     1.0000 0.40070  0.24070  0.73780  Biso   1.000  H
  C271     1.0000 0.45209  0.28150  0.63311  Biso   1.000  C
  H176     1.0000 0.46470  0.29220  0.60670  Biso   1.000  H
  C272     1.0000 0.45908  0.24440  0.70522  Biso   1.000  C
  H177     1.0000 0.47620  0.23030  0.72700  Biso   1.000  H
  C273     1.0000 0.47953  0.26060  0.66457  Biso   1.000  C
  C274     1.0000 0.56083  0.25870  0.69107  Biso   1.000  C
  H178     1.0000 0.55030  0.26340  0.72000  Biso   1.000  H
  C275     1.0000 0.52887  0.25519  0.65652  Biso   1.000  C
  C276     1.0000 0.54512  0.24755  0.61384  Biso   1.000  C
  H179     1.0000 0.52520  0.24460  0.59010  Biso   1.000  H
  C277     1.0000 0.59190  0.24413  0.60589  Biso   1.000  C
  C278     1.0000 0.61960  0.24950  0.64276  Biso   1.000  C
  H180     1.0000 0.65030  0.24860  0.63800  Biso   1.000  H
  C279     1.0000 0.61008  0.23920  0.55978  Biso   1.000  C
  C280     1.0000 0.58807  0.25650  0.52251  Biso   1.000  C
  H181     1.0000 0.56170  0.27260  0.52650  Biso   1.000  H
  C281     1.0000 0.65052  0.21690  0.55184  Biso   1.000  C
  H182     1.0000 0.66650  0.20570  0.57610  Biso   1.000  H
  C282     1.0000 0.60462  0.25020  0.47960  Biso   1.000  C
  H183     1.0000 0.58870  0.26120  0.45520  Biso   1.000  H
  C283     1.0000 0.66757  0.21090  0.50923  Biso   1.000  C
  H184     1.0000 0.69440  0.19560  0.50530  Biso   1.000  H
  C284     1.0000 0.64509  0.22750  0.47256  Biso   1.000  C
  C285     1.0000 0.66282  0.22293  0.42477  Biso   1.000  C
  Er20     1.0000 0.25684  0.68123  0.14139  Biso   1.000  Er
  O80      1.0000 0.18444  0.70182  0.15652  Biso   1.000  O
  O81      1.0000 0.18213  0.74746  0.21811  Biso   1.000  O
  O82      1.0000 0.85900  0.75869  0.89420  Biso   1.000  O
  O83      1.0000 0.80125  0.79889  0.91967  Biso   1.000  O
  O84      1.0000 0.25250  0.67303  0.22105  Biso   1.000  O
  H185     1.0000 0.22630  0.66200  0.22980  Biso   1.000  H
  N16      1.0000 0.89499  0.74403  0.18525  Biso   1.000  N
  C286     1.0000 0.16372  0.72670  0.18531  Biso   1.000  C
  C287     1.0000 0.11404  0.73000  0.17903  Biso   1.000  C
  C288     1.0000 0.09384  0.71330  0.14008  Biso   1.000  C
  H186     1.0000 0.11110  0.69860  0.11880  Biso   1.000  H
  C289     1.0000 0.08643  0.74970  0.21113  Biso   1.000  C
  H187     1.0000 0.09930  0.75930  0.23780  Biso   1.000  H
  C290     1.0000 0.04791  0.71850  0.13311  Biso   1.000  C
  H188     1.0000 0.03530  0.70780  0.10670  Biso   1.000  H
  C291     1.0000 0.04092  0.75560  0.20522  Biso   1.000  C
  H189     1.0000 0.02380  0.76970  0.22700  Biso   1.000  H
  C292     1.0000 0.02047  0.73940  0.16457  Biso   1.000  C
  C293     1.0000 0.93917  0.74130  0.19107  Biso   1.000  C
  H190     1.0000 0.94970  0.73660  0.22000  Biso   1.000  H
  C294     1.0000 0.97113  0.74481  0.15652  Biso   1.000  C
  C295     1.0000 0.95488  0.75245  0.11384  Biso   1.000  C
  H191     1.0000 0.97480  0.75540  0.09010  Biso   1.000  H
  C296     1.0000 0.90810  0.75587  0.10589  Biso   1.000  C
  C297     1.0000 0.88040  0.75050  0.14276  Biso   1.000  C
  H192     1.0000 0.84970  0.75140  0.13800  Biso   1.000  H
  C298     1.0000 0.88992  0.76080  0.05978  Biso   1.000  C
  C299     1.0000 0.91193  0.74350  0.02251  Biso   1.000  C
  H193     1.0000 0.93830  0.72740  0.02650  Biso   1.000  H
  C300     1.0000 0.84948  0.78310  0.05184  Biso   1.000  C
  H194     1.0000 0.83350  0.79430  0.07610  Biso   1.000  H
  C301     1.0000 0.89538  0.74980  0.97960  Biso   1.000  C
  H195     1.0000 0.91130  0.73880  0.95520  Biso   1.000  H
  C302     1.0000 0.83243  0.78910  0.00923  Biso   1.000  C
  H196     1.0000 0.80560  0.80440  0.00530  Biso   1.000  H
  C303     1.0000 0.85491  0.77250  0.97256  Biso   1.000  C
  C304     1.0000 0.83718  0.77707  0.92477  Biso   1.000  C
  Er21     1.0000 0.85861  0.75684  0.81877  Biso   1.000  Er
  O85      1.0000 0.84348  0.68444  0.79818  Biso   1.000  O
  O86      1.0000 0.78189  0.68213  0.75254  Biso   1.000  O
  O87      1.0000 0.10580  0.35900  0.74131  Biso   1.000  O
  O88      1.0000 0.08033  0.30125  0.70111  Biso   1.000  O
  O89      1.0000 0.77895  0.75250  0.82697  Biso   1.000  O
  H197     1.0000 0.77020  0.72630  0.83800  Biso   1.000  H
  N17      1.0000 0.81475  0.39499  0.75597  Biso   1.000  N
  C305     1.0000 0.81469  0.66372  0.77330  Biso   1.000  C
  C306     1.0000 0.82097  0.61404  0.77000  Biso   1.000  C
  C307     1.0000 0.85992  0.59384  0.78670  Biso   1.000  C
  H198     1.0000 0.88120  0.61110  0.80140  Biso   1.000  H
  C308     1.0000 0.78887  0.58643  0.75030  Biso   1.000  C
  H199     1.0000 0.76220  0.59930  0.74070  Biso   1.000  H
  C309     1.0000 0.86689  0.54791  0.78150  Biso   1.000  C
  H200     1.0000 0.89330  0.53530  0.79220  Biso   1.000  H
  C310     1.0000 0.79478  0.54092  0.74440  Biso   1.000  C
  H201     1.0000 0.77300  0.52380  0.73030  Biso   1.000  H
  C311     1.0000 0.83543  0.52047  0.76060  Biso   1.000  C
  C312     1.0000 0.80893  0.43917  0.75870  Biso   1.000  C
  H202     1.0000 0.78000  0.44970  0.76340  Biso   1.000  H
  C313     1.0000 0.84348  0.47113  0.75519  Biso   1.000  C
  C314     1.0000 0.88616  0.45488  0.74755  Biso   1.000  C
  H203     1.0000 0.90990  0.47480  0.74460  Biso   1.000  H
  C315     1.0000 0.89411  0.40810  0.74413  Biso   1.000  C
  C316     1.0000 0.85724  0.38040  0.74950  Biso   1.000  C
  H204     1.0000 0.86200  0.34970  0.74860  Biso   1.000  H
  C317     1.0000 0.94022  0.38992  0.73920  Biso   1.000  C
  C318     1.0000 0.97749  0.41193  0.75650  Biso   1.000  C
  H205     1.0000 0.97350  0.43830  0.77260  Biso   1.000  H
  C319     1.0000 0.94816  0.34948  0.71690  Biso   1.000  C
  H206     1.0000 0.92390  0.33350  0.70570  Biso   1.000  H
  C320     1.0000 0.02040  0.39538  0.75020  Biso   1.000  C
  H207     1.0000 0.04480  0.41130  0.76120  Biso   1.000  H
  C321     1.0000 0.99077  0.33243  0.71090  Biso   1.000  C
  H208     1.0000 0.99470  0.30560  0.69560  Biso   1.000  H
  C322     1.0000 0.02744  0.35491  0.72750  Biso   1.000  C
  C323     1.0000 0.07523  0.33718  0.72293  Biso   1.000  C
  Er22     1.0000 0.35861  0.74316  0.18123  Biso   1.000  Er
  O90      1.0000 0.34348  0.81556  0.20182  Biso   1.000  O
  O91      1.0000 0.28189  0.81787  0.24746  Biso   1.000  O
  O92      1.0000 0.60580  0.14100  0.25869  Biso   1.000  O
  O93      1.0000 0.58033  0.19875  0.29889  Biso   1.000  O
  O94      1.0000 0.27895  0.74750  0.17303  Biso   1.000  O
  H209     1.0000 0.27020  0.77370  0.16200  Biso   1.000  H
  N18      1.0000 0.31475  0.10501  0.24403  Biso   1.000  N
  C324     1.0000 0.31469  0.83628  0.22670  Biso   1.000  C
  C325     1.0000 0.32097  0.88596  0.23000  Biso   1.000  C
  C326     1.0000 0.35992  0.90616  0.21330  Biso   1.000  C
  H210     1.0000 0.38120  0.88890  0.19860  Biso   1.000  H
  C327     1.0000 0.28887  0.91357  0.24970  Biso   1.000  C
  H211     1.0000 0.26220  0.90070  0.25930  Biso   1.000  H
  C328     1.0000 0.36689  0.95209  0.21850  Biso   1.000  C
  H212     1.0000 0.39330  0.96470  0.20780  Biso   1.000  H
  C329     1.0000 0.29478  0.95908  0.25560  Biso   1.000  C
  H213     1.0000 0.27300  0.97620  0.26970  Biso   1.000  H
  C330     1.0000 0.33543  0.97953  0.23940  Biso   1.000  C
  C331     1.0000 0.30893  0.06083  0.24130  Biso   1.000  C
  H214     1.0000 0.28000  0.05030  0.23660  Biso   1.000  H
  C332     1.0000 0.34348  0.02887  0.24481  Biso   1.000  C
  C333     1.0000 0.38616  0.04512  0.25245  Biso   1.000  C
  H215     1.0000 0.40990  0.02520  0.25540  Biso   1.000  H
  C334     1.0000 0.39411  0.09190  0.25587  Biso   1.000  C
  C335     1.0000 0.35724  0.11960  0.25050  Biso   1.000  C
  H216     1.0000 0.36200  0.15030  0.25140  Biso   1.000  H
  C336     1.0000 0.44022  0.11008  0.26080  Biso   1.000  C
  C337     1.0000 0.47749  0.08807  0.24350  Biso   1.000  C
  H217     1.0000 0.47350  0.06170  0.22740  Biso   1.000  H
  C338     1.0000 0.44816  0.15052  0.28310  Biso   1.000  C
  H218     1.0000 0.42390  0.16650  0.29430  Biso   1.000  H
  C339     1.0000 0.52040  0.10462  0.24980  Biso   1.000  C
  H219     1.0000 0.54480  0.08870  0.23880  Biso   1.000  H
  C340     1.0000 0.49077  0.16757  0.28910  Biso   1.000  C
  H220     1.0000 0.49470  0.19440  0.30440  Biso   1.000  H
  C341     1.0000 0.52744  0.14509  0.27250  Biso   1.000  C
  C342     1.0000 0.57523  0.16282  0.27707  Biso   1.000  C
  Er23     1.0000 0.64139  0.24316  0.31877  Biso   1.000  Er
  O95      1.0000 0.65652  0.31556  0.29818  Biso   1.000  O
  O96      1.0000 0.71811  0.31787  0.25254  Biso   1.000  O
  O97      1.0000 0.39420  0.64100  0.24131  Biso   1.000  O
  O98      1.0000 0.41967  0.69875  0.20111  Biso   1.000  O
  O99      1.0000 0.72105  0.24750  0.32697  Biso   1.000  O
  H221     1.0000 0.72980  0.27370  0.33800  Biso   1.000  H
  N19      1.0000 0.68525  0.60501  0.25597  Biso   1.000  N
  C343     1.0000 0.68531  0.33628  0.27330  Biso   1.000  C
  C344     1.0000 0.67903  0.38596  0.27000  Biso   1.000  C
  C345     1.0000 0.64008  0.40616  0.28670  Biso   1.000  C
  H222     1.0000 0.61880  0.38890  0.30140  Biso   1.000  H
  C346     1.0000 0.71113  0.41357  0.25030  Biso   1.000  C
  H223     1.0000 0.73780  0.40070  0.24070  Biso   1.000  H
  C347     1.0000 0.63311  0.45209  0.28150  Biso   1.000  C
  H224     1.0000 0.60670  0.46470  0.29220  Biso   1.000  H
  C348     1.0000 0.70522  0.45908  0.24440  Biso   1.000  C
  H225     1.0000 0.72700  0.47620  0.23030  Biso   1.000  H
  C349     1.0000 0.66457  0.47953  0.26060  Biso   1.000  C
  C350     1.0000 0.69107  0.56083  0.25870  Biso   1.000  C
  H226     1.0000 0.72000  0.55030  0.26340  Biso   1.000  H
  C351     1.0000 0.65652  0.52887  0.25519  Biso   1.000  C
  C352     1.0000 0.61384  0.54512  0.24755  Biso   1.000  C
  H227     1.0000 0.59010  0.52520  0.24460  Biso   1.000  H
  C353     1.0000 0.60589  0.59190  0.24413  Biso   1.000  C
  C354     1.0000 0.64276  0.61960  0.24950  Biso   1.000  C
  H228     1.0000 0.63800  0.65030  0.24860  Biso   1.000  H
  C355     1.0000 0.55978  0.61008  0.23920  Biso   1.000  C
  C356     1.0000 0.52251  0.58807  0.25650  Biso   1.000  C
  H229     1.0000 0.52650  0.56170  0.27260  Biso   1.000  H
  C357     1.0000 0.55184  0.65052  0.21690  Biso   1.000  C
  H230     1.0000 0.57610  0.66650  0.20570  Biso   1.000  H
  C358     1.0000 0.47960  0.60462  0.25020  Biso   1.000  C
  H231     1.0000 0.45520  0.58870  0.26120  Biso   1.000  H
  C359     1.0000 0.50923  0.66757  0.21090  Biso   1.000  C
  H232     1.0000 0.50530  0.69440  0.19560  Biso   1.000  H
  C360     1.0000 0.47256  0.64509  0.22750  Biso   1.000  C
  C361     1.0000 0.42477  0.66282  0.22293  Biso   1.000  C
  Er24     1.0000 0.14139  0.25684  0.68123  Biso   1.000  Er
  O100     1.0000 0.15652  0.18444  0.70182  Biso   1.000  O
  O101     1.0000 0.21811  0.18213  0.74746  Biso   1.000  O
  O102     1.0000 0.89420  0.85900  0.75869  Biso   1.000  O
  O103     1.0000 0.91967  0.80125  0.79889  Biso   1.000  O
  O104     1.0000 0.22105  0.25250  0.67303  Biso   1.000  O
  H233     1.0000 0.22980  0.22630  0.66200  Biso   1.000  H
  N20      1.0000 0.18525  0.89499  0.74403  Biso   1.000  N
  C362     1.0000 0.18531  0.16372  0.72670  Biso   1.000  C
  C363     1.0000 0.17903  0.11404  0.73000  Biso   1.000  C
  C364     1.0000 0.14008  0.09384  0.71330  Biso   1.000  C
  H234     1.0000 0.11880  0.11110  0.69860  Biso   1.000  H
  C365     1.0000 0.21113  0.08643  0.74970  Biso   1.000  C
  H235     1.0000 0.23780  0.09930  0.75930  Biso   1.000  H
  C366     1.0000 0.13311  0.04791  0.71850  Biso   1.000  C
  H236     1.0000 0.10670  0.03530  0.70780  Biso   1.000  H
  C367     1.0000 0.20522  0.04092  0.75560  Biso   1.000  C
  H237     1.0000 0.22700  0.02380  0.76970  Biso   1.000  H
  C368     1.0000 0.16457  0.02047  0.73940  Biso   1.000  C
  C369     1.0000 0.19107  0.93917  0.74130  Biso   1.000  C
  H238     1.0000 0.22000  0.94970  0.73660  Biso   1.000  H
  C370     1.0000 0.15652  0.97113  0.74481  Biso   1.000  C
  C371     1.0000 0.11384  0.95488  0.75245  Biso   1.000  C
  H239     1.0000 0.09010  0.97480  0.75540  Biso   1.000  H
  C372     1.0000 0.10589  0.90810  0.75587  Biso   1.000  C
  C373     1.0000 0.14276  0.88040  0.75050  Biso   1.000  C
  H240     1.0000 0.13800  0.84970  0.75140  Biso   1.000  H
  C374     1.0000 0.05978  0.88992  0.76080  Biso   1.000  C
  C375     1.0000 0.02251  0.91193  0.74350  Biso   1.000  C
  H241     1.0000 0.02650  0.93830  0.72740  Biso   1.000  H
  C376     1.0000 0.05184  0.84948  0.78310  Biso   1.000  C
  H242     1.0000 0.07610  0.83350  0.79430  Biso   1.000  H
  C377     1.0000 0.97960  0.89538  0.74980  Biso   1.000  C
  H243     1.0000 0.95520  0.91130  0.73880  Biso   1.000  H
  C378     1.0000 0.00923  0.83243  0.78910  Biso   1.000  C
  H244     1.0000 0.00530  0.80560  0.80440  Biso   1.000  H
  C379     1.0000 0.97256  0.85491  0.77250  Biso   1.000  C
  C380     1.0000 0.92477  0.83718  0.77707  Biso   1.000  C
  Er25     1.0000 0.81877  0.85861  0.75684  Biso   1.000  Er
  O105     1.0000 0.79818  0.84348  0.68444  Biso   1.000  O
  O106     1.0000 0.75254  0.78189  0.68213  Biso   1.000  O
  O107     1.0000 0.74131  0.10580  0.35900  Biso   1.000  O
  O108     1.0000 0.70111  0.08033  0.30125  Biso   1.000  O
  O109     1.0000 0.82697  0.77895  0.75250  Biso   1.000  O
  H245     1.0000 0.83800  0.77020  0.72630  Biso   1.000  H
  N21      1.0000 0.75597  0.81475  0.39499  Biso   1.000  N
  C381     1.0000 0.77330  0.81469  0.66372  Biso   1.000  C
  C382     1.0000 0.77000  0.82097  0.61404  Biso   1.000  C
  C383     1.0000 0.78670  0.85992  0.59384  Biso   1.000  C
  H246     1.0000 0.80140  0.88120  0.61110  Biso   1.000  H
  C384     1.0000 0.75030  0.78887  0.58643  Biso   1.000  C
  H247     1.0000 0.74070  0.76220  0.59930  Biso   1.000  H
  C385     1.0000 0.78150  0.86689  0.54791  Biso   1.000  C
  H248     1.0000 0.79220  0.89330  0.53530  Biso   1.000  H
  C386     1.0000 0.74440  0.79478  0.54092  Biso   1.000  C
  H249     1.0000 0.73030  0.77300  0.52380  Biso   1.000  H
  C387     1.0000 0.76060  0.83543  0.52047  Biso   1.000  C
  C388     1.0000 0.75870  0.80893  0.43917  Biso   1.000  C
  H250     1.0000 0.76340  0.78000  0.44970  Biso   1.000  H
  C389     1.0000 0.75519  0.84348  0.47113  Biso   1.000  C
  C390     1.0000 0.74755  0.88616  0.45488  Biso   1.000  C
  H251     1.0000 0.74460  0.90990  0.47480  Biso   1.000  H
  C391     1.0000 0.74413  0.89411  0.40810  Biso   1.000  C
  C392     1.0000 0.74950  0.85724  0.38040  Biso   1.000  C
  H252     1.0000 0.74860  0.86200  0.34970  Biso   1.000  H
  C393     1.0000 0.73920  0.94022  0.38992  Biso   1.000  C
  C394     1.0000 0.75650  0.97749  0.41193  Biso   1.000  C
  H253     1.0000 0.77260  0.97350  0.43830  Biso   1.000  H
  C395     1.0000 0.71690  0.94816  0.34948  Biso   1.000  C
  H254     1.0000 0.70570  0.92390  0.33350  Biso   1.000  H
  C396     1.0000 0.75020  0.02040  0.39538  Biso   1.000  C
  H255     1.0000 0.76120  0.04480  0.41130  Biso   1.000  H
  C397     1.0000 0.71090  0.99077  0.33243  Biso   1.000  C
  H256     1.0000 0.69560  0.99470  0.30560  Biso   1.000  H
  C398     1.0000 0.72750  0.02744  0.35491  Biso   1.000  C
  C399     1.0000 0.72293  0.07523  0.33718  Biso   1.000  C
  Er26     1.0000 0.18123  0.35861  0.74316  Biso   1.000  Er
  O110     1.0000 0.20182  0.34348  0.81556  Biso   1.000  O
  O111     1.0000 0.24746  0.28189  0.81787  Biso   1.000  O
  O112     1.0000 0.25869  0.60580  0.14100  Biso   1.000  O
  O113     1.0000 0.29889  0.58033  0.19875  Biso   1.000  O
  O114     1.0000 0.17303  0.27895  0.74750  Biso   1.000  O
  H257     1.0000 0.16200  0.27020  0.77370  Biso   1.000  H
  N22      1.0000 0.24403  0.31475  0.10501  Biso   1.000  N
  C400     1.0000 0.22670  0.31469  0.83628  Biso   1.000  C
  C401     1.0000 0.23000  0.32097  0.88596  Biso   1.000  C
  C402     1.0000 0.21330  0.35992  0.90616  Biso   1.000  C
  H258     1.0000 0.19860  0.38120  0.88890  Biso   1.000  H
  C403     1.0000 0.24970  0.28887  0.91357  Biso   1.000  C
  H259     1.0000 0.25930  0.26220  0.90070  Biso   1.000  H
  C404     1.0000 0.21850  0.36689  0.95209  Biso   1.000  C
  H260     1.0000 0.20780  0.39330  0.96470  Biso   1.000  H
  C405     1.0000 0.25560  0.29478  0.95908  Biso   1.000  C
  H261     1.0000 0.26970  0.27300  0.97620  Biso   1.000  H
  C406     1.0000 0.23940  0.33543  0.97953  Biso   1.000  C
  C407     1.0000 0.24130  0.30893  0.06083  Biso   1.000  C
  H262     1.0000 0.23660  0.28000  0.05030  Biso   1.000  H
  C408     1.0000 0.24481  0.34348  0.02887  Biso   1.000  C
  C409     1.0000 0.25245  0.38616  0.04512  Biso   1.000  C
  H263     1.0000 0.25540  0.40990  0.02520  Biso   1.000  H
  C410     1.0000 0.25587  0.39411  0.09190  Biso   1.000  C
  C411     1.0000 0.25050  0.35724  0.11960  Biso   1.000  C
  H264     1.0000 0.25140  0.36200  0.15030  Biso   1.000  H
  C412     1.0000 0.26080  0.44022  0.11008  Biso   1.000  C
  C413     1.0000 0.24350  0.47749  0.08807  Biso   1.000  C
  H265     1.0000 0.22740  0.47350  0.06170  Biso   1.000  H
  C414     1.0000 0.28310  0.44816  0.15052  Biso   1.000  C
  H266     1.0000 0.29430  0.42390  0.16650  Biso   1.000  H
  C415     1.0000 0.24980  0.52040  0.10462  Biso   1.000  C
  H267     1.0000 0.23880  0.54480  0.08870  Biso   1.000  H
  C416     1.0000 0.28910  0.49077  0.16757  Biso   1.000  C
  H268     1.0000 0.30440  0.49470  0.19440  Biso   1.000  H
  C417     1.0000 0.27250  0.52744  0.14509  Biso   1.000  C
  C418     1.0000 0.27707  0.57523  0.16282  Biso   1.000  C
  Er27     1.0000 0.31877  0.64139  0.24316  Biso   1.000  Er
  O115     1.0000 0.29818  0.65652  0.31556  Biso   1.000  O
  O116     1.0000 0.25254  0.71811  0.31787  Biso   1.000  O
  O117     1.0000 0.24131  0.39420  0.64100  Biso   1.000  O
  O118     1.0000 0.20111  0.41967  0.69875  Biso   1.000  O
  O119     1.0000 0.32697  0.72105  0.24750  Biso   1.000  O
  H269     1.0000 0.33800  0.72980  0.27370  Biso   1.000  H
  N23      1.0000 0.25597  0.68525  0.60501  Biso   1.000  N
  C419     1.0000 0.27330  0.68531  0.33628  Biso   1.000  C
  C420     1.0000 0.27000  0.67903  0.38596  Biso   1.000  C
  C421     1.0000 0.28670  0.64008  0.40616  Biso   1.000  C
  H270     1.0000 0.30140  0.61880  0.38890  Biso   1.000  H
  C422     1.0000 0.25030  0.71113  0.41357  Biso   1.000  C
  H271     1.0000 0.24070  0.73780  0.40070  Biso   1.000  H
  C423     1.0000 0.28150  0.63311  0.45209  Biso   1.000  C
  H272     1.0000 0.29220  0.60670  0.46470  Biso   1.000  H
  C424     1.0000 0.24440  0.70522  0.45908  Biso   1.000  C
  H273     1.0000 0.23030  0.72700  0.47620  Biso   1.000  H
  C425     1.0000 0.26060  0.66457  0.47953  Biso   1.000  C
  C426     1.0000 0.25870  0.69107  0.56083  Biso   1.000  C
  H274     1.0000 0.26340  0.72000  0.55030  Biso   1.000  H
  C427     1.0000 0.25519  0.65652  0.52887  Biso   1.000  C
  C428     1.0000 0.24755  0.61384  0.54512  Biso   1.000  C
  H275     1.0000 0.24460  0.59010  0.52520  Biso   1.000  H
  C429     1.0000 0.24413  0.60589  0.59190  Biso   1.000  C
  C430     1.0000 0.24950  0.64276  0.61960  Biso   1.000  C
  H276     1.0000 0.24860  0.63800  0.65030  Biso   1.000  H
  C431     1.0000 0.23920  0.55978  0.61008  Biso   1.000  C
  C432     1.0000 0.25650  0.52251  0.58807  Biso   1.000  C
  H277     1.0000 0.27260  0.52650  0.56170  Biso   1.000  H
  C433     1.0000 0.21690  0.55184  0.65052  Biso   1.000  C
  H278     1.0000 0.20570  0.57610  0.66650  Biso   1.000  H
  C434     1.0000 0.25020  0.47960  0.60462  Biso   1.000  C
  H279     1.0000 0.26120  0.45520  0.58870  Biso   1.000  H
  C435     1.0000 0.21090  0.50923  0.66757  Biso   1.000  C
  H280     1.0000 0.19560  0.50530  0.69440  Biso   1.000  H
  C436     1.0000 0.22750  0.47256  0.64509  Biso   1.000  C
  C437     1.0000 0.22293  0.42477  0.66282  Biso   1.000  C
  Er28     1.0000 0.68123  0.14139  0.25684  Biso   1.000  Er
  O120     1.0000 0.70182  0.15652  0.18444  Biso   1.000  O
  O121     1.0000 0.74746  0.21811  0.18213  Biso   1.000  O
  O122     1.0000 0.75869  0.89420  0.85900  Biso   1.000  O
  O123     1.0000 0.79889  0.91967  0.80125  Biso   1.000  O
  O124     1.0000 0.67303  0.22105  0.25250  Biso   1.000  O
  H281     1.0000 0.66200  0.22980  0.22630  Biso   1.000  H
  N24      1.0000 0.74403  0.18525  0.89499  Biso   1.000  N
  C438     1.0000 0.72670  0.18531  0.16372  Biso   1.000  C
  C439     1.0000 0.73000  0.17903  0.11404  Biso   1.000  C
  C440     1.0000 0.71330  0.14008  0.09384  Biso   1.000  C
  H282     1.0000 0.69860  0.11880  0.11110  Biso   1.000  H
  C441     1.0000 0.74970  0.21113  0.08643  Biso   1.000  C
  H283     1.0000 0.75930  0.23780  0.09930  Biso   1.000  H
  C442     1.0000 0.71850  0.13311  0.04791  Biso   1.000  C
  H284     1.0000 0.70780  0.10670  0.03530  Biso   1.000  H
  C443     1.0000 0.75560  0.20522  0.04092  Biso   1.000  C
  H285     1.0000 0.76970  0.22700  0.02380  Biso   1.000  H
  C444     1.0000 0.73940  0.16457  0.02047  Biso   1.000  C
  C445     1.0000 0.74130  0.19107  0.93917  Biso   1.000  C
  H286     1.0000 0.73660  0.22000  0.94970  Biso   1.000  H
  C446     1.0000 0.74481  0.15652  0.97113  Biso   1.000  C
  C447     1.0000 0.75245  0.11384  0.95488  Biso   1.000  C
  H287     1.0000 0.75540  0.09010  0.97480  Biso   1.000  H
  C448     1.0000 0.75587  0.10589  0.90810  Biso   1.000  C
  C449     1.0000 0.75050  0.14276  0.88040  Biso   1.000  C
  H288     1.0000 0.75140  0.13800  0.84970  Biso   1.000  H
  C450     1.0000 0.76080  0.05978  0.88992  Biso   1.000  C
  C451     1.0000 0.74350  0.02251  0.91193  Biso   1.000  C
  H289     1.0000 0.72740  0.02650  0.93830  Biso   1.000  H
  C452     1.0000 0.78310  0.05184  0.84948  Biso   1.000  C
  H290     1.0000 0.79430  0.07610  0.83350  Biso   1.000  H
  C453     1.0000 0.74980  0.97960  0.89538  Biso   1.000  C
  H291     1.0000 0.73880  0.95520  0.91130  Biso   1.000  H
  C454     1.0000 0.78910  0.00923  0.83243  Biso   1.000  C
  H292     1.0000 0.80440  0.00530  0.80560  Biso   1.000  H
  C455     1.0000 0.77250  0.97256  0.85491  Biso   1.000  C
  C456     1.0000 0.77707  0.92477  0.83718  Biso   1.000  C
  Er29     1.0000 0.75237  0.75237  0.75237  Biso   1.000  Er
  O125     1.0000 0.82926  0.82926  0.82926  Biso   1.000  O
  H293     1.0000 0.84571  0.84571  0.84571  Biso   1.000  H
  Er30     1.0000 0.74763  0.24763  0.25237  Biso   1.000  Er
  O126     1.0000 0.67074  0.17074  0.32926  Biso   1.000  O
  H294     1.0000 0.65429  0.15429  0.34571  Biso   1.000  H
  Er31     1.0000 0.24763  0.25237  0.74763  Biso   1.000  Er
  O127     1.0000 0.17074  0.32926  0.67074  Biso   1.000  O
  H295     1.0000 0.15429  0.34571  0.65429  Biso   1.000  H
  Er32     1.0000 0.25237  0.74763  0.24763  Biso   1.000  Er
  O128     1.0000 0.32926  0.67074  0.17074  Biso   1.000  O
  H296     1.0000 0.34571  0.65429  0.15429  Biso   1.000  H
