data_image0
_cell_length_a       28.1333
_cell_length_b       28.1333
_cell_length_c       69.411
_cell_angle_alpha    90
_cell_angle_beta     90
_cell_angle_gamma    120

_symmetry_space_group_name_H-M    "P 1"
_symmetry_int_tables_number       1

loop_
  _symmetry_equiv_pos_as_xyz
  'x, y, z'

loop_
  _atom_site_label
  _atom_site_occupancy
  _atom_site_fract_x
  _atom_site_fract_y
  _atom_site_fract_z
  _atom_site_thermal_displace_type
  _atom_site_B_iso_or_equiv
  _atom_site_type_symbol
  O1       1.0000 0.54339  0.17956  0.10313  Biso   1.000  O
  O2       1.0000 0.51633  0.20740  0.12965  Biso   1.000  O
  O3       1.0000 0.66021  0.23855  0.16071  Biso   1.000  O
  O4       1.0000 0.66966  0.24588  0.06934  Biso   1.000  O
  C1       1.0000 0.51204  0.17167  0.11728  Biso   1.000  C
  C2       1.0000 0.46434  0.11451  0.11985  Biso   1.000  C
  C3       1.0000 0.42653  0.10350  0.13385  Biso   1.000  C
  H1       1.0000 0.43030  0.13190  0.14180  Biso   1.000  H
  C4       1.0000 0.38180  0.05050  0.13672  Biso   1.000  C
  H2       1.0000 0.35640  0.04380  0.14640  Biso   1.000  H
  C5       1.0000 0.37620  0.00870  0.12510  Biso   1.000  C
  C6       1.0000 0.41720  0.01910  0.11172  Biso   1.000  C
  H3       1.0000 0.41580  0.99020  0.10480  Biso   1.000  H
  C7       1.0000 0.46020  0.07240  0.10864  Biso   1.000  C
  H4       1.0000 0.48600  0.07930  0.09910  Biso   1.000  H
  C8       1.0000 0.33200  0.95340  0.12684  Biso   1.000  C
  C9       1.0000 0.29240  0.90890  0.12883  Biso   1.000  C
  C10      1.0000 0.24340  0.85630  0.13009  Biso   1.000  C
  C11      1.0000 0.20470  0.84720  0.14373  Biso   1.000  C
  C12      1.0000 0.21180  0.88610  0.15805  Biso   1.000  C
  H5       1.0000 0.24410  0.91990  0.15780  Biso   1.000  H
  C13      1.0000 0.17540  0.87730  0.17172  Biso   1.000  C
  C14      1.0000 0.23620  0.81540  0.11644  Biso   1.000  C
  C15      1.0000 0.27690  0.82230  0.10186  Biso   1.000  C
  H6       1.0000 0.31010  0.85520  0.10160  Biso   1.000  H
  C16      1.0000 0.26870  0.78370  0.08884  Biso   1.000  C
  C17      1.0000 0.69360  0.21950  0.03407  Biso   1.000  C
  H7       1.0000 0.65940  0.19630  0.03950  Biso   1.000  H
  C18      1.0000 0.70990  0.20740  0.01622  Biso   1.000  C
  H8       1.0000 0.68590  0.17490  0.00990  Biso   1.000  H
  C19      1.0000 0.85180  0.23550  0.94983  Biso   1.000  C
  C20      1.0000 0.88650  0.28990  0.95690  Biso   1.000  C
  H9       1.0000 0.87540  0.30160  0.96770  Biso   1.000  H
  C21      1.0000 0.93240  0.32280  0.94890  Biso   1.000  C
  H10      1.0000 0.95340  0.35830  0.95360  Biso   1.000  H
  C22      1.0000 0.95140  0.30540  0.93300  Biso   1.000  C
  H11      1.0000 0.98620  0.32910  0.92810  Biso   1.000  H
  C23      1.0000 0.92150  0.25670  0.92460  Biso   1.000  C
  H12      1.0000 0.93510  0.24850  0.91360  Biso   1.000  H
  C24      1.0000 0.86950  0.21680  0.93190  Biso   1.000  C
  C25      1.0000 0.93870  0.14680  0.87234  Biso   1.000  C
  H13      1.0000 0.96110  0.18170  0.87740  Biso   1.000  H
  C26      1.0000 0.95790  0.12670  0.85691  Biso   1.000  C
  H14      1.0000 0.99300  0.14880  0.85200  Biso   1.000  H
  O5       1.0000 0.21006  0.51289  0.43646  Biso   1.000  O
  O6       1.0000 0.18300  0.54073  0.46298  Biso   1.000  O
  O7       1.0000 0.32688  0.57188  0.49404  Biso   1.000  O
  O8       1.0000 0.33633  0.57921  0.40267  Biso   1.000  O
  C27      1.0000 0.17871  0.50500  0.45061  Biso   1.000  C
  C28      1.0000 0.13101  0.44784  0.45318  Biso   1.000  C
  C29      1.0000 0.09320  0.43683  0.46718  Biso   1.000  C
  H15      1.0000 0.09697  0.46523  0.47513  Biso   1.000  H
  C30      1.0000 0.04847  0.38383  0.47005  Biso   1.000  C
  H16      1.0000 0.02307  0.37713  0.47973  Biso   1.000  H
  C31      1.0000 0.04287  0.34203  0.45843  Biso   1.000  C
  C32      1.0000 0.08387  0.35243  0.44505  Biso   1.000  C
  H17      1.0000 0.08247  0.32353  0.43813  Biso   1.000  H
  C33      1.0000 0.12687  0.40573  0.44197  Biso   1.000  C
  H18      1.0000 0.15267  0.41263  0.43243  Biso   1.000  H
  C34      1.0000 0.99867  0.28673  0.46017  Biso   1.000  C
  C35      1.0000 0.95907  0.24223  0.46216  Biso   1.000  C
  C36      1.0000 0.91007  0.18963  0.46342  Biso   1.000  C
  C37      1.0000 0.87137  0.18053  0.47706  Biso   1.000  C
  C38      1.0000 0.87847  0.21943  0.49138  Biso   1.000  C
  H19      1.0000 0.91077  0.25323  0.49113  Biso   1.000  H
  C39      1.0000 0.84207  0.21063  0.50505  Biso   1.000  C
  C40      1.0000 0.90287  0.14873  0.44977  Biso   1.000  C
  C41      1.0000 0.94357  0.15563  0.43519  Biso   1.000  C
  H20      1.0000 0.97677  0.18853  0.43493  Biso   1.000  H
  C42      1.0000 0.93537  0.11703  0.42217  Biso   1.000  C
  C43      1.0000 0.36027  0.55283  0.36740  Biso   1.000  C
  H21      1.0000 0.32607  0.52963  0.37283  Biso   1.000  H
  C44      1.0000 0.37657  0.54073  0.34955  Biso   1.000  C
  H22      1.0000 0.35257  0.50823  0.34323  Biso   1.000  H
  C45      1.0000 0.51847  0.56883  0.28316  Biso   1.000  C
  C46      1.0000 0.55317  0.62323  0.29023  Biso   1.000  C
  H23      1.0000 0.54207  0.63493  0.30103  Biso   1.000  H
  C47      1.0000 0.59907  0.65613  0.28223  Biso   1.000  C
  H24      1.0000 0.62007  0.69163  0.28693  Biso   1.000  H
  C48      1.0000 0.61807  0.63873  0.26633  Biso   1.000  C
  H25      1.0000 0.65287  0.66243  0.26143  Biso   1.000  H
  C49      1.0000 0.58817  0.59003  0.25793  Biso   1.000  C
  H26      1.0000 0.60177  0.58183  0.24693  Biso   1.000  H
  C50      1.0000 0.53617  0.55013  0.26523  Biso   1.000  C
  C51      1.0000 0.60537  0.48013  0.20567  Biso   1.000  C
  H27      1.0000 0.62777  0.51503  0.21073  Biso   1.000  H
  C52      1.0000 0.62457  0.46003  0.19024  Biso   1.000  C
  H28      1.0000 0.65967  0.48213  0.18533  Biso   1.000  H
  O9       1.0000 0.87672  0.84623  0.76980  Biso   1.000  O
  O10      1.0000 0.84966  0.87407  0.79632  Biso   1.000  O
  O11      1.0000 0.99354  0.90522  0.82738  Biso   1.000  O
  O12      1.0000 0.00299  0.91255  0.73601  Biso   1.000  O
  C53      1.0000 0.84537  0.83834  0.78395  Biso   1.000  C
  C54      1.0000 0.79767  0.78118  0.78652  Biso   1.000  C
  C55      1.0000 0.75986  0.77017  0.80052  Biso   1.000  C
  H29      1.0000 0.76363  0.79857  0.80847  Biso   1.000  H
  C56      1.0000 0.71513  0.71717  0.80339  Biso   1.000  C
  H30      1.0000 0.68973  0.71047  0.81307  Biso   1.000  H
  C57      1.0000 0.70953  0.67537  0.79177  Biso   1.000  C
  C58      1.0000 0.75053  0.68577  0.77839  Biso   1.000  C
  H31      1.0000 0.74913  0.65687  0.77147  Biso   1.000  H
  C59      1.0000 0.79353  0.73907  0.77531  Biso   1.000  C
  H32      1.0000 0.81933  0.74597  0.76577  Biso   1.000  H
  C60      1.0000 0.66533  0.62007  0.79351  Biso   1.000  C
  C61      1.0000 0.62573  0.57557  0.79550  Biso   1.000  C
  C62      1.0000 0.57673  0.52297  0.79676  Biso   1.000  C
  C63      1.0000 0.53803  0.51387  0.81040  Biso   1.000  C
  C64      1.0000 0.54513  0.55277  0.82472  Biso   1.000  C
  H33      1.0000 0.57743  0.58657  0.82447  Biso   1.000  H
  C65      1.0000 0.50873  0.54397  0.83839  Biso   1.000  C
  C66      1.0000 0.56953  0.48207  0.78311  Biso   1.000  C
  C67      1.0000 0.61023  0.48897  0.76853  Biso   1.000  C
  H34      1.0000 0.64343  0.52187  0.76827  Biso   1.000  H
  C68      1.0000 0.60203  0.45037  0.75551  Biso   1.000  C
  C69      1.0000 0.02693  0.88617  0.70074  Biso   1.000  C
  H35      1.0000 0.99273  0.86297  0.70617  Biso   1.000  H
  C70      1.0000 0.04323  0.87407  0.68289  Biso   1.000  C
  H36      1.0000 0.01923  0.84157  0.67657  Biso   1.000  H
  C71      1.0000 0.18513  0.90217  0.61650  Biso   1.000  C
  C72      1.0000 0.21983  0.95657  0.62357  Biso   1.000  C
  H37      1.0000 0.20873  0.96827  0.63437  Biso   1.000  H
  C73      1.0000 0.26573  0.98947  0.61557  Biso   1.000  C
  H38      1.0000 0.28673  0.02497  0.62027  Biso   1.000  H
  C74      1.0000 0.28473  0.97207  0.59967  Biso   1.000  C
  H39      1.0000 0.31953  0.99577  0.59477  Biso   1.000  H
  C75      1.0000 0.25483  0.92337  0.59127  Biso   1.000  C
  H40      1.0000 0.26843  0.91517  0.58027  Biso   1.000  H
  C76      1.0000 0.20283  0.88347  0.59857  Biso   1.000  C
  C77      1.0000 0.27203  0.81347  0.53901  Biso   1.000  C
  H41      1.0000 0.29443  0.84837  0.54407  Biso   1.000  H
  C78      1.0000 0.29123  0.79337  0.52358  Biso   1.000  C
  H42      1.0000 0.32633  0.81547  0.51867  Biso   1.000  H
  O13      1.0000 0.82044  0.36383  0.10313  Biso   1.000  O
  O14      1.0000 0.79260  0.30893  0.12965  Biso   1.000  O
  O15      1.0000 0.76145  0.42166  0.16071  Biso   1.000  O
  O16      1.0000 0.75412  0.42378  0.06934  Biso   1.000  O
  C79      1.0000 0.82833  0.34037  0.11728  Biso   1.000  C
  C80      1.0000 0.88549  0.34983  0.11985  Biso   1.000  C
  C81      1.0000 0.89650  0.32303  0.13385  Biso   1.000  C
  H43      1.0000 0.86810  0.29840  0.14180  Biso   1.000  H
  C82      1.0000 0.94950  0.33130  0.13672  Biso   1.000  C
  H44      1.0000 0.95620  0.31260  0.14640  Biso   1.000  H
  C83      1.0000 0.99130  0.36750  0.12510  Biso   1.000  C
  C84      1.0000 0.98090  0.39810  0.11172  Biso   1.000  C
  H45      1.0000 0.00980  0.42560  0.10480  Biso   1.000  H
  C85      1.0000 0.92760  0.38780  0.10864  Biso   1.000  C
  H46      1.0000 0.92070  0.40670  0.09910  Biso   1.000  H
  C86      1.0000 0.04660  0.37860  0.12684  Biso   1.000  C
  C87      1.0000 0.09110  0.38350  0.12883  Biso   1.000  C
  C88      1.0000 0.14370  0.38710  0.13009  Biso   1.000  C
  C89      1.0000 0.15280  0.35750  0.14373  Biso   1.000  C
  C90      1.0000 0.11390  0.32570  0.15805  Biso   1.000  C
  H47      1.0000 0.08010  0.32420  0.15780  Biso   1.000  H
  C91      1.0000 0.12270  0.29810  0.17172  Biso   1.000  C
  C92      1.0000 0.18460  0.42080  0.11644  Biso   1.000  C
  C93      1.0000 0.17770  0.45460  0.10186  Biso   1.000  C
  H48      1.0000 0.14480  0.45490  0.10160  Biso   1.000  H
  C94      1.0000 0.21630  0.48500  0.08884  Biso   1.000  C
  C95      1.0000 0.78050  0.47410  0.03407  Biso   1.000  C
  H49      1.0000 0.80370  0.46310  0.03950  Biso   1.000  H
  C96      1.0000 0.79260  0.50250  0.01622  Biso   1.000  C
  H50      1.0000 0.82510  0.51100  0.00990  Biso   1.000  H
  C97      1.0000 0.76450  0.61630  0.94983  Biso   1.000  C
  C98      1.0000 0.71010  0.59660  0.95690  Biso   1.000  C
  H51      1.0000 0.69840  0.57380  0.96770  Biso   1.000  H
  C99      1.0000 0.67720  0.60960  0.94890  Biso   1.000  C
  H52      1.0000 0.64170  0.59510  0.95360  Biso   1.000  H
  C100     1.0000 0.69460  0.64600  0.93300  Biso   1.000  C
  H53      1.0000 0.67090  0.65710  0.92810  Biso   1.000  H
  C101     1.0000 0.74330  0.66480  0.92460  Biso   1.000  C
  H54      1.0000 0.75150  0.68660  0.91360  Biso   1.000  H
  C102     1.0000 0.78320  0.65270  0.93190  Biso   1.000  C
  C103     1.0000 0.85320  0.79190  0.87234  Biso   1.000  C
  H55      1.0000 0.81830  0.77940  0.87740  Biso   1.000  H
  C104     1.0000 0.87330  0.83120  0.85691  Biso   1.000  C
  H56      1.0000 0.85120  0.84420  0.85200  Biso   1.000  H
  O17      1.0000 0.48711  0.69716  0.43646  Biso   1.000  O
  O18      1.0000 0.45927  0.64226  0.46298  Biso   1.000  O
  O19      1.0000 0.42812  0.75499  0.49404  Biso   1.000  O
  O20      1.0000 0.42079  0.75711  0.40267  Biso   1.000  O
  C105     1.0000 0.49500  0.67370  0.45061  Biso   1.000  C
  C106     1.0000 0.55216  0.68316  0.45318  Biso   1.000  C
  C107     1.0000 0.56317  0.65636  0.46718  Biso   1.000  C
  H57      1.0000 0.53477  0.63173  0.47513  Biso   1.000  H
  C108     1.0000 0.61617  0.66463  0.47005  Biso   1.000  C
  H58      1.0000 0.62287  0.64593  0.47973  Biso   1.000  H
  C109     1.0000 0.65797  0.70083  0.45843  Biso   1.000  C
  C110     1.0000 0.64757  0.73143  0.44505  Biso   1.000  C
  H59      1.0000 0.67647  0.75893  0.43813  Biso   1.000  H
  C111     1.0000 0.59427  0.72113  0.44197  Biso   1.000  C
  H60      1.0000 0.58737  0.74003  0.43243  Biso   1.000  H
  C112     1.0000 0.71327  0.71193  0.46017  Biso   1.000  C
  C113     1.0000 0.75777  0.71683  0.46216  Biso   1.000  C
  C114     1.0000 0.81037  0.72043  0.46342  Biso   1.000  C
  C115     1.0000 0.81947  0.69083  0.47706  Biso   1.000  C
  C116     1.0000 0.78057  0.65903  0.49138  Biso   1.000  C
  H61      1.0000 0.74677  0.65753  0.49113  Biso   1.000  H
  C117     1.0000 0.78937  0.63143  0.50505  Biso   1.000  C
  C118     1.0000 0.85127  0.75413  0.44977  Biso   1.000  C
  C119     1.0000 0.84437  0.78793  0.43519  Biso   1.000  C
  H62      1.0000 0.81147  0.78823  0.43493  Biso   1.000  H
  C120     1.0000 0.88297  0.81833  0.42217  Biso   1.000  C
  C121     1.0000 0.44717  0.80743  0.36740  Biso   1.000  C
  H63      1.0000 0.47037  0.79643  0.37283  Biso   1.000  H
  C122     1.0000 0.45927  0.83583  0.34955  Biso   1.000  C
  H64      1.0000 0.49177  0.84433  0.34323  Biso   1.000  H
  C123     1.0000 0.43117  0.94963  0.28316  Biso   1.000  C
  C124     1.0000 0.37677  0.92993  0.29023  Biso   1.000  C
  H65      1.0000 0.36507  0.90713  0.30103  Biso   1.000  H
  C125     1.0000 0.34387  0.94293  0.28223  Biso   1.000  C
  H66      1.0000 0.30837  0.92843  0.28693  Biso   1.000  H
  C126     1.0000 0.36127  0.97933  0.26633  Biso   1.000  C
  H67      1.0000 0.33757  0.99043  0.26143  Biso   1.000  H
  C127     1.0000 0.40997  0.99813  0.25793  Biso   1.000  C
  H68      1.0000 0.41817  0.01993  0.24693  Biso   1.000  H
  C128     1.0000 0.44987  0.98603  0.26523  Biso   1.000  C
  C129     1.0000 0.51987  0.12523  0.20567  Biso   1.000  C
  H69      1.0000 0.48497  0.11273  0.21073  Biso   1.000  H
  C130     1.0000 0.53997  0.16453  0.19024  Biso   1.000  C
  H70      1.0000 0.51787  0.17753  0.18533  Biso   1.000  H
  O21      1.0000 0.15377  0.03050  0.76980  Biso   1.000  O
  O22      1.0000 0.12593  0.97560  0.79632  Biso   1.000  O
  O23      1.0000 0.09478  0.08833  0.82738  Biso   1.000  O
  O24      1.0000 0.08745  0.09045  0.73601  Biso   1.000  O
  C131     1.0000 0.16166  0.00704  0.78395  Biso   1.000  C
  C132     1.0000 0.21882  0.01650  0.78652  Biso   1.000  C
  C133     1.0000 0.22983  0.98970  0.80052  Biso   1.000  C
  H71      1.0000 0.20143  0.96507  0.80847  Biso   1.000  H
  C134     1.0000 0.28283  0.99797  0.80339  Biso   1.000  C
  H72      1.0000 0.28953  0.97927  0.81307  Biso   1.000  H
  C135     1.0000 0.32463  0.03417  0.79177  Biso   1.000  C
  C136     1.0000 0.31423  0.06477  0.77839  Biso   1.000  C
  H73      1.0000 0.34313  0.09227  0.77147  Biso   1.000  H
  C137     1.0000 0.26093  0.05447  0.77531  Biso   1.000  C
  H74      1.0000 0.25403  0.07337  0.76577  Biso   1.000  H
  C138     1.0000 0.37993  0.04527  0.79351  Biso   1.000  C
  C139     1.0000 0.42443  0.05017  0.79550  Biso   1.000  C
  C140     1.0000 0.47703  0.05377  0.79676  Biso   1.000  C
  C141     1.0000 0.48613  0.02417  0.81040  Biso   1.000  C
  C142     1.0000 0.44723  0.99237  0.82472  Biso   1.000  C
  H75      1.0000 0.41343  0.99087  0.82447  Biso   1.000  H
  C143     1.0000 0.45603  0.96477  0.83839  Biso   1.000  C
  C144     1.0000 0.51793  0.08747  0.78311  Biso   1.000  C
  C145     1.0000 0.51103  0.12127  0.76853  Biso   1.000  C
  H76      1.0000 0.47813  0.12157  0.76827  Biso   1.000  H
  C146     1.0000 0.54963  0.15167  0.75551  Biso   1.000  C
  C147     1.0000 0.11383  0.14077  0.70074  Biso   1.000  C
  H77      1.0000 0.13703  0.12977  0.70617  Biso   1.000  H
  C148     1.0000 0.12593  0.16917  0.68289  Biso   1.000  C
  H78      1.0000 0.15843  0.17767  0.67657  Biso   1.000  H
  C149     1.0000 0.09783  0.28297  0.61650  Biso   1.000  C
  C150     1.0000 0.04343  0.26327  0.62357  Biso   1.000  C
  H79      1.0000 0.03173  0.24047  0.63437  Biso   1.000  H
  C151     1.0000 0.01053  0.27627  0.61557  Biso   1.000  C
  H80      1.0000 0.97503  0.26177  0.62027  Biso   1.000  H
  C152     1.0000 0.02793  0.31267  0.59967  Biso   1.000  C
  H81      1.0000 0.00423  0.32377  0.59477  Biso   1.000  H
  C153     1.0000 0.07663  0.33147  0.59127  Biso   1.000  C
  H82      1.0000 0.08483  0.35327  0.58027  Biso   1.000  H
  C154     1.0000 0.11653  0.31937  0.59857  Biso   1.000  C
  C155     1.0000 0.18653  0.45857  0.53901  Biso   1.000  C
  H83      1.0000 0.15163  0.44607  0.54407  Biso   1.000  H
  C156     1.0000 0.20663  0.49787  0.52358  Biso   1.000  C
  H84      1.0000 0.18453  0.51087  0.51867  Biso   1.000  H
  O25      1.0000 0.63617  0.45661  0.10313  Biso   1.000  O
  O26      1.0000 0.69107  0.48367  0.12965  Biso   1.000  O
  O27      1.0000 0.57834  0.33979  0.16071  Biso   1.000  O
  O28      1.0000 0.57622  0.33034  0.06934  Biso   1.000  O
  C157     1.0000 0.65963  0.48796  0.11728  Biso   1.000  C
  C158     1.0000 0.65017  0.53566  0.11985  Biso   1.000  C
  C159     1.0000 0.67697  0.57347  0.13385  Biso   1.000  C
  H85      1.0000 0.70160  0.56970  0.14180  Biso   1.000  H
  C160     1.0000 0.66870  0.61820  0.13672  Biso   1.000  C
  H86      1.0000 0.68740  0.64360  0.14640  Biso   1.000  H
  C161     1.0000 0.63250  0.62380  0.12510  Biso   1.000  C
  C162     1.0000 0.60190  0.58280  0.11172  Biso   1.000  C
  H87      1.0000 0.57440  0.58420  0.10480  Biso   1.000  H
  C163     1.0000 0.61220  0.53980  0.10864  Biso   1.000  C
  H88      1.0000 0.59330  0.51400  0.09910  Biso   1.000  H
  C164     1.0000 0.62140  0.66800  0.12684  Biso   1.000  C
  C165     1.0000 0.61650  0.70760  0.12883  Biso   1.000  C
  C166     1.0000 0.61290  0.75660  0.13009  Biso   1.000  C
  C167     1.0000 0.64250  0.79530  0.14373  Biso   1.000  C
  C168     1.0000 0.67430  0.78820  0.15805  Biso   1.000  C
  H89      1.0000 0.67580  0.75590  0.15780  Biso   1.000  H
  C169     1.0000 0.70190  0.82460  0.17172  Biso   1.000  C
  C170     1.0000 0.57920  0.76380  0.11644  Biso   1.000  C
  C171     1.0000 0.54540  0.72310  0.10186  Biso   1.000  C
  H90      1.0000 0.54510  0.68990  0.10160  Biso   1.000  H
  C172     1.0000 0.51500  0.73130  0.08884  Biso   1.000  C
  C173     1.0000 0.52590  0.30640  0.03407  Biso   1.000  C
  H91      1.0000 0.53690  0.34060  0.03950  Biso   1.000  H
  C174     1.0000 0.49750  0.29010  0.01622  Biso   1.000  C
  H92      1.0000 0.48900  0.31410  0.00990  Biso   1.000  H
  C175     1.0000 0.38370  0.14820  0.94983  Biso   1.000  C
  C176     1.0000 0.40340  0.11350  0.95690  Biso   1.000  C
  H93      1.0000 0.42620  0.12460  0.96770  Biso   1.000  H
  C177     1.0000 0.39040  0.06760  0.94890  Biso   1.000  C
  H94      1.0000 0.40490  0.04660  0.95360  Biso   1.000  H
  C178     1.0000 0.35400  0.04860  0.93300  Biso   1.000  C
  H95      1.0000 0.34290  0.01380  0.92810  Biso   1.000  H
  C179     1.0000 0.33520  0.07850  0.92460  Biso   1.000  C
  H96      1.0000 0.31340  0.06490  0.91360  Biso   1.000  H
  C180     1.0000 0.34730  0.13050  0.93190  Biso   1.000  C
  C181     1.0000 0.20810  0.06130  0.87234  Biso   1.000  C
  H97      1.0000 0.22060  0.03890  0.87740  Biso   1.000  H
  C182     1.0000 0.16880  0.04210  0.85691  Biso   1.000  C
  H98      1.0000 0.15580  0.00700  0.85200  Biso   1.000  H
  O29      1.0000 0.30284  0.78994  0.43646  Biso   1.000  O
  O30      1.0000 0.35774  0.81700  0.46298  Biso   1.000  O
  O31      1.0000 0.24501  0.67312  0.49404  Biso   1.000  O
  O32      1.0000 0.24289  0.66367  0.40267  Biso   1.000  O
  C183     1.0000 0.32630  0.82129  0.45061  Biso   1.000  C
  C184     1.0000 0.31684  0.86899  0.45318  Biso   1.000  C
  C185     1.0000 0.34364  0.90680  0.46718  Biso   1.000  C
  H99      1.0000 0.36827  0.90303  0.47513  Biso   1.000  H
  C186     1.0000 0.33537  0.95153  0.47005  Biso   1.000  C
  H100     1.0000 0.35407  0.97693  0.47973  Biso   1.000  H
  C187     1.0000 0.29917  0.95713  0.45843  Biso   1.000  C
  C188     1.0000 0.26857  0.91613  0.44505  Biso   1.000  C
  H101     1.0000 0.24107  0.91753  0.43813  Biso   1.000  H
  C189     1.0000 0.27887  0.87313  0.44197  Biso   1.000  C
  H102     1.0000 0.25997  0.84733  0.43243  Biso   1.000  H
  C190     1.0000 0.28807  0.00133  0.46017  Biso   1.000  C
  C191     1.0000 0.28317  0.04093  0.46216  Biso   1.000  C
  C192     1.0000 0.27957  0.08993  0.46342  Biso   1.000  C
  C193     1.0000 0.30917  0.12863  0.47706  Biso   1.000  C
  C194     1.0000 0.34097  0.12153  0.49138  Biso   1.000  C
  H103     1.0000 0.34247  0.08923  0.49113  Biso   1.000  H
  C195     1.0000 0.36857  0.15793  0.50505  Biso   1.000  C
  C196     1.0000 0.24587  0.09713  0.44977  Biso   1.000  C
  C197     1.0000 0.21207  0.05643  0.43519  Biso   1.000  C
  H104     1.0000 0.21177  0.02323  0.43493  Biso   1.000  H
  C198     1.0000 0.18167  0.06463  0.42217  Biso   1.000  C
  C199     1.0000 0.19257  0.63973  0.36740  Biso   1.000  C
  H105     1.0000 0.20357  0.67393  0.37283  Biso   1.000  H
  C200     1.0000 0.16417  0.62343  0.34955  Biso   1.000  C
  H106     1.0000 0.15567  0.64743  0.34323  Biso   1.000  H
  C201     1.0000 0.05037  0.48153  0.28316  Biso   1.000  C
  C202     1.0000 0.07007  0.44683  0.29023  Biso   1.000  C
  H107     1.0000 0.09287  0.45793  0.30103  Biso   1.000  H
  C203     1.0000 0.05707  0.40093  0.28223  Biso   1.000  C
  H108     1.0000 0.07157  0.37993  0.28693  Biso   1.000  H
  C204     1.0000 0.02067  0.38193  0.26633  Biso   1.000  C
  H109     1.0000 0.00957  0.34713  0.26143  Biso   1.000  H
  C205     1.0000 0.00187  0.41183  0.25793  Biso   1.000  C
  H110     1.0000 0.98007  0.39823  0.24693  Biso   1.000  H
  C206     1.0000 0.01397  0.46383  0.26523  Biso   1.000  C
  C207     1.0000 0.87477  0.39463  0.20567  Biso   1.000  C
  H111     1.0000 0.88727  0.37223  0.21073  Biso   1.000  H
  C208     1.0000 0.83547  0.37543  0.19024  Biso   1.000  C
  H112     1.0000 0.82247  0.34033  0.18533  Biso   1.000  H
  O33      1.0000 0.96950  0.12328  0.76980  Biso   1.000  O
  O34      1.0000 0.02440  0.15034  0.79632  Biso   1.000  O
  O35      1.0000 0.91167  0.00646  0.82738  Biso   1.000  O
  O36      1.0000 0.90955  0.99701  0.73601  Biso   1.000  O
  C209     1.0000 0.99296  0.15463  0.78395  Biso   1.000  C
  C210     1.0000 0.98350  0.20233  0.78652  Biso   1.000  C
  C211     1.0000 0.01030  0.24014  0.80052  Biso   1.000  C
  H113     1.0000 0.03493  0.23637  0.80847  Biso   1.000  H
  C212     1.0000 0.00203  0.28487  0.80339  Biso   1.000  C
  H114     1.0000 0.02073  0.31027  0.81307  Biso   1.000  H
  C213     1.0000 0.96583  0.29047  0.79177  Biso   1.000  C
  C214     1.0000 0.93523  0.24947  0.77839  Biso   1.000  C
  H115     1.0000 0.90773  0.25087  0.77147  Biso   1.000  H
  C215     1.0000 0.94553  0.20647  0.77531  Biso   1.000  C
  H116     1.0000 0.92663  0.18067  0.76577  Biso   1.000  H
  C216     1.0000 0.95473  0.33467  0.79351  Biso   1.000  C
  C217     1.0000 0.94983  0.37427  0.79550  Biso   1.000  C
  C218     1.0000 0.94623  0.42327  0.79676  Biso   1.000  C
  C219     1.0000 0.97583  0.46197  0.81040  Biso   1.000  C
  C220     1.0000 0.00763  0.45487  0.82472  Biso   1.000  C
  H117     1.0000 0.00913  0.42257  0.82447  Biso   1.000  H
  C221     1.0000 0.03523  0.49127  0.83839  Biso   1.000  C
  C222     1.0000 0.91253  0.43047  0.78311  Biso   1.000  C
  C223     1.0000 0.87873  0.38977  0.76853  Biso   1.000  C
  H118     1.0000 0.87843  0.35657  0.76827  Biso   1.000  H
  C224     1.0000 0.84833  0.39797  0.75551  Biso   1.000  C
  C225     1.0000 0.85923  0.97307  0.70074  Biso   1.000  C
  H119     1.0000 0.87023  0.00727  0.70617  Biso   1.000  H
  C226     1.0000 0.83083  0.95677  0.68289  Biso   1.000  C
  H120     1.0000 0.82233  0.98077  0.67657  Biso   1.000  H
  C227     1.0000 0.71703  0.81487  0.61650  Biso   1.000  C
  C228     1.0000 0.73673  0.78017  0.62357  Biso   1.000  C
  H121     1.0000 0.75953  0.79127  0.63437  Biso   1.000  H
  C229     1.0000 0.72373  0.73427  0.61557  Biso   1.000  C
  H122     1.0000 0.73823  0.71327  0.62027  Biso   1.000  H
  C230     1.0000 0.68733  0.71527  0.59967  Biso   1.000  C
  H123     1.0000 0.67623  0.68047  0.59477  Biso   1.000  H
  C231     1.0000 0.66853  0.74517  0.59127  Biso   1.000  C
  H124     1.0000 0.64673  0.73157  0.58027  Biso   1.000  H
  C232     1.0000 0.68063  0.79717  0.59857  Biso   1.000  C
  C233     1.0000 0.54143  0.72797  0.53901  Biso   1.000  C
  H125     1.0000 0.55393  0.70557  0.54407  Biso   1.000  H
  C234     1.0000 0.50213  0.70877  0.52358  Biso   1.000  C
  H126     1.0000 0.48913  0.67367  0.51867  Biso   1.000  H
  O37      1.0000 0.82044  0.45661  0.10313  Biso   1.000  O
  O38      1.0000 0.79260  0.48367  0.12965  Biso   1.000  O
  O39      1.0000 0.76145  0.33979  0.16071  Biso   1.000  O
  O40      1.0000 0.75412  0.33034  0.06934  Biso   1.000  O
  C235     1.0000 0.82833  0.48796  0.11728  Biso   1.000  C
  C236     1.0000 0.88549  0.53566  0.11985  Biso   1.000  C
  C237     1.0000 0.89650  0.57347  0.13385  Biso   1.000  C
  H127     1.0000 0.86810  0.56970  0.14180  Biso   1.000  H
  C238     1.0000 0.94950  0.61820  0.13672  Biso   1.000  C
  H128     1.0000 0.95620  0.64360  0.14640  Biso   1.000  H
  C239     1.0000 0.99130  0.62380  0.12510  Biso   1.000  C
  C240     1.0000 0.98090  0.58280  0.11172  Biso   1.000  C
  H129     1.0000 0.00980  0.58420  0.10480  Biso   1.000  H
  C241     1.0000 0.92760  0.53980  0.10864  Biso   1.000  C
  H130     1.0000 0.92070  0.51400  0.09910  Biso   1.000  H
  C242     1.0000 0.04660  0.66800  0.12684  Biso   1.000  C
  C243     1.0000 0.09110  0.70760  0.12883  Biso   1.000  C
  C244     1.0000 0.14370  0.75660  0.13009  Biso   1.000  C
  C245     1.0000 0.15280  0.79530  0.14373  Biso   1.000  C
  C246     1.0000 0.11390  0.78820  0.15805  Biso   1.000  C
  H131     1.0000 0.08010  0.75590  0.15780  Biso   1.000  H
  C247     1.0000 0.12270  0.82460  0.17172  Biso   1.000  C
  C248     1.0000 0.18460  0.76380  0.11644  Biso   1.000  C
  C249     1.0000 0.17770  0.72310  0.10186  Biso   1.000  C
  H132     1.0000 0.14480  0.68990  0.10160  Biso   1.000  H
  C250     1.0000 0.21630  0.73130  0.08884  Biso   1.000  C
  C251     1.0000 0.78050  0.30640  0.03407  Biso   1.000  C
  H133     1.0000 0.80370  0.34060  0.03950  Biso   1.000  H
  C252     1.0000 0.79260  0.29010  0.01622  Biso   1.000  C
  H134     1.0000 0.82510  0.31410  0.00990  Biso   1.000  H
  C253     1.0000 0.76450  0.14820  0.94983  Biso   1.000  C
  C254     1.0000 0.71010  0.11350  0.95690  Biso   1.000  C
  H135     1.0000 0.69840  0.12460  0.96770  Biso   1.000  H
  C255     1.0000 0.67720  0.06760  0.94890  Biso   1.000  C
  H136     1.0000 0.64170  0.04660  0.95360  Biso   1.000  H
  C256     1.0000 0.69460  0.04860  0.93300  Biso   1.000  C
  H137     1.0000 0.67090  0.01380  0.92810  Biso   1.000  H
  C257     1.0000 0.74330  0.07850  0.92460  Biso   1.000  C
  H138     1.0000 0.75150  0.06490  0.91360  Biso   1.000  H
  C258     1.0000 0.78320  0.13050  0.93190  Biso   1.000  C
  C259     1.0000 0.85320  0.06130  0.87234  Biso   1.000  C
  H139     1.0000 0.81830  0.03890  0.87740  Biso   1.000  H
  C260     1.0000 0.87330  0.04210  0.85691  Biso   1.000  C
  H140     1.0000 0.85120  0.00700  0.85200  Biso   1.000  H
  O41      1.0000 0.48711  0.78994  0.43646  Biso   1.000  O
  O42      1.0000 0.45927  0.81700  0.46298  Biso   1.000  O
  O43      1.0000 0.42812  0.67312  0.49404  Biso   1.000  O
  O44      1.0000 0.42079  0.66367  0.40267  Biso   1.000  O
  C261     1.0000 0.49500  0.82129  0.45061  Biso   1.000  C
  C262     1.0000 0.55216  0.86899  0.45318  Biso   1.000  C
  C263     1.0000 0.56317  0.90680  0.46718  Biso   1.000  C
  H141     1.0000 0.53477  0.90303  0.47513  Biso   1.000  H
  C264     1.0000 0.61617  0.95153  0.47005  Biso   1.000  C
  H142     1.0000 0.62287  0.97693  0.47973  Biso   1.000  H
  C265     1.0000 0.65797  0.95713  0.45843  Biso   1.000  C
  C266     1.0000 0.64757  0.91613  0.44505  Biso   1.000  C
  H143     1.0000 0.67647  0.91753  0.43813  Biso   1.000  H
  C267     1.0000 0.59427  0.87313  0.44197  Biso   1.000  C
  H144     1.0000 0.58737  0.84733  0.43243  Biso   1.000  H
  C268     1.0000 0.71327  0.00133  0.46017  Biso   1.000  C
  C269     1.0000 0.75777  0.04093  0.46216  Biso   1.000  C
  C270     1.0000 0.81037  0.08993  0.46342  Biso   1.000  C
  C271     1.0000 0.81947  0.12863  0.47706  Biso   1.000  C
  C272     1.0000 0.78057  0.12153  0.49138  Biso   1.000  C
  H145     1.0000 0.74677  0.08923  0.49113  Biso   1.000  H
  C273     1.0000 0.78937  0.15793  0.50505  Biso   1.000  C
  C274     1.0000 0.85127  0.09713  0.44977  Biso   1.000  C
  C275     1.0000 0.84437  0.05643  0.43519  Biso   1.000  C
  H146     1.0000 0.81147  0.02323  0.43493  Biso   1.000  H
  C276     1.0000 0.88297  0.06463  0.42217  Biso   1.000  C
  C277     1.0000 0.44717  0.63973  0.36740  Biso   1.000  C
  H147     1.0000 0.47037  0.67393  0.37283  Biso   1.000  H
  C278     1.0000 0.45927  0.62343  0.34955  Biso   1.000  C
  H148     1.0000 0.49177  0.64743  0.34323  Biso   1.000  H
  C279     1.0000 0.43117  0.48153  0.28316  Biso   1.000  C
  C280     1.0000 0.37677  0.44683  0.29023  Biso   1.000  C
  H149     1.0000 0.36507  0.45793  0.30103  Biso   1.000  H
  C281     1.0000 0.34387  0.40093  0.28223  Biso   1.000  C
  H150     1.0000 0.30837  0.37993  0.28693  Biso   1.000  H
  C282     1.0000 0.36127  0.38193  0.26633  Biso   1.000  C
  H151     1.0000 0.33757  0.34713  0.26143  Biso   1.000  H
  C283     1.0000 0.40997  0.41183  0.25793  Biso   1.000  C
  H152     1.0000 0.41817  0.39823  0.24693  Biso   1.000  H
  C284     1.0000 0.44987  0.46383  0.26523  Biso   1.000  C
  C285     1.0000 0.51987  0.39463  0.20567  Biso   1.000  C
  H153     1.0000 0.48497  0.37223  0.21073  Biso   1.000  H
  C286     1.0000 0.53997  0.37543  0.19024  Biso   1.000  C
  H154     1.0000 0.51787  0.34033  0.18533  Biso   1.000  H
  O45      1.0000 0.15377  0.12328  0.76980  Biso   1.000  O
  O46      1.0000 0.12593  0.15034  0.79632  Biso   1.000  O
  O47      1.0000 0.09478  0.00646  0.82738  Biso   1.000  O
  O48      1.0000 0.08745  0.99701  0.73601  Biso   1.000  O
  C287     1.0000 0.16166  0.15463  0.78395  Biso   1.000  C
  C288     1.0000 0.21882  0.20233  0.78652  Biso   1.000  C
  C289     1.0000 0.22983  0.24014  0.80052  Biso   1.000  C
  H155     1.0000 0.20143  0.23637  0.80847  Biso   1.000  H
  C290     1.0000 0.28283  0.28487  0.80339  Biso   1.000  C
  H156     1.0000 0.28953  0.31027  0.81307  Biso   1.000  H
  C291     1.0000 0.32463  0.29047  0.79177  Biso   1.000  C
  C292     1.0000 0.31423  0.24947  0.77839  Biso   1.000  C
  H157     1.0000 0.34313  0.25087  0.77147  Biso   1.000  H
  C293     1.0000 0.26093  0.20647  0.77531  Biso   1.000  C
  H158     1.0000 0.25403  0.18067  0.76577  Biso   1.000  H
  C294     1.0000 0.37993  0.33467  0.79351  Biso   1.000  C
  C295     1.0000 0.42443  0.37427  0.79550  Biso   1.000  C
  C296     1.0000 0.47703  0.42327  0.79676  Biso   1.000  C
  C297     1.0000 0.48613  0.46197  0.81040  Biso   1.000  C
  C298     1.0000 0.44723  0.45487  0.82472  Biso   1.000  C
  H159     1.0000 0.41343  0.42257  0.82447  Biso   1.000  H
  C299     1.0000 0.45603  0.49127  0.83839  Biso   1.000  C
  C300     1.0000 0.51793  0.43047  0.78311  Biso   1.000  C
  C301     1.0000 0.51103  0.38977  0.76853  Biso   1.000  C
  H160     1.0000 0.47813  0.35657  0.76827  Biso   1.000  H
  C302     1.0000 0.54963  0.39797  0.75551  Biso   1.000  C
  C303     1.0000 0.11383  0.97307  0.70074  Biso   1.000  C
  H161     1.0000 0.13703  0.00727  0.70617  Biso   1.000  H
  C304     1.0000 0.12593  0.95677  0.68289  Biso   1.000  C
  H162     1.0000 0.15843  0.98077  0.67657  Biso   1.000  H
  C305     1.0000 0.09783  0.81487  0.61650  Biso   1.000  C
  C306     1.0000 0.04343  0.78017  0.62357  Biso   1.000  C
  H163     1.0000 0.03173  0.79127  0.63437  Biso   1.000  H
  C307     1.0000 0.01053  0.73427  0.61557  Biso   1.000  C
  H164     1.0000 0.97503  0.71327  0.62027  Biso   1.000  H
  C308     1.0000 0.02793  0.71527  0.59967  Biso   1.000  C
  H165     1.0000 0.00423  0.68047  0.59477  Biso   1.000  H
  C309     1.0000 0.07663  0.74517  0.59127  Biso   1.000  C
  H166     1.0000 0.08483  0.73157  0.58027  Biso   1.000  H
  C310     1.0000 0.11653  0.79717  0.59857  Biso   1.000  C
  C311     1.0000 0.18653  0.72797  0.53901  Biso   1.000  C
  H167     1.0000 0.15163  0.70557  0.54407  Biso   1.000  H
  C312     1.0000 0.20663  0.70877  0.52358  Biso   1.000  C
  H168     1.0000 0.18453  0.67367  0.51867  Biso   1.000  H
  O49      1.0000 0.63617  0.17956  0.10313  Biso   1.000  O
  O50      1.0000 0.69107  0.20740  0.12965  Biso   1.000  O
  O51      1.0000 0.57834  0.23855  0.16071  Biso   1.000  O
  O52      1.0000 0.57622  0.24588  0.06934  Biso   1.000  O
  C313     1.0000 0.65963  0.17167  0.11728  Biso   1.000  C
  C314     1.0000 0.65017  0.11451  0.11985  Biso   1.000  C
  C315     1.0000 0.67697  0.10350  0.13385  Biso   1.000  C
  H169     1.0000 0.70160  0.13190  0.14180  Biso   1.000  H
  C316     1.0000 0.66870  0.05050  0.13672  Biso   1.000  C
  H170     1.0000 0.68740  0.04380  0.14640  Biso   1.000  H
  C317     1.0000 0.63250  0.00870  0.12510  Biso   1.000  C
  C318     1.0000 0.60190  0.01910  0.11172  Biso   1.000  C
  H171     1.0000 0.57440  0.99020  0.10480  Biso   1.000  H
  C319     1.0000 0.61220  0.07240  0.10864  Biso   1.000  C
  H172     1.0000 0.59330  0.07930  0.09910  Biso   1.000  H
  C320     1.0000 0.62140  0.95340  0.12684  Biso   1.000  C
  C321     1.0000 0.61650  0.90890  0.12883  Biso   1.000  C
  C322     1.0000 0.61290  0.85630  0.13009  Biso   1.000  C
  C323     1.0000 0.64250  0.84720  0.14373  Biso   1.000  C
  C324     1.0000 0.67430  0.88610  0.15805  Biso   1.000  C
  H173     1.0000 0.67580  0.91990  0.15780  Biso   1.000  H
  C325     1.0000 0.70190  0.87730  0.17172  Biso   1.000  C
  C326     1.0000 0.57920  0.81540  0.11644  Biso   1.000  C
  C327     1.0000 0.54540  0.82230  0.10186  Biso   1.000  C
  H174     1.0000 0.54510  0.85520  0.10160  Biso   1.000  H
  C328     1.0000 0.51500  0.78370  0.08884  Biso   1.000  C
  C329     1.0000 0.52590  0.21950  0.03407  Biso   1.000  C
  H175     1.0000 0.53690  0.19630  0.03950  Biso   1.000  H
  C330     1.0000 0.49750  0.20740  0.01622  Biso   1.000  C
  H176     1.0000 0.48900  0.17490  0.00990  Biso   1.000  H
  C331     1.0000 0.38370  0.23550  0.94983  Biso   1.000  C
  C332     1.0000 0.40340  0.28990  0.95690  Biso   1.000  C
  H177     1.0000 0.42620  0.30160  0.96770  Biso   1.000  H
  C333     1.0000 0.39040  0.32280  0.94890  Biso   1.000  C
  H178     1.0000 0.40490  0.35830  0.95360  Biso   1.000  H
  C334     1.0000 0.35400  0.30540  0.93300  Biso   1.000  C
  H179     1.0000 0.34290  0.32910  0.92810  Biso   1.000  H
  C335     1.0000 0.33520  0.25670  0.92460  Biso   1.000  C
  H180     1.0000 0.31340  0.24850  0.91360  Biso   1.000  H
  C336     1.0000 0.34730  0.21680  0.93190  Biso   1.000  C
  C337     1.0000 0.20810  0.14680  0.87234  Biso   1.000  C
  H181     1.0000 0.22060  0.18170  0.87740  Biso   1.000  H
  C338     1.0000 0.16880  0.12670  0.85691  Biso   1.000  C
  H182     1.0000 0.15580  0.14880  0.85200  Biso   1.000  H
  O53      1.0000 0.30284  0.51289  0.43646  Biso   1.000  O
  O54      1.0000 0.35774  0.54073  0.46298  Biso   1.000  O
  O55      1.0000 0.24501  0.57188  0.49404  Biso   1.000  O
  O56      1.0000 0.24289  0.57921  0.40267  Biso   1.000  O
  C339     1.0000 0.32630  0.50500  0.45061  Biso   1.000  C
  C340     1.0000 0.31684  0.44784  0.45318  Biso   1.000  C
  C341     1.0000 0.34364  0.43683  0.46718  Biso   1.000  C
  H183     1.0000 0.36827  0.46523  0.47513  Biso   1.000  H
  C342     1.0000 0.33537  0.38383  0.47005  Biso   1.000  C
  H184     1.0000 0.35407  0.37713  0.47973  Biso   1.000  H
  C343     1.0000 0.29917  0.34203  0.45843  Biso   1.000  C
  C344     1.0000 0.26857  0.35243  0.44505  Biso   1.000  C
  H185     1.0000 0.24107  0.32353  0.43813  Biso   1.000  H
  C345     1.0000 0.27887  0.40573  0.44197  Biso   1.000  C
  H186     1.0000 0.25997  0.41263  0.43243  Biso   1.000  H
  C346     1.0000 0.28807  0.28673  0.46017  Biso   1.000  C
  C347     1.0000 0.28317  0.24223  0.46216  Biso   1.000  C
  C348     1.0000 0.27957  0.18963  0.46342  Biso   1.000  C
  C349     1.0000 0.30917  0.18053  0.47706  Biso   1.000  C
  C350     1.0000 0.34097  0.21943  0.49138  Biso   1.000  C
  H187     1.0000 0.34247  0.25323  0.49113  Biso   1.000  H
  C351     1.0000 0.36857  0.21063  0.50505  Biso   1.000  C
  C352     1.0000 0.24587  0.14873  0.44977  Biso   1.000  C
  C353     1.0000 0.21207  0.15563  0.43519  Biso   1.000  C
  H188     1.0000 0.21177  0.18853  0.43493  Biso   1.000  H
  C354     1.0000 0.18167  0.11703  0.42217  Biso   1.000  C
  C355     1.0000 0.19257  0.55283  0.36740  Biso   1.000  C
  H189     1.0000 0.20357  0.52963  0.37283  Biso   1.000  H
  C356     1.0000 0.16417  0.54073  0.34955  Biso   1.000  C
  H190     1.0000 0.15567  0.50823  0.34323  Biso   1.000  H
  C357     1.0000 0.05037  0.56883  0.28316  Biso   1.000  C
  C358     1.0000 0.07007  0.62323  0.29023  Biso   1.000  C
  H191     1.0000 0.09287  0.63493  0.30103  Biso   1.000  H
  C359     1.0000 0.05707  0.65613  0.28223  Biso   1.000  C
  H192     1.0000 0.07157  0.69163  0.28693  Biso   1.000  H
  C360     1.0000 0.02067  0.63873  0.26633  Biso   1.000  C
  H193     1.0000 0.00957  0.66243  0.26143  Biso   1.000  H
  C361     1.0000 0.00187  0.59003  0.25793  Biso   1.000  C
  H194     1.0000 0.98007  0.58183  0.24693  Biso   1.000  H
  C362     1.0000 0.01397  0.55013  0.26523  Biso   1.000  C
  C363     1.0000 0.87477  0.48013  0.20567  Biso   1.000  C
  H195     1.0000 0.88727  0.51503  0.21073  Biso   1.000  H
  C364     1.0000 0.83547  0.46003  0.19024  Biso   1.000  C
  H196     1.0000 0.82247  0.48213  0.18533  Biso   1.000  H
  O57      1.0000 0.96950  0.84623  0.76980  Biso   1.000  O
  O58      1.0000 0.02440  0.87407  0.79632  Biso   1.000  O
  O59      1.0000 0.91167  0.90522  0.82738  Biso   1.000  O
  O60      1.0000 0.90955  0.91255  0.73601  Biso   1.000  O
  C365     1.0000 0.99296  0.83834  0.78395  Biso   1.000  C
  C366     1.0000 0.98350  0.78118  0.78652  Biso   1.000  C
  C367     1.0000 0.01030  0.77017  0.80052  Biso   1.000  C
  H197     1.0000 0.03493  0.79857  0.80847  Biso   1.000  H
  C368     1.0000 0.00203  0.71717  0.80339  Biso   1.000  C
  H198     1.0000 0.02073  0.71047  0.81307  Biso   1.000  H
  C369     1.0000 0.96583  0.67537  0.79177  Biso   1.000  C
  C370     1.0000 0.93523  0.68577  0.77839  Biso   1.000  C
  H199     1.0000 0.90773  0.65687  0.77147  Biso   1.000  H
  C371     1.0000 0.94553  0.73907  0.77531  Biso   1.000  C
  H200     1.0000 0.92663  0.74597  0.76577  Biso   1.000  H
  C372     1.0000 0.95473  0.62007  0.79351  Biso   1.000  C
  C373     1.0000 0.94983  0.57557  0.79550  Biso   1.000  C
  C374     1.0000 0.94623  0.52297  0.79676  Biso   1.000  C
  C375     1.0000 0.97583  0.51387  0.81040  Biso   1.000  C
  C376     1.0000 0.00763  0.55277  0.82472  Biso   1.000  C
  H201     1.0000 0.00913  0.58657  0.82447  Biso   1.000  H
  C377     1.0000 0.03523  0.54397  0.83839  Biso   1.000  C
  C378     1.0000 0.91253  0.48207  0.78311  Biso   1.000  C
  C379     1.0000 0.87873  0.48897  0.76853  Biso   1.000  C
  H202     1.0000 0.87843  0.52187  0.76827  Biso   1.000  H
  C380     1.0000 0.84833  0.45037  0.75551  Biso   1.000  C
  C381     1.0000 0.85923  0.88617  0.70074  Biso   1.000  C
  H203     1.0000 0.87023  0.86297  0.70617  Biso   1.000  H
  C382     1.0000 0.83083  0.87407  0.68289  Biso   1.000  C
  H204     1.0000 0.82233  0.84157  0.67657  Biso   1.000  H
  C383     1.0000 0.71703  0.90217  0.61650  Biso   1.000  C
  C384     1.0000 0.73673  0.95657  0.62357  Biso   1.000  C
  H205     1.0000 0.75953  0.96827  0.63437  Biso   1.000  H
  C385     1.0000 0.72373  0.98947  0.61557  Biso   1.000  C
  H206     1.0000 0.73823  0.02497  0.62027  Biso   1.000  H
  C386     1.0000 0.68733  0.97207  0.59967  Biso   1.000  C
  H207     1.0000 0.67623  0.99577  0.59477  Biso   1.000  H
  C387     1.0000 0.66853  0.92337  0.59127  Biso   1.000  C
  H208     1.0000 0.64673  0.91517  0.58027  Biso   1.000  H
  C388     1.0000 0.68063  0.88347  0.59857  Biso   1.000  C
  C389     1.0000 0.54143  0.81347  0.53901  Biso   1.000  C
  H209     1.0000 0.55393  0.84837  0.54407  Biso   1.000  H
  C390     1.0000 0.50213  0.79337  0.52358  Biso   1.000  C
  H210     1.0000 0.48913  0.81547  0.51867  Biso   1.000  H
  O61      1.0000 0.54339  0.36383  0.10313  Biso   1.000  O
  O62      1.0000 0.51633  0.30893  0.12965  Biso   1.000  O
  O63      1.0000 0.66021  0.42166  0.16071  Biso   1.000  O
  O64      1.0000 0.66966  0.42378  0.06934  Biso   1.000  O
  C391     1.0000 0.51204  0.34037  0.11728  Biso   1.000  C
  C392     1.0000 0.46434  0.34983  0.11985  Biso   1.000  C
  C393     1.0000 0.42653  0.32303  0.13385  Biso   1.000  C
  H211     1.0000 0.43030  0.29840  0.14180  Biso   1.000  H
  C394     1.0000 0.38180  0.33130  0.13672  Biso   1.000  C
  H212     1.0000 0.35640  0.31260  0.14640  Biso   1.000  H
  C395     1.0000 0.37620  0.36750  0.12510  Biso   1.000  C
  C396     1.0000 0.41720  0.39810  0.11172  Biso   1.000  C
  H213     1.0000 0.41580  0.42560  0.10480  Biso   1.000  H
  C397     1.0000 0.46020  0.38780  0.10864  Biso   1.000  C
  H214     1.0000 0.48600  0.40670  0.09910  Biso   1.000  H
  C398     1.0000 0.33200  0.37860  0.12684  Biso   1.000  C
  C399     1.0000 0.29240  0.38350  0.12883  Biso   1.000  C
  C400     1.0000 0.24340  0.38710  0.13009  Biso   1.000  C
  C401     1.0000 0.20470  0.35750  0.14373  Biso   1.000  C
  C402     1.0000 0.21180  0.32570  0.15805  Biso   1.000  C
  H215     1.0000 0.24410  0.32420  0.15780  Biso   1.000  H
  C403     1.0000 0.17540  0.29810  0.17172  Biso   1.000  C
  C404     1.0000 0.23620  0.42080  0.11644  Biso   1.000  C
  C405     1.0000 0.27690  0.45460  0.10186  Biso   1.000  C
  H216     1.0000 0.31010  0.45490  0.10160  Biso   1.000  H
  C406     1.0000 0.26870  0.48500  0.08884  Biso   1.000  C
  C407     1.0000 0.69360  0.47410  0.03407  Biso   1.000  C
  H217     1.0000 0.65940  0.46310  0.03950  Biso   1.000  H
  C408     1.0000 0.70990  0.50250  0.01622  Biso   1.000  C
  H218     1.0000 0.68590  0.51100  0.00990  Biso   1.000  H
  C409     1.0000 0.85180  0.61630  0.94983  Biso   1.000  C
  C410     1.0000 0.88650  0.59660  0.95690  Biso   1.000  C
  H219     1.0000 0.87540  0.57380  0.96770  Biso   1.000  H
  C411     1.0000 0.93240  0.60960  0.94890  Biso   1.000  C
  H220     1.0000 0.95340  0.59510  0.95360  Biso   1.000  H
  C412     1.0000 0.95140  0.64600  0.93300  Biso   1.000  C
  H221     1.0000 0.98620  0.65710  0.92810  Biso   1.000  H
  C413     1.0000 0.92150  0.66480  0.92460  Biso   1.000  C
  H222     1.0000 0.93510  0.68660  0.91360  Biso   1.000  H
  C414     1.0000 0.86950  0.65270  0.93190  Biso   1.000  C
  C415     1.0000 0.93870  0.79190  0.87234  Biso   1.000  C
  H223     1.0000 0.96110  0.77940  0.87740  Biso   1.000  H
  C416     1.0000 0.95790  0.83120  0.85691  Biso   1.000  C
  H224     1.0000 0.99300  0.84420  0.85200  Biso   1.000  H
  O65      1.0000 0.21006  0.69716  0.43646  Biso   1.000  O
  O66      1.0000 0.18300  0.64226  0.46298  Biso   1.000  O
  O67      1.0000 0.32688  0.75499  0.49404  Biso   1.000  O
  O68      1.0000 0.33633  0.75711  0.40267  Biso   1.000  O
  C417     1.0000 0.17871  0.67370  0.45061  Biso   1.000  C
  C418     1.0000 0.13101  0.68316  0.45318  Biso   1.000  C
  C419     1.0000 0.09320  0.65636  0.46718  Biso   1.000  C
  H225     1.0000 0.09697  0.63173  0.47513  Biso   1.000  H
  C420     1.0000 0.04847  0.66463  0.47005  Biso   1.000  C
  H226     1.0000 0.02307  0.64593  0.47973  Biso   1.000  H
  C421     1.0000 0.04287  0.70083  0.45843  Biso   1.000  C
  C422     1.0000 0.08387  0.73143  0.44505  Biso   1.000  C
  H227     1.0000 0.08247  0.75893  0.43813  Biso   1.000  H
  C423     1.0000 0.12687  0.72113  0.44197  Biso   1.000  C
  H228     1.0000 0.15267  0.74003  0.43243  Biso   1.000  H
  C424     1.0000 0.99867  0.71193  0.46017  Biso   1.000  C
  C425     1.0000 0.95907  0.71683  0.46216  Biso   1.000  C
  C426     1.0000 0.91007  0.72043  0.46342  Biso   1.000  C
  C427     1.0000 0.87137  0.69083  0.47706  Biso   1.000  C
  C428     1.0000 0.87847  0.65903  0.49138  Biso   1.000  C
  H229     1.0000 0.91077  0.65753  0.49113  Biso   1.000  H
  C429     1.0000 0.84207  0.63143  0.50505  Biso   1.000  C
  C430     1.0000 0.90287  0.75413  0.44977  Biso   1.000  C
  C431     1.0000 0.94357  0.78793  0.43519  Biso   1.000  C
  H230     1.0000 0.97677  0.78823  0.43493  Biso   1.000  H
  C432     1.0000 0.93537  0.81833  0.42217  Biso   1.000  C
  C433     1.0000 0.36027  0.80743  0.36740  Biso   1.000  C
  H231     1.0000 0.32607  0.79643  0.37283  Biso   1.000  H
  C434     1.0000 0.37657  0.83583  0.34955  Biso   1.000  C
  H232     1.0000 0.35257  0.84433  0.34323  Biso   1.000  H
  C435     1.0000 0.51847  0.94963  0.28316  Biso   1.000  C
  C436     1.0000 0.55317  0.92993  0.29023  Biso   1.000  C
  H233     1.0000 0.54207  0.90713  0.30103  Biso   1.000  H
  C437     1.0000 0.59907  0.94293  0.28223  Biso   1.000  C
  H234     1.0000 0.62007  0.92843  0.28693  Biso   1.000  H
  C438     1.0000 0.61807  0.97933  0.26633  Biso   1.000  C
  H235     1.0000 0.65287  0.99043  0.26143  Biso   1.000  H
  C439     1.0000 0.58817  0.99813  0.25793  Biso   1.000  C
  H236     1.0000 0.60177  0.01993  0.24693  Biso   1.000  H
  C440     1.0000 0.53617  0.98603  0.26523  Biso   1.000  C
  C441     1.0000 0.60537  0.12523  0.20567  Biso   1.000  C
  H237     1.0000 0.62777  0.11273  0.21073  Biso   1.000  H
  C442     1.0000 0.62457  0.16453  0.19024  Biso   1.000  C
  H238     1.0000 0.65967  0.17753  0.18533  Biso   1.000  H
  O69      1.0000 0.87672  0.03050  0.76980  Biso   1.000  O
  O70      1.0000 0.84966  0.97560  0.79632  Biso   1.000  O
  O71      1.0000 0.99354  0.08833  0.82738  Biso   1.000  O
  O72      1.0000 0.00299  0.09045  0.73601  Biso   1.000  O
  C443     1.0000 0.84537  0.00704  0.78395  Biso   1.000  C
  C444     1.0000 0.79767  0.01650  0.78652  Biso   1.000  C
  C445     1.0000 0.75986  0.98970  0.80052  Biso   1.000  C
  H239     1.0000 0.76363  0.96507  0.80847  Biso   1.000  H
  C446     1.0000 0.71513  0.99797  0.80339  Biso   1.000  C
  H240     1.0000 0.68973  0.97927  0.81307  Biso   1.000  H
  C447     1.0000 0.70953  0.03417  0.79177  Biso   1.000  C
  C448     1.0000 0.75053  0.06477  0.77839  Biso   1.000  C
  H241     1.0000 0.74913  0.09227  0.77147  Biso   1.000  H
  C449     1.0000 0.79353  0.05447  0.77531  Biso   1.000  C
  H242     1.0000 0.81933  0.07337  0.76577  Biso   1.000  H
  C450     1.0000 0.66533  0.04527  0.79351  Biso   1.000  C
  C451     1.0000 0.62573  0.05017  0.79550  Biso   1.000  C
  C452     1.0000 0.57673  0.05377  0.79676  Biso   1.000  C
  C453     1.0000 0.53803  0.02417  0.81040  Biso   1.000  C
  C454     1.0000 0.54513  0.99237  0.82472  Biso   1.000  C
  H243     1.0000 0.57743  0.99087  0.82447  Biso   1.000  H
  C455     1.0000 0.50873  0.96477  0.83839  Biso   1.000  C
  C456     1.0000 0.56953  0.08747  0.78311  Biso   1.000  C
  C457     1.0000 0.61023  0.12127  0.76853  Biso   1.000  C
  H244     1.0000 0.64343  0.12157  0.76827  Biso   1.000  H
  C458     1.0000 0.60203  0.15167  0.75551  Biso   1.000  C
  C459     1.0000 0.02693  0.14077  0.70074  Biso   1.000  C
  H245     1.0000 0.99273  0.12977  0.70617  Biso   1.000  H
  C460     1.0000 0.04323  0.16917  0.68289  Biso   1.000  C
  H246     1.0000 0.01923  0.17767  0.67657  Biso   1.000  H
  C461     1.0000 0.18513  0.28297  0.61650  Biso   1.000  C
  C462     1.0000 0.21983  0.26327  0.62357  Biso   1.000  C
  H247     1.0000 0.20873  0.24047  0.63437  Biso   1.000  H
  C463     1.0000 0.26573  0.27627  0.61557  Biso   1.000  C
  H248     1.0000 0.28673  0.26177  0.62027  Biso   1.000  H
  C464     1.0000 0.28473  0.31267  0.59967  Biso   1.000  C
  H249     1.0000 0.31953  0.32377  0.59477  Biso   1.000  H
  C465     1.0000 0.25483  0.33147  0.59127  Biso   1.000  C
  H250     1.0000 0.26843  0.35327  0.58027  Biso   1.000  H
  C466     1.0000 0.20283  0.31937  0.59857  Biso   1.000  C
  C467     1.0000 0.27203  0.45857  0.53901  Biso   1.000  C
  H251     1.0000 0.29443  0.44607  0.54407  Biso   1.000  H
  C468     1.0000 0.29123  0.49787  0.52358  Biso   1.000  C
  H252     1.0000 0.32633  0.51087  0.51867  Biso   1.000  H
  Zr1      1.0000 0.70816  0.29184  0.13615  Biso   1.000  Zr
  O73      1.0000 0.71358  0.28642  0.10366  Biso   1.000  O
  C469     1.0000 0.71742  0.28258  0.06190  Biso   1.000  C
  C470     1.0000 0.73175  0.26825  0.04296  Biso   1.000  C
  C471     1.0000 0.75880  0.24120  0.00820  Biso   1.000  C
  C472     1.0000 0.77320  0.22680  0.98910  Biso   1.000  C
  C473     1.0000 0.78500  0.21500  0.97520  Biso   1.000  C
  C474     1.0000 0.80120  0.19880  0.95716  Biso   1.000  C
  C475     1.0000 0.83380  0.16620  0.92486  Biso   1.000  C
  C476     1.0000 0.85250  0.14750  0.90771  Biso   1.000  C
  C477     1.0000 0.86640  0.13360  0.89520  Biso   1.000  C
  C478     1.0000 0.88640  0.11360  0.87965  Biso   1.000  C
  Zr2      1.0000 0.37483  0.62517  0.46949  Biso   1.000  Zr
  O74      1.0000 0.38025  0.61975  0.43699  Biso   1.000  O
  C479     1.0000 0.38409  0.61591  0.39523  Biso   1.000  C
  C480     1.0000 0.39842  0.60158  0.37629  Biso   1.000  C
  C481     1.0000 0.42547  0.57453  0.34153  Biso   1.000  C
  C482     1.0000 0.43987  0.56013  0.32243  Biso   1.000  C
  C483     1.0000 0.45167  0.54833  0.30853  Biso   1.000  C
  C484     1.0000 0.46787  0.53213  0.29049  Biso   1.000  C
  C485     1.0000 0.50047  0.49953  0.25819  Biso   1.000  C
  C486     1.0000 0.51917  0.48083  0.24104  Biso   1.000  C
  C487     1.0000 0.53307  0.46693  0.22853  Biso   1.000  C
  C488     1.0000 0.55307  0.44693  0.21298  Biso   1.000  C
  Zr3      1.0000 0.04149  0.95851  0.80282  Biso   1.000  Zr
  O75      1.0000 0.04691  0.95309  0.77033  Biso   1.000  O
  C489     1.0000 0.05075  0.94925  0.72857  Biso   1.000  C
  C490     1.0000 0.06508  0.93492  0.70963  Biso   1.000  C
  C491     1.0000 0.09213  0.90787  0.67487  Biso   1.000  C
  C492     1.0000 0.10653  0.89347  0.65577  Biso   1.000  C
  C493     1.0000 0.11833  0.88167  0.64187  Biso   1.000  C
  C494     1.0000 0.13453  0.86547  0.62383  Biso   1.000  C
  C495     1.0000 0.16713  0.83287  0.59153  Biso   1.000  C
  C496     1.0000 0.18583  0.81417  0.57438  Biso   1.000  C
  C497     1.0000 0.19973  0.80027  0.56187  Biso   1.000  C
  C498     1.0000 0.21973  0.78027  0.54632  Biso   1.000  C
  Zr4      1.0000 0.70816  0.41632  0.13615  Biso   1.000  Zr
  O76      1.0000 0.71358  0.42716  0.10366  Biso   1.000  O
  C499     1.0000 0.71742  0.43484  0.06190  Biso   1.000  C
  C500     1.0000 0.73175  0.46350  0.04296  Biso   1.000  C
  C501     1.0000 0.75880  0.51760  0.00820  Biso   1.000  C
  C502     1.0000 0.77320  0.54640  0.98910  Biso   1.000  C
  C503     1.0000 0.78500  0.57000  0.97520  Biso   1.000  C
  C504     1.0000 0.80120  0.60240  0.95716  Biso   1.000  C
  C505     1.0000 0.83380  0.66760  0.92486  Biso   1.000  C
  C506     1.0000 0.85250  0.70500  0.90771  Biso   1.000  C
  C507     1.0000 0.86640  0.73280  0.89520  Biso   1.000  C
  C508     1.0000 0.88640  0.77280  0.87965  Biso   1.000  C
  Zr5      1.0000 0.37483  0.74965  0.46949  Biso   1.000  Zr
  O77      1.0000 0.38025  0.76049  0.43699  Biso   1.000  O
  C509     1.0000 0.38409  0.76817  0.39523  Biso   1.000  C
  C510     1.0000 0.39842  0.79683  0.37629  Biso   1.000  C
  C511     1.0000 0.42547  0.85093  0.34153  Biso   1.000  C
  C512     1.0000 0.43987  0.87973  0.32243  Biso   1.000  C
  C513     1.0000 0.45167  0.90333  0.30853  Biso   1.000  C
  C514     1.0000 0.46787  0.93573  0.29049  Biso   1.000  C
  C515     1.0000 0.50047  0.00093  0.25819  Biso   1.000  C
  C516     1.0000 0.51917  0.03833  0.24104  Biso   1.000  C
  C517     1.0000 0.53307  0.06613  0.22853  Biso   1.000  C
  C518     1.0000 0.55307  0.10613  0.21298  Biso   1.000  C
  Zr6      1.0000 0.04149  0.08299  0.80282  Biso   1.000  Zr
  O78      1.0000 0.04691  0.09383  0.77033  Biso   1.000  O
  C519     1.0000 0.05075  0.10151  0.72857  Biso   1.000  C
  C520     1.0000 0.06508  0.13017  0.70963  Biso   1.000  C
  C521     1.0000 0.09213  0.18427  0.67487  Biso   1.000  C
  C522     1.0000 0.10653  0.21307  0.65577  Biso   1.000  C
  C523     1.0000 0.11833  0.23667  0.64187  Biso   1.000  C
  C524     1.0000 0.13453  0.26907  0.62383  Biso   1.000  C
  C525     1.0000 0.16713  0.33427  0.59153  Biso   1.000  C
  C526     1.0000 0.18583  0.37167  0.57438  Biso   1.000  C
  C527     1.0000 0.19973  0.39947  0.56187  Biso   1.000  C
  C528     1.0000 0.21973  0.43947  0.54632  Biso   1.000  C
  Zr7      1.0000 0.58368  0.29184  0.13615  Biso   1.000  Zr
  O79      1.0000 0.57284  0.28642  0.10366  Biso   1.000  O
  C529     1.0000 0.56516  0.28258  0.06190  Biso   1.000  C
  C530     1.0000 0.53650  0.26825  0.04296  Biso   1.000  C
  C531     1.0000 0.48240  0.24120  0.00820  Biso   1.000  C
  C532     1.0000 0.45360  0.22680  0.98910  Biso   1.000  C
  C533     1.0000 0.43000  0.21500  0.97520  Biso   1.000  C
  C534     1.0000 0.39760  0.19880  0.95716  Biso   1.000  C
  C535     1.0000 0.33240  0.16620  0.92486  Biso   1.000  C
  C536     1.0000 0.29500  0.14750  0.90771  Biso   1.000  C
  C537     1.0000 0.26720  0.13360  0.89520  Biso   1.000  C
  C538     1.0000 0.22720  0.11360  0.87965  Biso   1.000  C
  Zr8      1.0000 0.25035  0.62517  0.46949  Biso   1.000  Zr
  O80      1.0000 0.23951  0.61975  0.43699  Biso   1.000  O
  C539     1.0000 0.23183  0.61591  0.39523  Biso   1.000  C
  C540     1.0000 0.20317  0.60158  0.37629  Biso   1.000  C
  C541     1.0000 0.14907  0.57453  0.34153  Biso   1.000  C
  C542     1.0000 0.12027  0.56013  0.32243  Biso   1.000  C
  C543     1.0000 0.09667  0.54833  0.30853  Biso   1.000  C
  C544     1.0000 0.06427  0.53213  0.29049  Biso   1.000  C
  C545     1.0000 0.99907  0.49953  0.25819  Biso   1.000  C
  C546     1.0000 0.96167  0.48083  0.24104  Biso   1.000  C
  C547     1.0000 0.93387  0.46693  0.22853  Biso   1.000  C
  C548     1.0000 0.89387  0.44693  0.21298  Biso   1.000  C
  Zr9      1.0000 0.91701  0.95851  0.80282  Biso   1.000  Zr
  O81      1.0000 0.90617  0.95309  0.77033  Biso   1.000  O
  C549     1.0000 0.89849  0.94925  0.72857  Biso   1.000  C
  C550     1.0000 0.86983  0.93492  0.70963  Biso   1.000  C
  C551     1.0000 0.81573  0.90787  0.67487  Biso   1.000  C
  C552     1.0000 0.78693  0.89347  0.65577  Biso   1.000  C
  C553     1.0000 0.76333  0.88167  0.64187  Biso   1.000  C
  C554     1.0000 0.73093  0.86547  0.62383  Biso   1.000  C
  C555     1.0000 0.66573  0.83287  0.59153  Biso   1.000  C
  C556     1.0000 0.62833  0.81417  0.57438  Biso   1.000  C
  C557     1.0000 0.60053  0.80027  0.56187  Biso   1.000  C
  C558     1.0000 0.56053  0.78027  0.54632  Biso   1.000  C
  Zr10     1.0000 0.62514  0.25028  0.09505  Biso   1.000  Zr
  O82      1.0000 0.63164  0.26328  0.12423  Biso   1.000  O
  C559     1.0000 0.61135  0.22270  0.16661  Biso   1.000  C
  C560     1.0000 0.59165  0.18330  0.18274  Biso   1.000  C
  Zr11     1.0000 0.29181  0.58361  0.42838  Biso   1.000  Zr
  O83      1.0000 0.29831  0.59661  0.45756  Biso   1.000  O
  C561     1.0000 0.27802  0.55603  0.49994  Biso   1.000  C
  C562     1.0000 0.25832  0.51663  0.51607  Biso   1.000  C
  Zr12     1.0000 0.95847  0.91695  0.76172  Biso   1.000  Zr
  O84      1.0000 0.96497  0.92995  0.79090  Biso   1.000  O
  C563     1.0000 0.94468  0.88937  0.83328  Biso   1.000  C
  C564     1.0000 0.92498  0.84997  0.84941  Biso   1.000  C
  Zr13     1.0000 0.74972  0.37486  0.09505  Biso   1.000  Zr
  O85      1.0000 0.73672  0.36836  0.12423  Biso   1.000  O
  C565     1.0000 0.77730  0.38865  0.16661  Biso   1.000  C
  C566     1.0000 0.81670  0.40835  0.18274  Biso   1.000  C
  Zr14     1.0000 0.41639  0.70819  0.42838  Biso   1.000  Zr
  O86      1.0000 0.40339  0.70169  0.45756  Biso   1.000  O
  C567     1.0000 0.44397  0.72198  0.49994  Biso   1.000  C
  C568     1.0000 0.48337  0.74168  0.51607  Biso   1.000  C
  Zr15     1.0000 0.08305  0.04153  0.76172  Biso   1.000  Zr
  O87      1.0000 0.07005  0.03503  0.79090  Biso   1.000  O
  C569     1.0000 0.11063  0.05532  0.83328  Biso   1.000  C
  C570     1.0000 0.15003  0.07502  0.84941  Biso   1.000  C
  Zr16     1.0000 0.62514  0.37486  0.09505  Biso   1.000  Zr
  O88      1.0000 0.63164  0.36836  0.12423  Biso   1.000  O
  C571     1.0000 0.61135  0.38865  0.16661  Biso   1.000  C
  C572     1.0000 0.59165  0.40835  0.18274  Biso   1.000  C
  Zr17     1.0000 0.29181  0.70819  0.42838  Biso   1.000  Zr
  O89      1.0000 0.29831  0.70169  0.45756  Biso   1.000  O
  C573     1.0000 0.27802  0.72198  0.49994  Biso   1.000  C
  C574     1.0000 0.25832  0.74168  0.51607  Biso   1.000  C
  Zr18     1.0000 0.95847  0.04153  0.76172  Biso   1.000  Zr
  O90      1.0000 0.96497  0.03503  0.79090  Biso   1.000  O
  C575     1.0000 0.94468  0.05532  0.83328  Biso   1.000  C
  C576     1.0000 0.92498  0.07502  0.84941  Biso   1.000  C
  O91      1.0000 0.66667  0.33333  0.08924  Biso   1.000  O
  O92      1.0000 0.66667  0.33333  0.15047  Biso   1.000  O
  O93      1.0000 0.33333  0.66667  0.42257  Biso   1.000  O
  O94      1.0000 0.33333  0.66667  0.48380  Biso   1.000  O
  O95      1.0000 0.00000  0.00000  0.75591  Biso   1.000  O
  O96      1.0000 0.00000  0.00000  0.81714  Biso   1.000  O
  O97      1.0000 0.17956  0.54339  0.89687  Biso   1.000  O
  O98      1.0000 0.20740  0.51633  0.87035  Biso   1.000  O
  O99      1.0000 0.23855  0.66021  0.83929  Biso   1.000  O
  O100     1.0000 0.24588  0.66966  0.93066  Biso   1.000  O
  C577     1.0000 0.17167  0.51204  0.88272  Biso   1.000  C
  C578     1.0000 0.11451  0.46434  0.88015  Biso   1.000  C
  C579     1.0000 0.10350  0.42653  0.86615  Biso   1.000  C
  H253     1.0000 0.13190  0.43030  0.85820  Biso   1.000  H
  C580     1.0000 0.05050  0.38180  0.86328  Biso   1.000  C
  H254     1.0000 0.04380  0.35640  0.85360  Biso   1.000  H
  C581     1.0000 0.00870  0.37620  0.87490  Biso   1.000  C
  C582     1.0000 0.01910  0.41720  0.88828  Biso   1.000  C
  H255     1.0000 0.99020  0.41580  0.89520  Biso   1.000  H
  C583     1.0000 0.07240  0.46020  0.89136  Biso   1.000  C
  H256     1.0000 0.07930  0.48600  0.90090  Biso   1.000  H
  C584     1.0000 0.95340  0.33200  0.87316  Biso   1.000  C
  C585     1.0000 0.90890  0.29240  0.87117  Biso   1.000  C
  C586     1.0000 0.85630  0.24340  0.86991  Biso   1.000  C
  C587     1.0000 0.84720  0.20470  0.85627  Biso   1.000  C
  C588     1.0000 0.88610  0.21180  0.84195  Biso   1.000  C
  H257     1.0000 0.91990  0.24410  0.84220  Biso   1.000  H
  C589     1.0000 0.87730  0.17540  0.82828  Biso   1.000  C
  C590     1.0000 0.81540  0.23620  0.88356  Biso   1.000  C
  C591     1.0000 0.82230  0.27690  0.89814  Biso   1.000  C
  H258     1.0000 0.85520  0.31010  0.89840  Biso   1.000  H
  C592     1.0000 0.78370  0.26870  0.91116  Biso   1.000  C
  C593     1.0000 0.21950  0.69360  0.96593  Biso   1.000  C
  H259     1.0000 0.19630  0.65940  0.96050  Biso   1.000  H
  C594     1.0000 0.20740  0.70990  0.98378  Biso   1.000  C
  H260     1.0000 0.17490  0.68590  0.99010  Biso   1.000  H
  C595     1.0000 0.23550  0.85180  0.05017  Biso   1.000  C
  C596     1.0000 0.28990  0.88650  0.04310  Biso   1.000  C
  H261     1.0000 0.30160  0.87540  0.03230  Biso   1.000  H
  C597     1.0000 0.32280  0.93240  0.05110  Biso   1.000  C
  H262     1.0000 0.35830  0.95340  0.04640  Biso   1.000  H
  C598     1.0000 0.30540  0.95140  0.06700  Biso   1.000  C
  H263     1.0000 0.32910  0.98620  0.07190  Biso   1.000  H
  C599     1.0000 0.25670  0.92150  0.07540  Biso   1.000  C
  H264     1.0000 0.24850  0.93510  0.08640  Biso   1.000  H
  C600     1.0000 0.21680  0.86950  0.06810  Biso   1.000  C
  C601     1.0000 0.14680  0.93870  0.12766  Biso   1.000  C
  H265     1.0000 0.18170  0.96110  0.12260  Biso   1.000  H
  C602     1.0000 0.12670  0.95790  0.14309  Biso   1.000  C
  H266     1.0000 0.14880  0.99300  0.14800  Biso   1.000  H
  O101     1.0000 0.84623  0.87672  0.23020  Biso   1.000  O
  O102     1.0000 0.87407  0.84966  0.20368  Biso   1.000  O
  O103     1.0000 0.90522  0.99354  0.17262  Biso   1.000  O
  O104     1.0000 0.91255  0.00299  0.26399  Biso   1.000  O
  C603     1.0000 0.83834  0.84537  0.21605  Biso   1.000  C
  C604     1.0000 0.78118  0.79767  0.21348  Biso   1.000  C
  C605     1.0000 0.77017  0.75986  0.19948  Biso   1.000  C
  H267     1.0000 0.79857  0.76363  0.19153  Biso   1.000  H
  C606     1.0000 0.71717  0.71513  0.19661  Biso   1.000  C
  H268     1.0000 0.71047  0.68973  0.18693  Biso   1.000  H
  C607     1.0000 0.67537  0.70953  0.20823  Biso   1.000  C
  C608     1.0000 0.68577  0.75053  0.22161  Biso   1.000  C
  H269     1.0000 0.65687  0.74913  0.22853  Biso   1.000  H
  C609     1.0000 0.73907  0.79353  0.22469  Biso   1.000  C
  H270     1.0000 0.74597  0.81933  0.23423  Biso   1.000  H
  C610     1.0000 0.62007  0.66533  0.20649  Biso   1.000  C
  C611     1.0000 0.57557  0.62573  0.20450  Biso   1.000  C
  C612     1.0000 0.52297  0.57673  0.20324  Biso   1.000  C
  C613     1.0000 0.51387  0.53803  0.18960  Biso   1.000  C
  C614     1.0000 0.55277  0.54513  0.17528  Biso   1.000  C
  H271     1.0000 0.58657  0.57743  0.17553  Biso   1.000  H
  C615     1.0000 0.54397  0.50873  0.16161  Biso   1.000  C
  C616     1.0000 0.48207  0.56953  0.21689  Biso   1.000  C
  C617     1.0000 0.48897  0.61023  0.23147  Biso   1.000  C
  H272     1.0000 0.52187  0.64343  0.23173  Biso   1.000  H
  C618     1.0000 0.45037  0.60203  0.24449  Biso   1.000  C
  C619     1.0000 0.88617  0.02693  0.29926  Biso   1.000  C
  H273     1.0000 0.86297  0.99273  0.29383  Biso   1.000  H
  C620     1.0000 0.87407  0.04323  0.31711  Biso   1.000  C
  H274     1.0000 0.84157  0.01923  0.32343  Biso   1.000  H
  C621     1.0000 0.90217  0.18513  0.38350  Biso   1.000  C
  C622     1.0000 0.95657  0.21983  0.37643  Biso   1.000  C
  H275     1.0000 0.96827  0.20873  0.36563  Biso   1.000  H
  C623     1.0000 0.98947  0.26573  0.38443  Biso   1.000  C
  H276     1.0000 0.02497  0.28673  0.37973  Biso   1.000  H
  C624     1.0000 0.97207  0.28473  0.40033  Biso   1.000  C
  H277     1.0000 0.99577  0.31953  0.40523  Biso   1.000  H
  C625     1.0000 0.92337  0.25483  0.40873  Biso   1.000  C
  H278     1.0000 0.91517  0.26843  0.41973  Biso   1.000  H
  C626     1.0000 0.88347  0.20283  0.40143  Biso   1.000  C
  C627     1.0000 0.81347  0.27203  0.46099  Biso   1.000  C
  H279     1.0000 0.84837  0.29443  0.45593  Biso   1.000  H
  C628     1.0000 0.79337  0.29123  0.47642  Biso   1.000  C
  H280     1.0000 0.81547  0.32633  0.48133  Biso   1.000  H
  O105     1.0000 0.51289  0.21006  0.56354  Biso   1.000  O
  O106     1.0000 0.54073  0.18300  0.53702  Biso   1.000  O
  O107     1.0000 0.57188  0.32688  0.50596  Biso   1.000  O
  O108     1.0000 0.57921  0.33633  0.59733  Biso   1.000  O
  C629     1.0000 0.50500  0.17871  0.54939  Biso   1.000  C
  C630     1.0000 0.44784  0.13101  0.54682  Biso   1.000  C
  C631     1.0000 0.43683  0.09320  0.53282  Biso   1.000  C
  H281     1.0000 0.46523  0.09697  0.52487  Biso   1.000  H
  C632     1.0000 0.38383  0.04847  0.52995  Biso   1.000  C
  H282     1.0000 0.37713  0.02307  0.52027  Biso   1.000  H
  C633     1.0000 0.34203  0.04287  0.54157  Biso   1.000  C
  C634     1.0000 0.35243  0.08387  0.55495  Biso   1.000  C
  H283     1.0000 0.32353  0.08247  0.56187  Biso   1.000  H
  C635     1.0000 0.40573  0.12687  0.55803  Biso   1.000  C
  H284     1.0000 0.41263  0.15267  0.56757  Biso   1.000  H
  C636     1.0000 0.28673  0.99867  0.53983  Biso   1.000  C
  C637     1.0000 0.24223  0.95907  0.53784  Biso   1.000  C
  C638     1.0000 0.18963  0.91007  0.53658  Biso   1.000  C
  C639     1.0000 0.18053  0.87137  0.52294  Biso   1.000  C
  C640     1.0000 0.21943  0.87847  0.50862  Biso   1.000  C
  H285     1.0000 0.25323  0.91077  0.50887  Biso   1.000  H
  C641     1.0000 0.21063  0.84207  0.49495  Biso   1.000  C
  C642     1.0000 0.14873  0.90287  0.55023  Biso   1.000  C
  C643     1.0000 0.15563  0.94357  0.56481  Biso   1.000  C
  H286     1.0000 0.18853  0.97677  0.56507  Biso   1.000  H
  C644     1.0000 0.11703  0.93537  0.57783  Biso   1.000  C
  C645     1.0000 0.55283  0.36027  0.63260  Biso   1.000  C
  H287     1.0000 0.52963  0.32607  0.62717  Biso   1.000  H
  C646     1.0000 0.54073  0.37657  0.65045  Biso   1.000  C
  H288     1.0000 0.50823  0.35257  0.65677  Biso   1.000  H
  C647     1.0000 0.56883  0.51847  0.71684  Biso   1.000  C
  C648     1.0000 0.62323  0.55317  0.70977  Biso   1.000  C
  H289     1.0000 0.63493  0.54207  0.69897  Biso   1.000  H
  C649     1.0000 0.65613  0.59907  0.71777  Biso   1.000  C
  H290     1.0000 0.69163  0.62007  0.71307  Biso   1.000  H
  C650     1.0000 0.63873  0.61807  0.73367  Biso   1.000  C
  H291     1.0000 0.66243  0.65287  0.73857  Biso   1.000  H
  C651     1.0000 0.59003  0.58817  0.74207  Biso   1.000  C
  H292     1.0000 0.58183  0.60177  0.75307  Biso   1.000  H
  C652     1.0000 0.55013  0.53617  0.73477  Biso   1.000  C
  C653     1.0000 0.48013  0.60537  0.79433  Biso   1.000  C
  H293     1.0000 0.51503  0.62777  0.78927  Biso   1.000  H
  C654     1.0000 0.46003  0.62457  0.80976  Biso   1.000  C
  H294     1.0000 0.48213  0.65967  0.81467  Biso   1.000  H
  O109     1.0000 0.36383  0.82044  0.89687  Biso   1.000  O
  O110     1.0000 0.30893  0.79260  0.87035  Biso   1.000  O
  O111     1.0000 0.42166  0.76145  0.83929  Biso   1.000  O
  O112     1.0000 0.42378  0.75412  0.93066  Biso   1.000  O
  C655     1.0000 0.34037  0.82833  0.88272  Biso   1.000  C
  C656     1.0000 0.34983  0.88549  0.88015  Biso   1.000  C
  C657     1.0000 0.32303  0.89650  0.86615  Biso   1.000  C
  H295     1.0000 0.29840  0.86810  0.85820  Biso   1.000  H
  C658     1.0000 0.33130  0.94950  0.86328  Biso   1.000  C
  H296     1.0000 0.31260  0.95620  0.85360  Biso   1.000  H
  C659     1.0000 0.36750  0.99130  0.87490  Biso   1.000  C
  C660     1.0000 0.39810  0.98090  0.88828  Biso   1.000  C
  H297     1.0000 0.42560  0.00980  0.89520  Biso   1.000  H
  C661     1.0000 0.38780  0.92760  0.89136  Biso   1.000  C
  H298     1.0000 0.40670  0.92070  0.90090  Biso   1.000  H
  C662     1.0000 0.37860  0.04660  0.87316  Biso   1.000  C
  C663     1.0000 0.38350  0.09110  0.87117  Biso   1.000  C
  C664     1.0000 0.38710  0.14370  0.86991  Biso   1.000  C
  C665     1.0000 0.35750  0.15280  0.85627  Biso   1.000  C
  C666     1.0000 0.32570  0.11390  0.84195  Biso   1.000  C
  H299     1.0000 0.32420  0.08010  0.84220  Biso   1.000  H
  C667     1.0000 0.29810  0.12270  0.82828  Biso   1.000  C
  C668     1.0000 0.42080  0.18460  0.88356  Biso   1.000  C
  C669     1.0000 0.45460  0.17770  0.89814  Biso   1.000  C
  H300     1.0000 0.45490  0.14480  0.89840  Biso   1.000  H
  C670     1.0000 0.48500  0.21630  0.91116  Biso   1.000  C
  C671     1.0000 0.47410  0.78050  0.96593  Biso   1.000  C
  H301     1.0000 0.46310  0.80370  0.96050  Biso   1.000  H
  C672     1.0000 0.50250  0.79260  0.98378  Biso   1.000  C
  H302     1.0000 0.51100  0.82510  0.99010  Biso   1.000  H
  C673     1.0000 0.61630  0.76450  0.05017  Biso   1.000  C
  C674     1.0000 0.59660  0.71010  0.04310  Biso   1.000  C
  H303     1.0000 0.57380  0.69840  0.03230  Biso   1.000  H
  C675     1.0000 0.60960  0.67720  0.05110  Biso   1.000  C
  H304     1.0000 0.59510  0.64170  0.04640  Biso   1.000  H
  C676     1.0000 0.64600  0.69460  0.06700  Biso   1.000  C
  H305     1.0000 0.65710  0.67090  0.07190  Biso   1.000  H
  C677     1.0000 0.66480  0.74330  0.07540  Biso   1.000  C
  H306     1.0000 0.68660  0.75150  0.08640  Biso   1.000  H
  C678     1.0000 0.65270  0.78320  0.06810  Biso   1.000  C
  C679     1.0000 0.79190  0.85320  0.12766  Biso   1.000  C
  H307     1.0000 0.77940  0.81830  0.12260  Biso   1.000  H
  C680     1.0000 0.83120  0.87330  0.14309  Biso   1.000  C
  H308     1.0000 0.84420  0.85120  0.14800  Biso   1.000  H
  O113     1.0000 0.03050  0.15377  0.23020  Biso   1.000  O
  O114     1.0000 0.97560  0.12593  0.20368  Biso   1.000  O
  O115     1.0000 0.08833  0.09478  0.17262  Biso   1.000  O
  O116     1.0000 0.09045  0.08745  0.26399  Biso   1.000  O
  C681     1.0000 0.00704  0.16166  0.21605  Biso   1.000  C
  C682     1.0000 0.01650  0.21882  0.21348  Biso   1.000  C
  C683     1.0000 0.98970  0.22983  0.19948  Biso   1.000  C
  H309     1.0000 0.96507  0.20143  0.19153  Biso   1.000  H
  C684     1.0000 0.99797  0.28283  0.19661  Biso   1.000  C
  H310     1.0000 0.97927  0.28953  0.18693  Biso   1.000  H
  C685     1.0000 0.03417  0.32463  0.20823  Biso   1.000  C
  C686     1.0000 0.06477  0.31423  0.22161  Biso   1.000  C
  H311     1.0000 0.09227  0.34313  0.22853  Biso   1.000  H
  C687     1.0000 0.05447  0.26093  0.22469  Biso   1.000  C
  H312     1.0000 0.07337  0.25403  0.23423  Biso   1.000  H
  C688     1.0000 0.04527  0.37993  0.20649  Biso   1.000  C
  C689     1.0000 0.05017  0.42443  0.20450  Biso   1.000  C
  C690     1.0000 0.05377  0.47703  0.20324  Biso   1.000  C
  C691     1.0000 0.02417  0.48613  0.18960  Biso   1.000  C
  C692     1.0000 0.99237  0.44723  0.17528  Biso   1.000  C
  H313     1.0000 0.99087  0.41343  0.17553  Biso   1.000  H
  C693     1.0000 0.96477  0.45603  0.16161  Biso   1.000  C
  C694     1.0000 0.08747  0.51793  0.21689  Biso   1.000  C
  C695     1.0000 0.12127  0.51103  0.23147  Biso   1.000  C
  H314     1.0000 0.12157  0.47813  0.23173  Biso   1.000  H
  C696     1.0000 0.15167  0.54963  0.24449  Biso   1.000  C
  C697     1.0000 0.14077  0.11383  0.29926  Biso   1.000  C
  H315     1.0000 0.12977  0.13703  0.29383  Biso   1.000  H
  C698     1.0000 0.16917  0.12593  0.31711  Biso   1.000  C
  H316     1.0000 0.17767  0.15843  0.32343  Biso   1.000  H
  C699     1.0000 0.28297  0.09783  0.38350  Biso   1.000  C
  C700     1.0000 0.26327  0.04343  0.37643  Biso   1.000  C
  H317     1.0000 0.24047  0.03173  0.36563  Biso   1.000  H
  C701     1.0000 0.27627  0.01053  0.38443  Biso   1.000  C
  H318     1.0000 0.26177  0.97503  0.37973  Biso   1.000  H
  C702     1.0000 0.31267  0.02793  0.40033  Biso   1.000  C
  H319     1.0000 0.32377  0.00423  0.40523  Biso   1.000  H
  C703     1.0000 0.33147  0.07663  0.40873  Biso   1.000  C
  H320     1.0000 0.35327  0.08483  0.41973  Biso   1.000  H
  C704     1.0000 0.31937  0.11653  0.40143  Biso   1.000  C
  C705     1.0000 0.45857  0.18653  0.46099  Biso   1.000  C
  H321     1.0000 0.44607  0.15163  0.45593  Biso   1.000  H
  C706     1.0000 0.49787  0.20663  0.47642  Biso   1.000  C
  H322     1.0000 0.51087  0.18453  0.48133  Biso   1.000  H
  O117     1.0000 0.69716  0.48711  0.56354  Biso   1.000  O
  O118     1.0000 0.64226  0.45927  0.53702  Biso   1.000  O
  O119     1.0000 0.75499  0.42812  0.50596  Biso   1.000  O
  O120     1.0000 0.75711  0.42079  0.59733  Biso   1.000  O
  C707     1.0000 0.67370  0.49500  0.54939  Biso   1.000  C
  C708     1.0000 0.68316  0.55216  0.54682  Biso   1.000  C
  C709     1.0000 0.65636  0.56317  0.53282  Biso   1.000  C
  H323     1.0000 0.63173  0.53477  0.52487  Biso   1.000  H
  C710     1.0000 0.66463  0.61617  0.52995  Biso   1.000  C
  H324     1.0000 0.64593  0.62287  0.52027  Biso   1.000  H
  C711     1.0000 0.70083  0.65797  0.54157  Biso   1.000  C
  C712     1.0000 0.73143  0.64757  0.55495  Biso   1.000  C
  H325     1.0000 0.75893  0.67647  0.56187  Biso   1.000  H
  C713     1.0000 0.72113  0.59427  0.55803  Biso   1.000  C
  H326     1.0000 0.74003  0.58737  0.56757  Biso   1.000  H
  C714     1.0000 0.71193  0.71327  0.53983  Biso   1.000  C
  C715     1.0000 0.71683  0.75777  0.53784  Biso   1.000  C
  C716     1.0000 0.72043  0.81037  0.53658  Biso   1.000  C
  C717     1.0000 0.69083  0.81947  0.52294  Biso   1.000  C
  C718     1.0000 0.65903  0.78057  0.50862  Biso   1.000  C
  H327     1.0000 0.65753  0.74677  0.50887  Biso   1.000  H
  C719     1.0000 0.63143  0.78937  0.49495  Biso   1.000  C
  C720     1.0000 0.75413  0.85127  0.55023  Biso   1.000  C
  C721     1.0000 0.78793  0.84437  0.56481  Biso   1.000  C
  H328     1.0000 0.78823  0.81147  0.56507  Biso   1.000  H
  C722     1.0000 0.81833  0.88297  0.57783  Biso   1.000  C
  C723     1.0000 0.80743  0.44717  0.63260  Biso   1.000  C
  H329     1.0000 0.79643  0.47037  0.62717  Biso   1.000  H
  C724     1.0000 0.83583  0.45927  0.65045  Biso   1.000  C
  H330     1.0000 0.84433  0.49177  0.65677  Biso   1.000  H
  C725     1.0000 0.94963  0.43117  0.71684  Biso   1.000  C
  C726     1.0000 0.92993  0.37677  0.70977  Biso   1.000  C
  H331     1.0000 0.90713  0.36507  0.69897  Biso   1.000  H
  C727     1.0000 0.94293  0.34387  0.71777  Biso   1.000  C
  H332     1.0000 0.92843  0.30837  0.71307  Biso   1.000  H
  C728     1.0000 0.97933  0.36127  0.73367  Biso   1.000  C
  H333     1.0000 0.99043  0.33757  0.73857  Biso   1.000  H
  C729     1.0000 0.99813  0.40997  0.74207  Biso   1.000  C
  H334     1.0000 0.01993  0.41817  0.75307  Biso   1.000  H
  C730     1.0000 0.98603  0.44987  0.73477  Biso   1.000  C
  C731     1.0000 0.12523  0.51987  0.79433  Biso   1.000  C
  H335     1.0000 0.11273  0.48497  0.78927  Biso   1.000  H
  C732     1.0000 0.16453  0.53997  0.80976  Biso   1.000  C
  H336     1.0000 0.17753  0.51787  0.81467  Biso   1.000  H
  O121     1.0000 0.45661  0.63617  0.89687  Biso   1.000  O
  O122     1.0000 0.48367  0.69107  0.87035  Biso   1.000  O
  O123     1.0000 0.33979  0.57834  0.83929  Biso   1.000  O
  O124     1.0000 0.33034  0.57622  0.93066  Biso   1.000  O
  C733     1.0000 0.48796  0.65963  0.88272  Biso   1.000  C
  C734     1.0000 0.53566  0.65017  0.88015  Biso   1.000  C
  C735     1.0000 0.57347  0.67697  0.86615  Biso   1.000  C
  H337     1.0000 0.56970  0.70160  0.85820  Biso   1.000  H
  C736     1.0000 0.61820  0.66870  0.86328  Biso   1.000  C
  H338     1.0000 0.64360  0.68740  0.85360  Biso   1.000  H
  C737     1.0000 0.62380  0.63250  0.87490  Biso   1.000  C
  C738     1.0000 0.58280  0.60190  0.88828  Biso   1.000  C
  H339     1.0000 0.58420  0.57440  0.89520  Biso   1.000  H
  C739     1.0000 0.53980  0.61220  0.89136  Biso   1.000  C
  H340     1.0000 0.51400  0.59330  0.90090  Biso   1.000  H
  C740     1.0000 0.66800  0.62140  0.87316  Biso   1.000  C
  C741     1.0000 0.70760  0.61650  0.87117  Biso   1.000  C
  C742     1.0000 0.75660  0.61290  0.86991  Biso   1.000  C
  C743     1.0000 0.79530  0.64250  0.85627  Biso   1.000  C
  C744     1.0000 0.78820  0.67430  0.84195  Biso   1.000  C
  H341     1.0000 0.75590  0.67580  0.84220  Biso   1.000  H
  C745     1.0000 0.82460  0.70190  0.82828  Biso   1.000  C
  C746     1.0000 0.76380  0.57920  0.88356  Biso   1.000  C
  C747     1.0000 0.72310  0.54540  0.89814  Biso   1.000  C
  H342     1.0000 0.68990  0.54510  0.89840  Biso   1.000  H
  C748     1.0000 0.73130  0.51500  0.91116  Biso   1.000  C
  C749     1.0000 0.30640  0.52590  0.96593  Biso   1.000  C
  H343     1.0000 0.34060  0.53690  0.96050  Biso   1.000  H
  C750     1.0000 0.29010  0.49750  0.98378  Biso   1.000  C
  H344     1.0000 0.31410  0.48900  0.99010  Biso   1.000  H
  C751     1.0000 0.14820  0.38370  0.05017  Biso   1.000  C
  C752     1.0000 0.11350  0.40340  0.04310  Biso   1.000  C
  H345     1.0000 0.12460  0.42620  0.03230  Biso   1.000  H
  C753     1.0000 0.06760  0.39040  0.05110  Biso   1.000  C
  H346     1.0000 0.04660  0.40490  0.04640  Biso   1.000  H
  C754     1.0000 0.04860  0.35400  0.06700  Biso   1.000  C
  H347     1.0000 0.01380  0.34290  0.07190  Biso   1.000  H
  C755     1.0000 0.07850  0.33520  0.07540  Biso   1.000  C
  H348     1.0000 0.06490  0.31340  0.08640  Biso   1.000  H
  C756     1.0000 0.13050  0.34730  0.06810  Biso   1.000  C
  C757     1.0000 0.06130  0.20810  0.12766  Biso   1.000  C
  H349     1.0000 0.03890  0.22060  0.12260  Biso   1.000  H
  C758     1.0000 0.04210  0.16880  0.14309  Biso   1.000  C
  H350     1.0000 0.00700  0.15580  0.14800  Biso   1.000  H
  O125     1.0000 0.12328  0.96950  0.23020  Biso   1.000  O
  O126     1.0000 0.15034  0.02440  0.20368  Biso   1.000  O
  O127     1.0000 0.00646  0.91167  0.17262  Biso   1.000  O
  O128     1.0000 0.99701  0.90955  0.26399  Biso   1.000  O
  C759     1.0000 0.15463  0.99296  0.21605  Biso   1.000  C
  C760     1.0000 0.20233  0.98350  0.21348  Biso   1.000  C
  C761     1.0000 0.24014  0.01030  0.19948  Biso   1.000  C
  H351     1.0000 0.23637  0.03493  0.19153  Biso   1.000  H
  C762     1.0000 0.28487  0.00203  0.19661  Biso   1.000  C
  H352     1.0000 0.31027  0.02073  0.18693  Biso   1.000  H
  C763     1.0000 0.29047  0.96583  0.20823  Biso   1.000  C
  C764     1.0000 0.24947  0.93523  0.22161  Biso   1.000  C
  H353     1.0000 0.25087  0.90773  0.22853  Biso   1.000  H
  C765     1.0000 0.20647  0.94553  0.22469  Biso   1.000  C
  H354     1.0000 0.18067  0.92663  0.23423  Biso   1.000  H
  C766     1.0000 0.33467  0.95473  0.20649  Biso   1.000  C
  C767     1.0000 0.37427  0.94983  0.20450  Biso   1.000  C
  C768     1.0000 0.42327  0.94623  0.20324  Biso   1.000  C
  C769     1.0000 0.46197  0.97583  0.18960  Biso   1.000  C
  C770     1.0000 0.45487  0.00763  0.17528  Biso   1.000  C
  H355     1.0000 0.42257  0.00913  0.17553  Biso   1.000  H
  C771     1.0000 0.49127  0.03523  0.16161  Biso   1.000  C
  C772     1.0000 0.43047  0.91253  0.21689  Biso   1.000  C
  C773     1.0000 0.38977  0.87873  0.23147  Biso   1.000  C
  H356     1.0000 0.35657  0.87843  0.23173  Biso   1.000  H
  C774     1.0000 0.39797  0.84833  0.24449  Biso   1.000  C
  C775     1.0000 0.97307  0.85923  0.29926  Biso   1.000  C
  H357     1.0000 0.00727  0.87023  0.29383  Biso   1.000  H
  C776     1.0000 0.95677  0.83083  0.31711  Biso   1.000  C
  H358     1.0000 0.98077  0.82233  0.32343  Biso   1.000  H
  C777     1.0000 0.81487  0.71703  0.38350  Biso   1.000  C
  C778     1.0000 0.78017  0.73673  0.37643  Biso   1.000  C
  H359     1.0000 0.79127  0.75953  0.36563  Biso   1.000  H
  C779     1.0000 0.73427  0.72373  0.38443  Biso   1.000  C
  H360     1.0000 0.71327  0.73823  0.37973  Biso   1.000  H
  C780     1.0000 0.71527  0.68733  0.40033  Biso   1.000  C
  H361     1.0000 0.68047  0.67623  0.40523  Biso   1.000  H
  C781     1.0000 0.74517  0.66853  0.40873  Biso   1.000  C
  H362     1.0000 0.73157  0.64673  0.41973  Biso   1.000  H
  C782     1.0000 0.79717  0.68063  0.40143  Biso   1.000  C
  C783     1.0000 0.72797  0.54143  0.46099  Biso   1.000  C
  H363     1.0000 0.70557  0.55393  0.45593  Biso   1.000  H
  C784     1.0000 0.70877  0.50213  0.47642  Biso   1.000  C
  H364     1.0000 0.67367  0.48913  0.48133  Biso   1.000  H
  O129     1.0000 0.78994  0.30284  0.56354  Biso   1.000  O
  O130     1.0000 0.81700  0.35774  0.53702  Biso   1.000  O
  O131     1.0000 0.67312  0.24501  0.50596  Biso   1.000  O
  O132     1.0000 0.66367  0.24289  0.59733  Biso   1.000  O
  C785     1.0000 0.82129  0.32630  0.54939  Biso   1.000  C
  C786     1.0000 0.86899  0.31684  0.54682  Biso   1.000  C
  C787     1.0000 0.90680  0.34364  0.53282  Biso   1.000  C
  H365     1.0000 0.90303  0.36827  0.52487  Biso   1.000  H
  C788     1.0000 0.95153  0.33537  0.52995  Biso   1.000  C
  H366     1.0000 0.97693  0.35407  0.52027  Biso   1.000  H
  C789     1.0000 0.95713  0.29917  0.54157  Biso   1.000  C
  C790     1.0000 0.91613  0.26857  0.55495  Biso   1.000  C
  H367     1.0000 0.91753  0.24107  0.56187  Biso   1.000  H
  C791     1.0000 0.87313  0.27887  0.55803  Biso   1.000  C
  H368     1.0000 0.84733  0.25997  0.56757  Biso   1.000  H
  C792     1.0000 0.00133  0.28807  0.53983  Biso   1.000  C
  C793     1.0000 0.04093  0.28317  0.53784  Biso   1.000  C
  C794     1.0000 0.08993  0.27957  0.53658  Biso   1.000  C
  C795     1.0000 0.12863  0.30917  0.52294  Biso   1.000  C
  C796     1.0000 0.12153  0.34097  0.50862  Biso   1.000  C
  H369     1.0000 0.08923  0.34247  0.50887  Biso   1.000  H
  C797     1.0000 0.15793  0.36857  0.49495  Biso   1.000  C
  C798     1.0000 0.09713  0.24587  0.55023  Biso   1.000  C
  C799     1.0000 0.05643  0.21207  0.56481  Biso   1.000  C
  H370     1.0000 0.02323  0.21177  0.56507  Biso   1.000  H
  C800     1.0000 0.06463  0.18167  0.57783  Biso   1.000  C
  C801     1.0000 0.63973  0.19257  0.63260  Biso   1.000  C
  H371     1.0000 0.67393  0.20357  0.62717  Biso   1.000  H
  C802     1.0000 0.62343  0.16417  0.65045  Biso   1.000  C
  H372     1.0000 0.64743  0.15567  0.65677  Biso   1.000  H
  C803     1.0000 0.48153  0.05037  0.71684  Biso   1.000  C
  C804     1.0000 0.44683  0.07007  0.70977  Biso   1.000  C
  H373     1.0000 0.45793  0.09287  0.69897  Biso   1.000  H
  C805     1.0000 0.40093  0.05707  0.71777  Biso   1.000  C
  H374     1.0000 0.37993  0.07157  0.71307  Biso   1.000  H
  C806     1.0000 0.38193  0.02067  0.73367  Biso   1.000  C
  H375     1.0000 0.34713  0.00957  0.73857  Biso   1.000  H
  C807     1.0000 0.41183  0.00187  0.74207  Biso   1.000  C
  H376     1.0000 0.39823  0.98007  0.75307  Biso   1.000  H
  C808     1.0000 0.46383  0.01397  0.73477  Biso   1.000  C
  C809     1.0000 0.39463  0.87477  0.79433  Biso   1.000  C
  H377     1.0000 0.37223  0.88727  0.78927  Biso   1.000  H
  C810     1.0000 0.37543  0.83547  0.80976  Biso   1.000  C
  H378     1.0000 0.34033  0.82247  0.81467  Biso   1.000  H
  O133     1.0000 0.45661  0.82044  0.89687  Biso   1.000  O
  O134     1.0000 0.48367  0.79260  0.87035  Biso   1.000  O
  O135     1.0000 0.33979  0.76145  0.83929  Biso   1.000  O
  O136     1.0000 0.33034  0.75412  0.93066  Biso   1.000  O
  C811     1.0000 0.48796  0.82833  0.88272  Biso   1.000  C
  C812     1.0000 0.53566  0.88549  0.88015  Biso   1.000  C
  C813     1.0000 0.57347  0.89650  0.86615  Biso   1.000  C
  H379     1.0000 0.56970  0.86810  0.85820  Biso   1.000  H
  C814     1.0000 0.61820  0.94950  0.86328  Biso   1.000  C
  H380     1.0000 0.64360  0.95620  0.85360  Biso   1.000  H
  C815     1.0000 0.62380  0.99130  0.87490  Biso   1.000  C
  C816     1.0000 0.58280  0.98090  0.88828  Biso   1.000  C
  H381     1.0000 0.58420  0.00980  0.89520  Biso   1.000  H
  C817     1.0000 0.53980  0.92760  0.89136  Biso   1.000  C
  H382     1.0000 0.51400  0.92070  0.90090  Biso   1.000  H
  C818     1.0000 0.66800  0.04660  0.87316  Biso   1.000  C
  C819     1.0000 0.70760  0.09110  0.87117  Biso   1.000  C
  C820     1.0000 0.75660  0.14370  0.86991  Biso   1.000  C
  C821     1.0000 0.79530  0.15280  0.85627  Biso   1.000  C
  C822     1.0000 0.78820  0.11390  0.84195  Biso   1.000  C
  H383     1.0000 0.75590  0.08010  0.84220  Biso   1.000  H
  C823     1.0000 0.82460  0.12270  0.82828  Biso   1.000  C
  C824     1.0000 0.76380  0.18460  0.88356  Biso   1.000  C
  C825     1.0000 0.72310  0.17770  0.89814  Biso   1.000  C
  H384     1.0000 0.68990  0.14480  0.89840  Biso   1.000  H
  C826     1.0000 0.73130  0.21630  0.91116  Biso   1.000  C
  C827     1.0000 0.30640  0.78050  0.96593  Biso   1.000  C
  H385     1.0000 0.34060  0.80370  0.96050  Biso   1.000  H
  C828     1.0000 0.29010  0.79260  0.98378  Biso   1.000  C
  H386     1.0000 0.31410  0.82510  0.99010  Biso   1.000  H
  C829     1.0000 0.14820  0.76450  0.05017  Biso   1.000  C
  C830     1.0000 0.11350  0.71010  0.04310  Biso   1.000  C
  H387     1.0000 0.12460  0.69840  0.03230  Biso   1.000  H
  C831     1.0000 0.06760  0.67720  0.05110  Biso   1.000  C
  H388     1.0000 0.04660  0.64170  0.04640  Biso   1.000  H
  C832     1.0000 0.04860  0.69460  0.06700  Biso   1.000  C
  H389     1.0000 0.01380  0.67090  0.07190  Biso   1.000  H
  C833     1.0000 0.07850  0.74330  0.07540  Biso   1.000  C
  H390     1.0000 0.06490  0.75150  0.08640  Biso   1.000  H
  C834     1.0000 0.13050  0.78320  0.06810  Biso   1.000  C
  C835     1.0000 0.06130  0.85320  0.12766  Biso   1.000  C
  H391     1.0000 0.03890  0.81830  0.12260  Biso   1.000  H
  C836     1.0000 0.04210  0.87330  0.14309  Biso   1.000  C
  H392     1.0000 0.00700  0.85120  0.14800  Biso   1.000  H
  O137     1.0000 0.12328  0.15377  0.23020  Biso   1.000  O
  O138     1.0000 0.15034  0.12593  0.20368  Biso   1.000  O
  O139     1.0000 0.00646  0.09478  0.17262  Biso   1.000  O
  O140     1.0000 0.99701  0.08745  0.26399  Biso   1.000  O
  C837     1.0000 0.15463  0.16166  0.21605  Biso   1.000  C
  C838     1.0000 0.20233  0.21882  0.21348  Biso   1.000  C
  C839     1.0000 0.24014  0.22983  0.19948  Biso   1.000  C
  H393     1.0000 0.23637  0.20143  0.19153  Biso   1.000  H
  C840     1.0000 0.28487  0.28283  0.19661  Biso   1.000  C
  H394     1.0000 0.31027  0.28953  0.18693  Biso   1.000  H
  C841     1.0000 0.29047  0.32463  0.20823  Biso   1.000  C
  C842     1.0000 0.24947  0.31423  0.22161  Biso   1.000  C
  H395     1.0000 0.25087  0.34313  0.22853  Biso   1.000  H
  C843     1.0000 0.20647  0.26093  0.22469  Biso   1.000  C
  H396     1.0000 0.18067  0.25403  0.23423  Biso   1.000  H
  C844     1.0000 0.33467  0.37993  0.20649  Biso   1.000  C
  C845     1.0000 0.37427  0.42443  0.20450  Biso   1.000  C
  C846     1.0000 0.42327  0.47703  0.20324  Biso   1.000  C
  C847     1.0000 0.46197  0.48613  0.18960  Biso   1.000  C
  C848     1.0000 0.45487  0.44723  0.17528  Biso   1.000  C
  H397     1.0000 0.42257  0.41343  0.17553  Biso   1.000  H
  C849     1.0000 0.49127  0.45603  0.16161  Biso   1.000  C
  C850     1.0000 0.43047  0.51793  0.21689  Biso   1.000  C
  C851     1.0000 0.38977  0.51103  0.23147  Biso   1.000  C
  H398     1.0000 0.35657  0.47813  0.23173  Biso   1.000  H
  C852     1.0000 0.39797  0.54963  0.24449  Biso   1.000  C
  C853     1.0000 0.97307  0.11383  0.29926  Biso   1.000  C
  H399     1.0000 0.00727  0.13703  0.29383  Biso   1.000  H
  C854     1.0000 0.95677  0.12593  0.31711  Biso   1.000  C
  H400     1.0000 0.98077  0.15843  0.32343  Biso   1.000  H
  C855     1.0000 0.81487  0.09783  0.38350  Biso   1.000  C
  C856     1.0000 0.78017  0.04343  0.37643  Biso   1.000  C
  H401     1.0000 0.79127  0.03173  0.36563  Biso   1.000  H
  C857     1.0000 0.73427  0.01053  0.38443  Biso   1.000  C
  H402     1.0000 0.71327  0.97503  0.37973  Biso   1.000  H
  C858     1.0000 0.71527  0.02793  0.40033  Biso   1.000  C
  H403     1.0000 0.68047  0.00423  0.40523  Biso   1.000  H
  C859     1.0000 0.74517  0.07663  0.40873  Biso   1.000  C
  H404     1.0000 0.73157  0.08483  0.41973  Biso   1.000  H
  C860     1.0000 0.79717  0.11653  0.40143  Biso   1.000  C
  C861     1.0000 0.72797  0.18653  0.46099  Biso   1.000  C
  H405     1.0000 0.70557  0.15163  0.45593  Biso   1.000  H
  C862     1.0000 0.70877  0.20663  0.47642  Biso   1.000  C
  H406     1.0000 0.67367  0.18453  0.48133  Biso   1.000  H
  O141     1.0000 0.78994  0.48711  0.56354  Biso   1.000  O
  O142     1.0000 0.81700  0.45927  0.53702  Biso   1.000  O
  O143     1.0000 0.67312  0.42812  0.50596  Biso   1.000  O
  O144     1.0000 0.66367  0.42079  0.59733  Biso   1.000  O
  C863     1.0000 0.82129  0.49500  0.54939  Biso   1.000  C
  C864     1.0000 0.86899  0.55216  0.54682  Biso   1.000  C
  C865     1.0000 0.90680  0.56317  0.53282  Biso   1.000  C
  H407     1.0000 0.90303  0.53477  0.52487  Biso   1.000  H
  C866     1.0000 0.95153  0.61617  0.52995  Biso   1.000  C
  H408     1.0000 0.97693  0.62287  0.52027  Biso   1.000  H
  C867     1.0000 0.95713  0.65797  0.54157  Biso   1.000  C
  C868     1.0000 0.91613  0.64757  0.55495  Biso   1.000  C
  H409     1.0000 0.91753  0.67647  0.56187  Biso   1.000  H
  C869     1.0000 0.87313  0.59427  0.55803  Biso   1.000  C
  H410     1.0000 0.84733  0.58737  0.56757  Biso   1.000  H
  C870     1.0000 0.00133  0.71327  0.53983  Biso   1.000  C
  C871     1.0000 0.04093  0.75777  0.53784  Biso   1.000  C
  C872     1.0000 0.08993  0.81037  0.53658  Biso   1.000  C
  C873     1.0000 0.12863  0.81947  0.52294  Biso   1.000  C
  C874     1.0000 0.12153  0.78057  0.50862  Biso   1.000  C
  H411     1.0000 0.08923  0.74677  0.50887  Biso   1.000  H
  C875     1.0000 0.15793  0.78937  0.49495  Biso   1.000  C
  C876     1.0000 0.09713  0.85127  0.55023  Biso   1.000  C
  C877     1.0000 0.05643  0.84437  0.56481  Biso   1.000  C
  H412     1.0000 0.02323  0.81147  0.56507  Biso   1.000  H
  C878     1.0000 0.06463  0.88297  0.57783  Biso   1.000  C
  C879     1.0000 0.63973  0.44717  0.63260  Biso   1.000  C
  H413     1.0000 0.67393  0.47037  0.62717  Biso   1.000  H
  C880     1.0000 0.62343  0.45927  0.65045  Biso   1.000  C
  H414     1.0000 0.64743  0.49177  0.65677  Biso   1.000  H
  C881     1.0000 0.48153  0.43117  0.71684  Biso   1.000  C
  C882     1.0000 0.44683  0.37677  0.70977  Biso   1.000  C
  H415     1.0000 0.45793  0.36507  0.69897  Biso   1.000  H
  C883     1.0000 0.40093  0.34387  0.71777  Biso   1.000  C
  H416     1.0000 0.37993  0.30837  0.71307  Biso   1.000  H
  C884     1.0000 0.38193  0.36127  0.73367  Biso   1.000  C
  H417     1.0000 0.34713  0.33757  0.73857  Biso   1.000  H
  C885     1.0000 0.41183  0.40997  0.74207  Biso   1.000  C
  H418     1.0000 0.39823  0.41817  0.75307  Biso   1.000  H
  C886     1.0000 0.46383  0.44987  0.73477  Biso   1.000  C
  C887     1.0000 0.39463  0.51987  0.79433  Biso   1.000  C
  H419     1.0000 0.37223  0.48497  0.78927  Biso   1.000  H
  C888     1.0000 0.37543  0.53997  0.80976  Biso   1.000  C
  H420     1.0000 0.34033  0.51787  0.81467  Biso   1.000  H
  O145     1.0000 0.17956  0.63617  0.89687  Biso   1.000  O
  O146     1.0000 0.20740  0.69107  0.87035  Biso   1.000  O
  O147     1.0000 0.23855  0.57834  0.83929  Biso   1.000  O
  O148     1.0000 0.24588  0.57622  0.93066  Biso   1.000  O
  C889     1.0000 0.17167  0.65963  0.88272  Biso   1.000  C
  C890     1.0000 0.11451  0.65017  0.88015  Biso   1.000  C
  C891     1.0000 0.10350  0.67697  0.86615  Biso   1.000  C
  H421     1.0000 0.13190  0.70160  0.85820  Biso   1.000  H
  C892     1.0000 0.05050  0.66870  0.86328  Biso   1.000  C
  H422     1.0000 0.04380  0.68740  0.85360  Biso   1.000  H
  C893     1.0000 0.00870  0.63250  0.87490  Biso   1.000  C
  C894     1.0000 0.01910  0.60190  0.88828  Biso   1.000  C
  H423     1.0000 0.99020  0.57440  0.89520  Biso   1.000  H
  C895     1.0000 0.07240  0.61220  0.89136  Biso   1.000  C
  H424     1.0000 0.07930  0.59330  0.90090  Biso   1.000  H
  C896     1.0000 0.95340  0.62140  0.87316  Biso   1.000  C
  C897     1.0000 0.90890  0.61650  0.87117  Biso   1.000  C
  C898     1.0000 0.85630  0.61290  0.86991  Biso   1.000  C
  C899     1.0000 0.84720  0.64250  0.85627  Biso   1.000  C
  C900     1.0000 0.88610  0.67430  0.84195  Biso   1.000  C
  H425     1.0000 0.91990  0.67580  0.84220  Biso   1.000  H
  C901     1.0000 0.87730  0.70190  0.82828  Biso   1.000  C
  C902     1.0000 0.81540  0.57920  0.88356  Biso   1.000  C
  C903     1.0000 0.82230  0.54540  0.89814  Biso   1.000  C
  H426     1.0000 0.85520  0.54510  0.89840  Biso   1.000  H
  C904     1.0000 0.78370  0.51500  0.91116  Biso   1.000  C
  C905     1.0000 0.21950  0.52590  0.96593  Biso   1.000  C
  H427     1.0000 0.19630  0.53690  0.96050  Biso   1.000  H
  C906     1.0000 0.20740  0.49750  0.98378  Biso   1.000  C
  H428     1.0000 0.17490  0.48900  0.99010  Biso   1.000  H
  C907     1.0000 0.23550  0.38370  0.05017  Biso   1.000  C
  C908     1.0000 0.28990  0.40340  0.04310  Biso   1.000  C
  H429     1.0000 0.30160  0.42620  0.03230  Biso   1.000  H
  C909     1.0000 0.32280  0.39040  0.05110  Biso   1.000  C
  H430     1.0000 0.35830  0.40490  0.04640  Biso   1.000  H
  C910     1.0000 0.30540  0.35400  0.06700  Biso   1.000  C
  H431     1.0000 0.32910  0.34290  0.07190  Biso   1.000  H
  C911     1.0000 0.25670  0.33520  0.07540  Biso   1.000  C
  H432     1.0000 0.24850  0.31340  0.08640  Biso   1.000  H
  C912     1.0000 0.21680  0.34730  0.06810  Biso   1.000  C
  C913     1.0000 0.14680  0.20810  0.12766  Biso   1.000  C
  H433     1.0000 0.18170  0.22060  0.12260  Biso   1.000  H
  C914     1.0000 0.12670  0.16880  0.14309  Biso   1.000  C
  H434     1.0000 0.14880  0.15580  0.14800  Biso   1.000  H
  O149     1.0000 0.84623  0.96950  0.23020  Biso   1.000  O
  O150     1.0000 0.87407  0.02440  0.20368  Biso   1.000  O
  O151     1.0000 0.90522  0.91167  0.17262  Biso   1.000  O
  O152     1.0000 0.91255  0.90955  0.26399  Biso   1.000  O
  C915     1.0000 0.83834  0.99296  0.21605  Biso   1.000  C
  C916     1.0000 0.78118  0.98350  0.21348  Biso   1.000  C
  C917     1.0000 0.77017  0.01030  0.19948  Biso   1.000  C
  H435     1.0000 0.79857  0.03493  0.19153  Biso   1.000  H
  C918     1.0000 0.71717  0.00203  0.19661  Biso   1.000  C
  H436     1.0000 0.71047  0.02073  0.18693  Biso   1.000  H
  C919     1.0000 0.67537  0.96583  0.20823  Biso   1.000  C
  C920     1.0000 0.68577  0.93523  0.22161  Biso   1.000  C
  H437     1.0000 0.65687  0.90773  0.22853  Biso   1.000  H
  C921     1.0000 0.73907  0.94553  0.22469  Biso   1.000  C
  H438     1.0000 0.74597  0.92663  0.23423  Biso   1.000  H
  C922     1.0000 0.62007  0.95473  0.20649  Biso   1.000  C
  C923     1.0000 0.57557  0.94983  0.20450  Biso   1.000  C
  C924     1.0000 0.52297  0.94623  0.20324  Biso   1.000  C
  C925     1.0000 0.51387  0.97583  0.18960  Biso   1.000  C
  C926     1.0000 0.55277  0.00763  0.17528  Biso   1.000  C
  H439     1.0000 0.58657  0.00913  0.17553  Biso   1.000  H
  C927     1.0000 0.54397  0.03523  0.16161  Biso   1.000  C
  C928     1.0000 0.48207  0.91253  0.21689  Biso   1.000  C
  C929     1.0000 0.48897  0.87873  0.23147  Biso   1.000  C
  H440     1.0000 0.52187  0.87843  0.23173  Biso   1.000  H
  C930     1.0000 0.45037  0.84833  0.24449  Biso   1.000  C
  C931     1.0000 0.88617  0.85923  0.29926  Biso   1.000  C
  H441     1.0000 0.86297  0.87023  0.29383  Biso   1.000  H
  C932     1.0000 0.87407  0.83083  0.31711  Biso   1.000  C
  H442     1.0000 0.84157  0.82233  0.32343  Biso   1.000  H
  C933     1.0000 0.90217  0.71703  0.38350  Biso   1.000  C
  C934     1.0000 0.95657  0.73673  0.37643  Biso   1.000  C
  H443     1.0000 0.96827  0.75953  0.36563  Biso   1.000  H
  C935     1.0000 0.98947  0.72373  0.38443  Biso   1.000  C
  H444     1.0000 0.02497  0.73823  0.37973  Biso   1.000  H
  C936     1.0000 0.97207  0.68733  0.40033  Biso   1.000  C
  H445     1.0000 0.99577  0.67623  0.40523  Biso   1.000  H
  C937     1.0000 0.92337  0.66853  0.40873  Biso   1.000  C
  H446     1.0000 0.91517  0.64673  0.41973  Biso   1.000  H
  C938     1.0000 0.88347  0.68063  0.40143  Biso   1.000  C
  C939     1.0000 0.81347  0.54143  0.46099  Biso   1.000  C
  H447     1.0000 0.84837  0.55393  0.45593  Biso   1.000  H
  C940     1.0000 0.79337  0.50213  0.47642  Biso   1.000  C
  H448     1.0000 0.81547  0.48913  0.48133  Biso   1.000  H
  O153     1.0000 0.51289  0.30284  0.56354  Biso   1.000  O
  O154     1.0000 0.54073  0.35774  0.53702  Biso   1.000  O
  O155     1.0000 0.57188  0.24501  0.50596  Biso   1.000  O
  O156     1.0000 0.57921  0.24289  0.59733  Biso   1.000  O
  C941     1.0000 0.50500  0.32630  0.54939  Biso   1.000  C
  C942     1.0000 0.44784  0.31684  0.54682  Biso   1.000  C
  C943     1.0000 0.43683  0.34364  0.53282  Biso   1.000  C
  H449     1.0000 0.46523  0.36827  0.52487  Biso   1.000  H
  C944     1.0000 0.38383  0.33537  0.52995  Biso   1.000  C
  H450     1.0000 0.37713  0.35407  0.52027  Biso   1.000  H
  C945     1.0000 0.34203  0.29917  0.54157  Biso   1.000  C
  C946     1.0000 0.35243  0.26857  0.55495  Biso   1.000  C
  H451     1.0000 0.32353  0.24107  0.56187  Biso   1.000  H
  C947     1.0000 0.40573  0.27887  0.55803  Biso   1.000  C
  H452     1.0000 0.41263  0.25997  0.56757  Biso   1.000  H
  C948     1.0000 0.28673  0.28807  0.53983  Biso   1.000  C
  C949     1.0000 0.24223  0.28317  0.53784  Biso   1.000  C
  C950     1.0000 0.18963  0.27957  0.53658  Biso   1.000  C
  C951     1.0000 0.18053  0.30917  0.52294  Biso   1.000  C
  C952     1.0000 0.21943  0.34097  0.50862  Biso   1.000  C
  H453     1.0000 0.25323  0.34247  0.50887  Biso   1.000  H
  C953     1.0000 0.21063  0.36857  0.49495  Biso   1.000  C
  C954     1.0000 0.14873  0.24587  0.55023  Biso   1.000  C
  C955     1.0000 0.15563  0.21207  0.56481  Biso   1.000  C
  H454     1.0000 0.18853  0.21177  0.56507  Biso   1.000  H
  C956     1.0000 0.11703  0.18167  0.57783  Biso   1.000  C
  C957     1.0000 0.55283  0.19257  0.63260  Biso   1.000  C
  H455     1.0000 0.52963  0.20357  0.62717  Biso   1.000  H
  C958     1.0000 0.54073  0.16417  0.65045  Biso   1.000  C
  H456     1.0000 0.50823  0.15567  0.65677  Biso   1.000  H
  C959     1.0000 0.56883  0.05037  0.71684  Biso   1.000  C
  C960     1.0000 0.62323  0.07007  0.70977  Biso   1.000  C
  H457     1.0000 0.63493  0.09287  0.69897  Biso   1.000  H
  C961     1.0000 0.65613  0.05707  0.71777  Biso   1.000  C
  H458     1.0000 0.69163  0.07157  0.71307  Biso   1.000  H
  C962     1.0000 0.63873  0.02067  0.73367  Biso   1.000  C
  H459     1.0000 0.66243  0.00957  0.73857  Biso   1.000  H
  C963     1.0000 0.59003  0.00187  0.74207  Biso   1.000  C
  H460     1.0000 0.58183  0.98007  0.75307  Biso   1.000  H
  C964     1.0000 0.55013  0.01397  0.73477  Biso   1.000  C
  C965     1.0000 0.48013  0.87477  0.79433  Biso   1.000  C
  H461     1.0000 0.51503  0.88727  0.78927  Biso   1.000  H
  C966     1.0000 0.46003  0.83547  0.80976  Biso   1.000  C
  H462     1.0000 0.48213  0.82247  0.81467  Biso   1.000  H
  O157     1.0000 0.36383  0.54339  0.89687  Biso   1.000  O
  O158     1.0000 0.30893  0.51633  0.87035  Biso   1.000  O
  O159     1.0000 0.42166  0.66021  0.83929  Biso   1.000  O
  O160     1.0000 0.42378  0.66966  0.93066  Biso   1.000  O
  C967     1.0000 0.34037  0.51204  0.88272  Biso   1.000  C
  C968     1.0000 0.34983  0.46434  0.88015  Biso   1.000  C
  C969     1.0000 0.32303  0.42653  0.86615  Biso   1.000  C
  H463     1.0000 0.29840  0.43030  0.85820  Biso   1.000  H
  C970     1.0000 0.33130  0.38180  0.86328  Biso   1.000  C
  H464     1.0000 0.31260  0.35640  0.85360  Biso   1.000  H
  C971     1.0000 0.36750  0.37620  0.87490  Biso   1.000  C
  C972     1.0000 0.39810  0.41720  0.88828  Biso   1.000  C
  H465     1.0000 0.42560  0.41580  0.89520  Biso   1.000  H
  C973     1.0000 0.38780  0.46020  0.89136  Biso   1.000  C
  H466     1.0000 0.40670  0.48600  0.90090  Biso   1.000  H
  C974     1.0000 0.37860  0.33200  0.87316  Biso   1.000  C
  C975     1.0000 0.38350  0.29240  0.87117  Biso   1.000  C
  C976     1.0000 0.38710  0.24340  0.86991  Biso   1.000  C
  C977     1.0000 0.35750  0.20470  0.85627  Biso   1.000  C
  C978     1.0000 0.32570  0.21180  0.84195  Biso   1.000  C
  H467     1.0000 0.32420  0.24410  0.84220  Biso   1.000  H
  C979     1.0000 0.29810  0.17540  0.82828  Biso   1.000  C
  C980     1.0000 0.42080  0.23620  0.88356  Biso   1.000  C
  C981     1.0000 0.45460  0.27690  0.89814  Biso   1.000  C
  H468     1.0000 0.45490  0.31010  0.89840  Biso   1.000  H
  C982     1.0000 0.48500  0.26870  0.91116  Biso   1.000  C
  C983     1.0000 0.47410  0.69360  0.96593  Biso   1.000  C
  H469     1.0000 0.46310  0.65940  0.96050  Biso   1.000  H
  C984     1.0000 0.50250  0.70990  0.98378  Biso   1.000  C
  H470     1.0000 0.51100  0.68590  0.99010  Biso   1.000  H
  C985     1.0000 0.61630  0.85180  0.05017  Biso   1.000  C
  C986     1.0000 0.59660  0.88650  0.04310  Biso   1.000  C
  H471     1.0000 0.57380  0.87540  0.03230  Biso   1.000  H
  C987     1.0000 0.60960  0.93240  0.05110  Biso   1.000  C
  H472     1.0000 0.59510  0.95340  0.04640  Biso   1.000  H
  C988     1.0000 0.64600  0.95140  0.06700  Biso   1.000  C
  H473     1.0000 0.65710  0.98620  0.07190  Biso   1.000  H
  C989     1.0000 0.66480  0.92150  0.07540  Biso   1.000  C
  H474     1.0000 0.68660  0.93510  0.08640  Biso   1.000  H
  C990     1.0000 0.65270  0.86950  0.06810  Biso   1.000  C
  C991     1.0000 0.79190  0.93870  0.12766  Biso   1.000  C
  H475     1.0000 0.77940  0.96110  0.12260  Biso   1.000  H
  C992     1.0000 0.83120  0.95790  0.14309  Biso   1.000  C
  H476     1.0000 0.84420  0.99300  0.14800  Biso   1.000  H
  O161     1.0000 0.03050  0.87672  0.23020  Biso   1.000  O
  O162     1.0000 0.97560  0.84966  0.20368  Biso   1.000  O
  O163     1.0000 0.08833  0.99354  0.17262  Biso   1.000  O
  O164     1.0000 0.09045  0.00299  0.26399  Biso   1.000  O
  C993     1.0000 0.00704  0.84537  0.21605  Biso   1.000  C
  C994     1.0000 0.01650  0.79767  0.21348  Biso   1.000  C
  C995     1.0000 0.98970  0.75986  0.19948  Biso   1.000  C
  H477     1.0000 0.96507  0.76363  0.19153  Biso   1.000  H
  C996     1.0000 0.99797  0.71513  0.19661  Biso   1.000  C
  H478     1.0000 0.97927  0.68973  0.18693  Biso   1.000  H
  C997     1.0000 0.03417  0.70953  0.20823  Biso   1.000  C
  C998     1.0000 0.06477  0.75053  0.22161  Biso   1.000  C
  H479     1.0000 0.09227  0.74913  0.22853  Biso   1.000  H
  C999     1.0000 0.05447  0.79353  0.22469  Biso   1.000  C
  H480     1.0000 0.07337  0.81933  0.23423  Biso   1.000  H
  C1000    1.0000 0.04527  0.66533  0.20649  Biso   1.000  C
  C1001    1.0000 0.05017  0.62573  0.20450  Biso   1.000  C
  C1002    1.0000 0.05377  0.57673  0.20324  Biso   1.000  C
  C1003    1.0000 0.02417  0.53803  0.18960  Biso   1.000  C
  C1004    1.0000 0.99237  0.54513  0.17528  Biso   1.000  C
  H481     1.0000 0.99087  0.57743  0.17553  Biso   1.000  H
  C1005    1.0000 0.96477  0.50873  0.16161  Biso   1.000  C
  C1006    1.0000 0.08747  0.56953  0.21689  Biso   1.000  C
  C1007    1.0000 0.12127  0.61023  0.23147  Biso   1.000  C
  H482     1.0000 0.12157  0.64343  0.23173  Biso   1.000  H
  C1008    1.0000 0.15167  0.60203  0.24449  Biso   1.000  C
  C1009    1.0000 0.14077  0.02693  0.29926  Biso   1.000  C
  H483     1.0000 0.12977  0.99273  0.29383  Biso   1.000  H
  C1010    1.0000 0.16917  0.04323  0.31711  Biso   1.000  C
  H484     1.0000 0.17767  0.01923  0.32343  Biso   1.000  H
  C1011    1.0000 0.28297  0.18513  0.38350  Biso   1.000  C
  C1012    1.0000 0.26327  0.21983  0.37643  Biso   1.000  C
  H485     1.0000 0.24047  0.20873  0.36563  Biso   1.000  H
  C1013    1.0000 0.27627  0.26573  0.38443  Biso   1.000  C
  H486     1.0000 0.26177  0.28673  0.37973  Biso   1.000  H
  C1014    1.0000 0.31267  0.28473  0.40033  Biso   1.000  C
  H487     1.0000 0.32377  0.31953  0.40523  Biso   1.000  H
  C1015    1.0000 0.33147  0.25483  0.40873  Biso   1.000  C
  H488     1.0000 0.35327  0.26843  0.41973  Biso   1.000  H
  C1016    1.0000 0.31937  0.20283  0.40143  Biso   1.000  C
  C1017    1.0000 0.45857  0.27203  0.46099  Biso   1.000  C
  H489     1.0000 0.44607  0.29443  0.45593  Biso   1.000  H
  C1018    1.0000 0.49787  0.29123  0.47642  Biso   1.000  C
  H490     1.0000 0.51087  0.32633  0.48133  Biso   1.000  H
  O165     1.0000 0.69716  0.21006  0.56354  Biso   1.000  O
  O166     1.0000 0.64226  0.18300  0.53702  Biso   1.000  O
  O167     1.0000 0.75499  0.32688  0.50596  Biso   1.000  O
  O168     1.0000 0.75711  0.33633  0.59733  Biso   1.000  O
  C1019    1.0000 0.67370  0.17871  0.54939  Biso   1.000  C
  C1020    1.0000 0.68316  0.13101  0.54682  Biso   1.000  C
  C1021    1.0000 0.65636  0.09320  0.53282  Biso   1.000  C
  H491     1.0000 0.63173  0.09697  0.52487  Biso   1.000  H
  C1022    1.0000 0.66463  0.04847  0.52995  Biso   1.000  C
  H492     1.0000 0.64593  0.02307  0.52027  Biso   1.000  H
  C1023    1.0000 0.70083  0.04287  0.54157  Biso   1.000  C
  C1024    1.0000 0.73143  0.08387  0.55495  Biso   1.000  C
  H493     1.0000 0.75893  0.08247  0.56187  Biso   1.000  H
  C1025    1.0000 0.72113  0.12687  0.55803  Biso   1.000  C
  H494     1.0000 0.74003  0.15267  0.56757  Biso   1.000  H
  C1026    1.0000 0.71193  0.99867  0.53983  Biso   1.000  C
  C1027    1.0000 0.71683  0.95907  0.53784  Biso   1.000  C
  C1028    1.0000 0.72043  0.91007  0.53658  Biso   1.000  C
  C1029    1.0000 0.69083  0.87137  0.52294  Biso   1.000  C
  C1030    1.0000 0.65903  0.87847  0.50862  Biso   1.000  C
  H495     1.0000 0.65753  0.91077  0.50887  Biso   1.000  H
  C1031    1.0000 0.63143  0.84207  0.49495  Biso   1.000  C
  C1032    1.0000 0.75413  0.90287  0.55023  Biso   1.000  C
  C1033    1.0000 0.78793  0.94357  0.56481  Biso   1.000  C
  H496     1.0000 0.78823  0.97677  0.56507  Biso   1.000  H
  C1034    1.0000 0.81833  0.93537  0.57783  Biso   1.000  C
  C1035    1.0000 0.80743  0.36027  0.63260  Biso   1.000  C
  H497     1.0000 0.79643  0.32607  0.62717  Biso   1.000  H
  C1036    1.0000 0.83583  0.37657  0.65045  Biso   1.000  C
  H498     1.0000 0.84433  0.35257  0.65677  Biso   1.000  H
  C1037    1.0000 0.94963  0.51847  0.71684  Biso   1.000  C
  C1038    1.0000 0.92993  0.55317  0.70977  Biso   1.000  C
  H499     1.0000 0.90713  0.54207  0.69897  Biso   1.000  H
  C1039    1.0000 0.94293  0.59907  0.71777  Biso   1.000  C
  H500     1.0000 0.92843  0.62007  0.71307  Biso   1.000  H
  C1040    1.0000 0.97933  0.61807  0.73367  Biso   1.000  C
  H501     1.0000 0.99043  0.65287  0.73857  Biso   1.000  H
  C1041    1.0000 0.99813  0.58817  0.74207  Biso   1.000  C
  H502     1.0000 0.01993  0.60177  0.75307  Biso   1.000  H
  C1042    1.0000 0.98603  0.53617  0.73477  Biso   1.000  C
  C1043    1.0000 0.12523  0.60537  0.79433  Biso   1.000  C
  H503     1.0000 0.11273  0.62777  0.78927  Biso   1.000  H
  C1044    1.0000 0.16453  0.62457  0.80976  Biso   1.000  C
  H504     1.0000 0.17753  0.65967  0.81467  Biso   1.000  H
  Zr19     1.0000 0.29184  0.70816  0.86385  Biso   1.000  Zr
  O169     1.0000 0.28642  0.71358  0.89634  Biso   1.000  O
  C1045    1.0000 0.28258  0.71742  0.93810  Biso   1.000  C
  C1046    1.0000 0.26825  0.73175  0.95704  Biso   1.000  C
  C1047    1.0000 0.24120  0.75880  0.99180  Biso   1.000  C
  C1048    1.0000 0.22680  0.77320  0.01090  Biso   1.000  C
  C1049    1.0000 0.21500  0.78500  0.02480  Biso   1.000  C
  C1050    1.0000 0.19880  0.80120  0.04284  Biso   1.000  C
  C1051    1.0000 0.16620  0.83380  0.07514  Biso   1.000  C
  C1052    1.0000 0.14750  0.85250  0.09229  Biso   1.000  C
  C1053    1.0000 0.13360  0.86640  0.10480  Biso   1.000  C
  C1054    1.0000 0.11360  0.88640  0.12035  Biso   1.000  C
  Zr20     1.0000 0.95851  0.04149  0.19718  Biso   1.000  Zr
  O170     1.0000 0.95309  0.04691  0.22967  Biso   1.000  O
  C1055    1.0000 0.94925  0.05075  0.27143  Biso   1.000  C
  C1056    1.0000 0.93492  0.06508  0.29037  Biso   1.000  C
  C1057    1.0000 0.90787  0.09213  0.32513  Biso   1.000  C
  C1058    1.0000 0.89347  0.10653  0.34423  Biso   1.000  C
  C1059    1.0000 0.88167  0.11833  0.35813  Biso   1.000  C
  C1060    1.0000 0.86547  0.13453  0.37617  Biso   1.000  C
  C1061    1.0000 0.83287  0.16713  0.40847  Biso   1.000  C
  C1062    1.0000 0.81417  0.18583  0.42562  Biso   1.000  C
  C1063    1.0000 0.80027  0.19973  0.43813  Biso   1.000  C
  C1064    1.0000 0.78027  0.21973  0.45368  Biso   1.000  C
  Zr21     1.0000 0.62517  0.37483  0.53051  Biso   1.000  Zr
  O171     1.0000 0.61975  0.38025  0.56301  Biso   1.000  O
  C1065    1.0000 0.61591  0.38409  0.60477  Biso   1.000  C
  C1066    1.0000 0.60158  0.39842  0.62371  Biso   1.000  C
  C1067    1.0000 0.57453  0.42547  0.65847  Biso   1.000  C
  C1068    1.0000 0.56013  0.43987  0.67757  Biso   1.000  C
  C1069    1.0000 0.54833  0.45167  0.69147  Biso   1.000  C
  C1070    1.0000 0.53213  0.46787  0.70951  Biso   1.000  C
  C1071    1.0000 0.49953  0.50047  0.74181  Biso   1.000  C
  C1072    1.0000 0.48083  0.51917  0.75896  Biso   1.000  C
  C1073    1.0000 0.46693  0.53307  0.77147  Biso   1.000  C
  C1074    1.0000 0.44693  0.55307  0.78702  Biso   1.000  C
  Zr22     1.0000 0.41632  0.70816  0.86385  Biso   1.000  Zr
  O172     1.0000 0.42716  0.71358  0.89634  Biso   1.000  O
  C1075    1.0000 0.43484  0.71742  0.93810  Biso   1.000  C
  C1076    1.0000 0.46350  0.73175  0.95704  Biso   1.000  C
  C1077    1.0000 0.51760  0.75880  0.99180  Biso   1.000  C
  C1078    1.0000 0.54640  0.77320  0.01090  Biso   1.000  C
  C1079    1.0000 0.57000  0.78500  0.02480  Biso   1.000  C
  C1080    1.0000 0.60240  0.80120  0.04284  Biso   1.000  C
  C1081    1.0000 0.66760  0.83380  0.07514  Biso   1.000  C
  C1082    1.0000 0.70500  0.85250  0.09229  Biso   1.000  C
  C1083    1.0000 0.73280  0.86640  0.10480  Biso   1.000  C
  C1084    1.0000 0.77280  0.88640  0.12035  Biso   1.000  C
  Zr23     1.0000 0.08299  0.04149  0.19718  Biso   1.000  Zr
  O173     1.0000 0.09383  0.04691  0.22967  Biso   1.000  O
  C1085    1.0000 0.10151  0.05075  0.27143  Biso   1.000  C
  C1086    1.0000 0.13017  0.06508  0.29037  Biso   1.000  C
  C1087    1.0000 0.18427  0.09213  0.32513  Biso   1.000  C
  C1088    1.0000 0.21307  0.10653  0.34423  Biso   1.000  C
  C1089    1.0000 0.23667  0.11833  0.35813  Biso   1.000  C
  C1090    1.0000 0.26907  0.13453  0.37617  Biso   1.000  C
  C1091    1.0000 0.33427  0.16713  0.40847  Biso   1.000  C
  C1092    1.0000 0.37167  0.18583  0.42562  Biso   1.000  C
  C1093    1.0000 0.39947  0.19973  0.43813  Biso   1.000  C
  C1094    1.0000 0.43947  0.21973  0.45368  Biso   1.000  C
  Zr24     1.0000 0.74965  0.37483  0.53051  Biso   1.000  Zr
  O174     1.0000 0.76049  0.38025  0.56301  Biso   1.000  O
  C1095    1.0000 0.76817  0.38409  0.60477  Biso   1.000  C
  C1096    1.0000 0.79683  0.39842  0.62371  Biso   1.000  C
  C1097    1.0000 0.85093  0.42547  0.65847  Biso   1.000  C
  C1098    1.0000 0.87973  0.43987  0.67757  Biso   1.000  C
  C1099    1.0000 0.90333  0.45167  0.69147  Biso   1.000  C
  C1100    1.0000 0.93573  0.46787  0.70951  Biso   1.000  C
  C1101    1.0000 0.00093  0.50047  0.74181  Biso   1.000  C
  C1102    1.0000 0.03833  0.51917  0.75896  Biso   1.000  C
  C1103    1.0000 0.06613  0.53307  0.77147  Biso   1.000  C
  C1104    1.0000 0.10613  0.55307  0.78702  Biso   1.000  C
  Zr25     1.0000 0.29184  0.58368  0.86385  Biso   1.000  Zr
  O175     1.0000 0.28642  0.57284  0.89634  Biso   1.000  O
  C1105    1.0000 0.28258  0.56516  0.93810  Biso   1.000  C
  C1106    1.0000 0.26825  0.53650  0.95704  Biso   1.000  C
  C1107    1.0000 0.24120  0.48240  0.99180  Biso   1.000  C
  C1108    1.0000 0.22680  0.45360  0.01090  Biso   1.000  C
  C1109    1.0000 0.21500  0.43000  0.02480  Biso   1.000  C
  C1110    1.0000 0.19880  0.39760  0.04284  Biso   1.000  C
  C1111    1.0000 0.16620  0.33240  0.07514  Biso   1.000  C
  C1112    1.0000 0.14750  0.29500  0.09229  Biso   1.000  C
  C1113    1.0000 0.13360  0.26720  0.10480  Biso   1.000  C
  C1114    1.0000 0.11360  0.22720  0.12035  Biso   1.000  C
  Zr26     1.0000 0.95851  0.91701  0.19718  Biso   1.000  Zr
  O176     1.0000 0.95309  0.90617  0.22967  Biso   1.000  O
  C1115    1.0000 0.94925  0.89849  0.27143  Biso   1.000  C
  C1116    1.0000 0.93492  0.86983  0.29037  Biso   1.000  C
  C1117    1.0000 0.90787  0.81573  0.32513  Biso   1.000  C
  C1118    1.0000 0.89347  0.78693  0.34423  Biso   1.000  C
  C1119    1.0000 0.88167  0.76333  0.35813  Biso   1.000  C
  C1120    1.0000 0.86547  0.73093  0.37617  Biso   1.000  C
  C1121    1.0000 0.83287  0.66573  0.40847  Biso   1.000  C
  C1122    1.0000 0.81417  0.62833  0.42562  Biso   1.000  C
  C1123    1.0000 0.80027  0.60053  0.43813  Biso   1.000  C
  C1124    1.0000 0.78027  0.56053  0.45368  Biso   1.000  C
  Zr27     1.0000 0.62517  0.25035  0.53051  Biso   1.000  Zr
  O177     1.0000 0.61975  0.23951  0.56301  Biso   1.000  O
  C1125    1.0000 0.61591  0.23183  0.60477  Biso   1.000  C
  C1126    1.0000 0.60158  0.20317  0.62371  Biso   1.000  C
  C1127    1.0000 0.57453  0.14907  0.65847  Biso   1.000  C
  C1128    1.0000 0.56013  0.12027  0.67757  Biso   1.000  C
  C1129    1.0000 0.54833  0.09667  0.69147  Biso   1.000  C
  C1130    1.0000 0.53213  0.06427  0.70951  Biso   1.000  C
  C1131    1.0000 0.49953  0.99907  0.74181  Biso   1.000  C
  C1132    1.0000 0.48083  0.96167  0.75896  Biso   1.000  C
  C1133    1.0000 0.46693  0.93387  0.77147  Biso   1.000  C
  C1134    1.0000 0.44693  0.89387  0.78702  Biso   1.000  C
  Zr28     1.0000 0.25028  0.62514  0.90495  Biso   1.000  Zr
  O178     1.0000 0.26328  0.63164  0.87577  Biso   1.000  O
  C1135    1.0000 0.22270  0.61135  0.83339  Biso   1.000  C
  C1136    1.0000 0.18330  0.59165  0.81726  Biso   1.000  C
  Zr29     1.0000 0.91695  0.95847  0.23828  Biso   1.000  Zr
  O179     1.0000 0.92995  0.96497  0.20910  Biso   1.000  O
  C1137    1.0000 0.88937  0.94468  0.16672  Biso   1.000  C
  C1138    1.0000 0.84997  0.92498  0.15059  Biso   1.000  C
  Zr30     1.0000 0.58361  0.29181  0.57162  Biso   1.000  Zr
  O180     1.0000 0.59661  0.29831  0.54244  Biso   1.000  O
  C1139    1.0000 0.55603  0.27802  0.50006  Biso   1.000  C
  C1140    1.0000 0.51663  0.25832  0.48393  Biso   1.000  C
  Zr31     1.0000 0.37486  0.74972  0.90495  Biso   1.000  Zr
  O181     1.0000 0.36836  0.73672  0.87577  Biso   1.000  O
  C1141    1.0000 0.38865  0.77730  0.83339  Biso   1.000  C
  C1142    1.0000 0.40835  0.81670  0.81726  Biso   1.000  C
  Zr32     1.0000 0.04153  0.08305  0.23828  Biso   1.000  Zr
  O182     1.0000 0.03503  0.07005  0.20910  Biso   1.000  O
  C1143    1.0000 0.05532  0.11063  0.16672  Biso   1.000  C
  C1144    1.0000 0.07502  0.15003  0.15059  Biso   1.000  C
  Zr33     1.0000 0.70819  0.41639  0.57162  Biso   1.000  Zr
  O183     1.0000 0.70169  0.40339  0.54244  Biso   1.000  O
  C1145    1.0000 0.72198  0.44397  0.50006  Biso   1.000  C
  C1146    1.0000 0.74168  0.48337  0.48393  Biso   1.000  C
  Zr34     1.0000 0.37486  0.62514  0.90495  Biso   1.000  Zr
  O184     1.0000 0.36836  0.63164  0.87577  Biso   1.000  O
  C1147    1.0000 0.38865  0.61135  0.83339  Biso   1.000  C
  C1148    1.0000 0.40835  0.59165  0.81726  Biso   1.000  C
  Zr35     1.0000 0.04153  0.95847  0.23828  Biso   1.000  Zr
  O185     1.0000 0.03503  0.96497  0.20910  Biso   1.000  O
  C1149    1.0000 0.05532  0.94468  0.16672  Biso   1.000  C
  C1150    1.0000 0.07502  0.92498  0.15059  Biso   1.000  C
  Zr36     1.0000 0.70819  0.29181  0.57162  Biso   1.000  Zr
  O186     1.0000 0.70169  0.29831  0.54244  Biso   1.000  O
  C1151    1.0000 0.72198  0.27802  0.50006  Biso   1.000  C
  C1152    1.0000 0.74168  0.25832  0.48393  Biso   1.000  C
  O187     1.0000 0.33333  0.66667  0.91076  Biso   1.000  O
  O188     1.0000 0.33333  0.66667  0.84953  Biso   1.000  O
  O189     1.0000 0.00000  0.00000  0.24409  Biso   1.000  O
  O190     1.0000 0.00000  0.00000  0.18286  Biso   1.000  O
  O191     1.0000 0.66667  0.33333  0.57743  Biso   1.000  O
  O192     1.0000 0.66667  0.33333  0.51620  Biso   1.000  O
