data_image0
_cell_length_a       16.183
_cell_length_b       28.455
_cell_length_c       17.23
_cell_angle_alpha    90
_cell_angle_beta     90
_cell_angle_gamma    90

_symmetry_space_group_name_H-M    "P 1"
_symmetry_int_tables_number       1

loop_
  _symmetry_equiv_pos_as_xyz
  'x, y, z'

loop_
  _atom_site_label
  _atom_site_occupancy
  _atom_site_fract_x
  _atom_site_fract_y
  _atom_site_fract_z
  _atom_site_thermal_displace_type
  _atom_site_B_iso_or_equiv
  _atom_site_type_symbol
  Cd1      1.0000 0.84582  0.36880  0.02673  Biso   1.000  Cd
  O1       1.0000 0.87840  0.36045  0.16370  Biso   1.000  O
  O2       1.0000 0.74930  0.36778  0.12880  Biso   1.000  O
  O3       1.0000 0.76550  0.39282  0.44670  Biso   1.000  O
  O4       1.0000 0.00580  0.63892  0.98490  Biso   1.000  O
  O5       1.0000 0.65300  0.37333  0.38760  Biso   1.000  O
  N1       1.0000 0.88750  0.44589  0.04900  Biso   1.000  N
  N2       1.0000 0.91880  0.62406  0.08420  Biso   1.000  N
  H1       1.0000 0.87090  0.63110  0.10550  Biso   1.000  H
  N3       1.0000 0.85080  0.78713  0.98680  Biso   1.000  N
  C1       1.0000 0.87560  0.52960  0.03470  Biso   1.000  C
  H2       1.0000 0.84920  0.55520  0.00940  Biso   1.000  H
  C2       1.0000 0.94590  0.45390  0.10170  Biso   1.000  C
  H3       1.0000 0.97170  0.42750  0.12530  Biso   1.000  H
  C3       1.0000 0.93540  0.53720  0.08970  Biso   1.000  C
  C4       1.0000 0.80310  0.36190  0.18030  Biso   1.000  C
  C5       1.0000 0.77580  0.35570  0.26400  Biso   1.000  C
  H4       1.0000 0.81720  0.33620  0.29150  Biso   1.000  H
  H5       1.0000 0.72270  0.33840  0.26470  Biso   1.000  H
  C6       1.0000 0.76500  0.40190  0.30810  Biso   1.000  C
  C7       1.0000 0.84930  0.42540  0.31930  Biso   1.000  C
  H6       1.0000 0.88830  0.40270  0.34120  Biso   1.000  H
  H7       1.0000 0.84360  0.45210  0.35480  Biso   1.000  H
  H8       1.0000 0.86990  0.43650  0.26910  Biso   1.000  H
  C8       1.0000 0.85460  0.48340  0.01680  Biso   1.000  C
  H9       1.0000 0.81340  0.47860  0.97840  Biso   1.000  H
  C9       1.0000 0.97090  0.49800  0.12380  Biso   1.000  C
  H10      1.0000 0.01250  0.50160  0.16230  Biso   1.000  H
  C10      1.0000 0.90450  0.69620  0.01140  Biso   1.000  C
  C11      1.0000 0.96540  0.58490  0.11430  Biso   1.000  C
  H11      1.0000 0.96440  0.58640  0.17170  Biso   1.000  H
  H12      1.0000 0.02360  0.58840  0.09760  Biso   1.000  H
  C12      1.0000 0.94610  0.64990  0.02530  Biso   1.000  C
  C13      1.0000 0.86870  0.72180  0.06990  Biso   1.000  C
  H13      1.0000 0.86200  0.70840  0.12000  Biso   1.000  H
  C14      1.0000 0.90950  0.71640  0.93860  Biso   1.000  C
  H14      1.0000 0.93130  0.69930  0.89590  Biso   1.000  H
  C15      1.0000 0.88250  0.76150  0.92950  Biso   1.000  C
  H15      1.0000 0.88650  0.77530  0.87950  Biso   1.000  H
  C16      1.0000 0.84250  0.76680  0.05560  Biso   1.000  C
  H16      1.0000 0.81740  0.78400  0.09650  Biso   1.000  H
  C17      1.0000 0.70550  0.43500  0.26440  Biso   1.000  C
  H17      1.0000 0.73000  0.44380  0.21450  Biso   1.000  H
  H18      1.0000 0.69590  0.46330  0.29550  Biso   1.000  H
  H19      1.0000 0.65290  0.41880  0.25550  Biso   1.000  H
  C18      1.0000 0.72550  0.38840  0.38580  Biso   1.000  C
  Cd2      1.0000 0.65418  0.86880  0.47327  Biso   1.000  Cd
  O6       1.0000 0.62160  0.86045  0.33630  Biso   1.000  O
  O7       1.0000 0.75070  0.86778  0.37120  Biso   1.000  O
  O8       1.0000 0.73450  0.89282  0.05330  Biso   1.000  O
  O9       1.0000 0.49420  0.13892  0.51510  Biso   1.000  O
  O10      1.0000 0.84700  0.87333  0.11240  Biso   1.000  O
  N4       1.0000 0.61250  0.94589  0.45100  Biso   1.000  N
  N5       1.0000 0.58120  0.12406  0.41580  Biso   1.000  N
  H20      1.0000 0.62910  0.13110  0.39450  Biso   1.000  H
  N6       1.0000 0.64920  0.28713  0.51320  Biso   1.000  N
  C19      1.0000 0.62440  0.02960  0.46530  Biso   1.000  C
  H21      1.0000 0.65080  0.05520  0.49060  Biso   1.000  H
  C20      1.0000 0.55410  0.95390  0.39830  Biso   1.000  C
  H22      1.0000 0.52830  0.92750  0.37470  Biso   1.000  H
  C21      1.0000 0.56460  0.03720  0.41030  Biso   1.000  C
  C22      1.0000 0.69690  0.86190  0.31970  Biso   1.000  C
  C23      1.0000 0.72420  0.85570  0.23600  Biso   1.000  C
  H23      1.0000 0.68280  0.83620  0.20850  Biso   1.000  H
  H24      1.0000 0.77730  0.83840  0.23530  Biso   1.000  H
  C24      1.0000 0.73500  0.90190  0.19190  Biso   1.000  C
  C25      1.0000 0.65070  0.92540  0.18070  Biso   1.000  C
  H25      1.0000 0.61170  0.90270  0.15880  Biso   1.000  H
  H26      1.0000 0.65640  0.95210  0.14520  Biso   1.000  H
  H27      1.0000 0.63010  0.93650  0.23090  Biso   1.000  H
  C26      1.0000 0.64540  0.98340  0.48320  Biso   1.000  C
  H28      1.0000 0.68660  0.97860  0.52160  Biso   1.000  H
  C27      1.0000 0.52910  0.99800  0.37620  Biso   1.000  C
  H29      1.0000 0.48750  0.00160  0.33770  Biso   1.000  H
  C28      1.0000 0.59550  0.19620  0.48860  Biso   1.000  C
  C29      1.0000 0.53460  0.08490  0.38570  Biso   1.000  C
  H30      1.0000 0.53560  0.08640  0.32830  Biso   1.000  H
  H31      1.0000 0.47640  0.08840  0.40240  Biso   1.000  H
  C30      1.0000 0.55390  0.14990  0.47470  Biso   1.000  C
  C31      1.0000 0.63130  0.22180  0.43010  Biso   1.000  C
  H32      1.0000 0.63800  0.20840  0.38000  Biso   1.000  H
  C32      1.0000 0.59050  0.21640  0.56140  Biso   1.000  C
  H33      1.0000 0.56870  0.19930  0.60410  Biso   1.000  H
  C33      1.0000 0.61750  0.26150  0.57050  Biso   1.000  C
  H34      1.0000 0.61350  0.27530  0.62050  Biso   1.000  H
  C34      1.0000 0.65750  0.26680  0.44440  Biso   1.000  C
  H35      1.0000 0.68260  0.28400  0.40350  Biso   1.000  H
  C35      1.0000 0.79450  0.93500  0.23560  Biso   1.000  C
  H36      1.0000 0.77000  0.94380  0.28550  Biso   1.000  H
  H37      1.0000 0.80410  0.96330  0.20450  Biso   1.000  H
  H38      1.0000 0.84710  0.91880  0.24450  Biso   1.000  H
  C36      1.0000 0.77450  0.88840  0.11420  Biso   1.000  C
  Cd3      1.0000 0.84582  0.86880  0.97327  Biso   1.000  Cd
  O11      1.0000 0.87840  0.86045  0.83630  Biso   1.000  O
  O12      1.0000 0.74930  0.86778  0.87120  Biso   1.000  O
  O13      1.0000 0.76550  0.89282  0.55330  Biso   1.000  O
  O14      1.0000 0.00580  0.13892  0.01510  Biso   1.000  O
  O15      1.0000 0.65300  0.87333  0.61240  Biso   1.000  O
  N7       1.0000 0.88750  0.94589  0.95100  Biso   1.000  N
  N8       1.0000 0.91880  0.12406  0.91580  Biso   1.000  N
  H39      1.0000 0.87090  0.13110  0.89450  Biso   1.000  H
  N9       1.0000 0.85080  0.28713  0.01320  Biso   1.000  N
  C37      1.0000 0.87560  0.02960  0.96530  Biso   1.000  C
  H40      1.0000 0.84920  0.05520  0.99060  Biso   1.000  H
  C38      1.0000 0.94590  0.95390  0.89830  Biso   1.000  C
  H41      1.0000 0.97170  0.92750  0.87470  Biso   1.000  H
  C39      1.0000 0.93540  0.03720  0.91030  Biso   1.000  C
  C40      1.0000 0.80310  0.86190  0.81970  Biso   1.000  C
  C41      1.0000 0.77580  0.85570  0.73600  Biso   1.000  C
  H42      1.0000 0.81720  0.83620  0.70850  Biso   1.000  H
  H43      1.0000 0.72270  0.83840  0.73530  Biso   1.000  H
  C42      1.0000 0.76500  0.90190  0.69190  Biso   1.000  C
  C43      1.0000 0.84930  0.92540  0.68070  Biso   1.000  C
  H44      1.0000 0.88830  0.90270  0.65880  Biso   1.000  H
  H45      1.0000 0.84360  0.95210  0.64520  Biso   1.000  H
  H46      1.0000 0.86990  0.93650  0.73090  Biso   1.000  H
  C44      1.0000 0.85460  0.98340  0.98320  Biso   1.000  C
  H47      1.0000 0.81340  0.97860  0.02160  Biso   1.000  H
  C45      1.0000 0.97090  0.99800  0.87620  Biso   1.000  C
  H48      1.0000 0.01250  0.00160  0.83770  Biso   1.000  H
  C46      1.0000 0.90450  0.19620  0.98860  Biso   1.000  C
  C47      1.0000 0.96540  0.08490  0.88570  Biso   1.000  C
  H49      1.0000 0.96440  0.08640  0.82830  Biso   1.000  H
  H50      1.0000 0.02360  0.08840  0.90240  Biso   1.000  H
  C48      1.0000 0.94610  0.14990  0.97470  Biso   1.000  C
  C49      1.0000 0.86870  0.22180  0.93010  Biso   1.000  C
  H51      1.0000 0.86200  0.20840  0.88000  Biso   1.000  H
  C50      1.0000 0.90950  0.21640  0.06140  Biso   1.000  C
  H52      1.0000 0.93130  0.19930  0.10410  Biso   1.000  H
  C51      1.0000 0.88250  0.26150  0.07050  Biso   1.000  C
  H53      1.0000 0.88650  0.27530  0.12050  Biso   1.000  H
  C52      1.0000 0.84250  0.26680  0.94440  Biso   1.000  C
  H54      1.0000 0.81740  0.28400  0.90350  Biso   1.000  H
  C53      1.0000 0.70550  0.93500  0.73560  Biso   1.000  C
  H55      1.0000 0.73000  0.94380  0.78550  Biso   1.000  H
  H56      1.0000 0.69590  0.96330  0.70450  Biso   1.000  H
  H57      1.0000 0.65290  0.91880  0.74450  Biso   1.000  H
  C54      1.0000 0.72550  0.88840  0.61420  Biso   1.000  C
  Cd4      1.0000 0.65418  0.36880  0.52673  Biso   1.000  Cd
  O16      1.0000 0.62160  0.36045  0.66370  Biso   1.000  O
  O17      1.0000 0.75070  0.36778  0.62880  Biso   1.000  O
  O18      1.0000 0.73450  0.39282  0.94670  Biso   1.000  O
  O19      1.0000 0.49420  0.63892  0.48490  Biso   1.000  O
  O20      1.0000 0.84700  0.37333  0.88760  Biso   1.000  O
  N10      1.0000 0.61250  0.44589  0.54900  Biso   1.000  N
  N11      1.0000 0.58120  0.62406  0.58420  Biso   1.000  N
  H58      1.0000 0.62910  0.63110  0.60550  Biso   1.000  H
  N12      1.0000 0.64920  0.78713  0.48680  Biso   1.000  N
  C55      1.0000 0.62440  0.52960  0.53470  Biso   1.000  C
  H59      1.0000 0.65080  0.55520  0.50940  Biso   1.000  H
  C56      1.0000 0.55410  0.45390  0.60170  Biso   1.000  C
  H60      1.0000 0.52830  0.42750  0.62530  Biso   1.000  H
  C57      1.0000 0.56460  0.53720  0.58970  Biso   1.000  C
  C58      1.0000 0.69690  0.36190  0.68030  Biso   1.000  C
  C59      1.0000 0.72420  0.35570  0.76400  Biso   1.000  C
  H61      1.0000 0.68280  0.33620  0.79150  Biso   1.000  H
  H62      1.0000 0.77730  0.33840  0.76470  Biso   1.000  H
  C60      1.0000 0.73500  0.40190  0.80810  Biso   1.000  C
  C61      1.0000 0.65070  0.42540  0.81930  Biso   1.000  C
  H63      1.0000 0.61170  0.40270  0.84120  Biso   1.000  H
  H64      1.0000 0.65640  0.45210  0.85480  Biso   1.000  H
  H65      1.0000 0.63010  0.43650  0.76910  Biso   1.000  H
  C62      1.0000 0.64540  0.48340  0.51680  Biso   1.000  C
  H66      1.0000 0.68660  0.47860  0.47840  Biso   1.000  H
  C63      1.0000 0.52910  0.49800  0.62380  Biso   1.000  C
  H67      1.0000 0.48750  0.50160  0.66230  Biso   1.000  H
  C64      1.0000 0.59550  0.69620  0.51140  Biso   1.000  C
  C65      1.0000 0.53460  0.58490  0.61430  Biso   1.000  C
  H68      1.0000 0.53560  0.58640  0.67170  Biso   1.000  H
  H69      1.0000 0.47640  0.58840  0.59760  Biso   1.000  H
  C66      1.0000 0.55390  0.64990  0.52530  Biso   1.000  C
  C67      1.0000 0.63130  0.72180  0.56990  Biso   1.000  C
  H70      1.0000 0.63800  0.70840  0.62000  Biso   1.000  H
  C68      1.0000 0.59050  0.71640  0.43860  Biso   1.000  C
  H71      1.0000 0.56870  0.69930  0.39590  Biso   1.000  H
  C69      1.0000 0.61750  0.76150  0.42950  Biso   1.000  C
  H72      1.0000 0.61350  0.77530  0.37950  Biso   1.000  H
  C70      1.0000 0.65750  0.76680  0.55560  Biso   1.000  C
  H73      1.0000 0.68260  0.78400  0.59650  Biso   1.000  H
  C71      1.0000 0.79450  0.43500  0.76440  Biso   1.000  C
  H74      1.0000 0.77000  0.44380  0.71450  Biso   1.000  H
  H75      1.0000 0.80410  0.46330  0.79550  Biso   1.000  H
  H76      1.0000 0.84710  0.41880  0.75550  Biso   1.000  H
  C72      1.0000 0.77450  0.38840  0.88580  Biso   1.000  C
  Cd5      1.0000 0.34582  0.86880  0.02673  Biso   1.000  Cd
  O21      1.0000 0.37840  0.86045  0.16370  Biso   1.000  O
  O22      1.0000 0.24930  0.86778  0.12880  Biso   1.000  O
  O23      1.0000 0.26550  0.89282  0.44670  Biso   1.000  O
  O24      1.0000 0.50580  0.13892  0.98490  Biso   1.000  O
  O25      1.0000 0.15300  0.87333  0.38760  Biso   1.000  O
  N13      1.0000 0.38750  0.94589  0.04900  Biso   1.000  N
  N14      1.0000 0.41880  0.12406  0.08420  Biso   1.000  N
  H77      1.0000 0.37090  0.13110  0.10550  Biso   1.000  H
  N15      1.0000 0.35080  0.28713  0.98680  Biso   1.000  N
  C73      1.0000 0.37560  0.02960  0.03470  Biso   1.000  C
  H78      1.0000 0.34920  0.05520  0.00940  Biso   1.000  H
  C74      1.0000 0.44590  0.95390  0.10170  Biso   1.000  C
  H79      1.0000 0.47170  0.92750  0.12530  Biso   1.000  H
  C75      1.0000 0.43540  0.03720  0.08970  Biso   1.000  C
  C76      1.0000 0.30310  0.86190  0.18030  Biso   1.000  C
  C77      1.0000 0.27580  0.85570  0.26400  Biso   1.000  C
  H80      1.0000 0.31720  0.83620  0.29150  Biso   1.000  H
  H81      1.0000 0.22270  0.83840  0.26470  Biso   1.000  H
  C78      1.0000 0.26500  0.90190  0.30810  Biso   1.000  C
  C79      1.0000 0.34930  0.92540  0.31930  Biso   1.000  C
  H82      1.0000 0.38830  0.90270  0.34120  Biso   1.000  H
  H83      1.0000 0.34360  0.95210  0.35480  Biso   1.000  H
  H84      1.0000 0.36990  0.93650  0.26910  Biso   1.000  H
  C80      1.0000 0.35460  0.98340  0.01680  Biso   1.000  C
  H85      1.0000 0.31340  0.97860  0.97840  Biso   1.000  H
  C81      1.0000 0.47090  0.99800  0.12380  Biso   1.000  C
  H86      1.0000 0.51250  0.00160  0.16230  Biso   1.000  H
  C82      1.0000 0.40450  0.19620  0.01140  Biso   1.000  C
  C83      1.0000 0.46540  0.08490  0.11430  Biso   1.000  C
  H87      1.0000 0.46440  0.08640  0.17170  Biso   1.000  H
  H88      1.0000 0.52360  0.08840  0.09760  Biso   1.000  H
  C84      1.0000 0.44610  0.14990  0.02530  Biso   1.000  C
  C85      1.0000 0.36870  0.22180  0.06990  Biso   1.000  C
  H89      1.0000 0.36200  0.20840  0.12000  Biso   1.000  H
  C86      1.0000 0.40950  0.21640  0.93860  Biso   1.000  C
  H90      1.0000 0.43130  0.19930  0.89590  Biso   1.000  H
  C87      1.0000 0.38250  0.26150  0.92950  Biso   1.000  C
  H91      1.0000 0.38650  0.27530  0.87950  Biso   1.000  H
  C88      1.0000 0.34250  0.26680  0.05560  Biso   1.000  C
  H92      1.0000 0.31740  0.28400  0.09650  Biso   1.000  H
  C89      1.0000 0.20550  0.93500  0.26440  Biso   1.000  C
  H93      1.0000 0.23000  0.94380  0.21450  Biso   1.000  H
  H94      1.0000 0.19590  0.96330  0.29550  Biso   1.000  H
  H95      1.0000 0.15290  0.91880  0.25550  Biso   1.000  H
  C90      1.0000 0.22550  0.88840  0.38580  Biso   1.000  C
  Cd6      1.0000 0.15418  0.36880  0.47327  Biso   1.000  Cd
  O26      1.0000 0.12160  0.36045  0.33630  Biso   1.000  O
  O27      1.0000 0.25070  0.36778  0.37120  Biso   1.000  O
  O28      1.0000 0.23450  0.39282  0.05330  Biso   1.000  O
  O29      1.0000 0.99420  0.63892  0.51510  Biso   1.000  O
  O30      1.0000 0.34700  0.37333  0.11240  Biso   1.000  O
  N16      1.0000 0.11250  0.44589  0.45100  Biso   1.000  N
  N17      1.0000 0.08120  0.62406  0.41580  Biso   1.000  N
  H96      1.0000 0.12910  0.63110  0.39450  Biso   1.000  H
  N18      1.0000 0.14920  0.78713  0.51320  Biso   1.000  N
  C91      1.0000 0.12440  0.52960  0.46530  Biso   1.000  C
  H97      1.0000 0.15080  0.55520  0.49060  Biso   1.000  H
  C92      1.0000 0.05410  0.45390  0.39830  Biso   1.000  C
  H98      1.0000 0.02830  0.42750  0.37470  Biso   1.000  H
  C93      1.0000 0.06460  0.53720  0.41030  Biso   1.000  C
  C94      1.0000 0.19690  0.36190  0.31970  Biso   1.000  C
  C95      1.0000 0.22420  0.35570  0.23600  Biso   1.000  C
  H99      1.0000 0.18280  0.33620  0.20850  Biso   1.000  H
  H100     1.0000 0.27730  0.33840  0.23530  Biso   1.000  H
  C96      1.0000 0.23500  0.40190  0.19190  Biso   1.000  C
  C97      1.0000 0.15070  0.42540  0.18070  Biso   1.000  C
  H101     1.0000 0.11170  0.40270  0.15880  Biso   1.000  H
  H102     1.0000 0.15640  0.45210  0.14520  Biso   1.000  H
  H103     1.0000 0.13010  0.43650  0.23090  Biso   1.000  H
  C98      1.0000 0.14540  0.48340  0.48320  Biso   1.000  C
  H104     1.0000 0.18660  0.47860  0.52160  Biso   1.000  H
  C99      1.0000 0.02910  0.49800  0.37620  Biso   1.000  C
  H105     1.0000 0.98750  0.50160  0.33770  Biso   1.000  H
  C100     1.0000 0.09550  0.69620  0.48860  Biso   1.000  C
  C101     1.0000 0.03460  0.58490  0.38570  Biso   1.000  C
  H106     1.0000 0.03560  0.58640  0.32830  Biso   1.000  H
  H107     1.0000 0.97640  0.58840  0.40240  Biso   1.000  H
  C102     1.0000 0.05390  0.64990  0.47470  Biso   1.000  C
  C103     1.0000 0.13130  0.72180  0.43010  Biso   1.000  C
  H108     1.0000 0.13800  0.70840  0.38000  Biso   1.000  H
  C104     1.0000 0.09050  0.71640  0.56140  Biso   1.000  C
  H109     1.0000 0.06870  0.69930  0.60410  Biso   1.000  H
  C105     1.0000 0.11750  0.76150  0.57050  Biso   1.000  C
  H110     1.0000 0.11350  0.77530  0.62050  Biso   1.000  H
  C106     1.0000 0.15750  0.76680  0.44440  Biso   1.000  C
  H111     1.0000 0.18260  0.78400  0.40350  Biso   1.000  H
  C107     1.0000 0.29450  0.43500  0.23560  Biso   1.000  C
  H112     1.0000 0.27000  0.44380  0.28550  Biso   1.000  H
  H113     1.0000 0.30410  0.46330  0.20450  Biso   1.000  H
  H114     1.0000 0.34710  0.41880  0.24450  Biso   1.000  H
  C108     1.0000 0.27450  0.38840  0.11420  Biso   1.000  C
  Cd7      1.0000 0.34582  0.36880  0.97327  Biso   1.000  Cd
  O31      1.0000 0.37840  0.36045  0.83630  Biso   1.000  O
  O32      1.0000 0.24930  0.36778  0.87120  Biso   1.000  O
  O33      1.0000 0.26550  0.39282  0.55330  Biso   1.000  O
  O34      1.0000 0.50580  0.63892  0.01510  Biso   1.000  O
  O35      1.0000 0.15300  0.37333  0.61240  Biso   1.000  O
  N19      1.0000 0.38750  0.44589  0.95100  Biso   1.000  N
  N20      1.0000 0.41880  0.62406  0.91580  Biso   1.000  N
  H115     1.0000 0.37090  0.63110  0.89450  Biso   1.000  H
  N21      1.0000 0.35080  0.78713  0.01320  Biso   1.000  N
  C109     1.0000 0.37560  0.52960  0.96530  Biso   1.000  C
  H116     1.0000 0.34920  0.55520  0.99060  Biso   1.000  H
  C110     1.0000 0.44590  0.45390  0.89830  Biso   1.000  C
  H117     1.0000 0.47170  0.42750  0.87470  Biso   1.000  H
  C111     1.0000 0.43540  0.53720  0.91030  Biso   1.000  C
  C112     1.0000 0.30310  0.36190  0.81970  Biso   1.000  C
  C113     1.0000 0.27580  0.35570  0.73600  Biso   1.000  C
  H118     1.0000 0.31720  0.33620  0.70850  Biso   1.000  H
  H119     1.0000 0.22270  0.33840  0.73530  Biso   1.000  H
  C114     1.0000 0.26500  0.40190  0.69190  Biso   1.000  C
  C115     1.0000 0.34930  0.42540  0.68070  Biso   1.000  C
  H120     1.0000 0.38830  0.40270  0.65880  Biso   1.000  H
  H121     1.0000 0.34360  0.45210  0.64520  Biso   1.000  H
  H122     1.0000 0.36990  0.43650  0.73090  Biso   1.000  H
  C116     1.0000 0.35460  0.48340  0.98320  Biso   1.000  C
  H123     1.0000 0.31340  0.47860  0.02160  Biso   1.000  H
  C117     1.0000 0.47090  0.49800  0.87620  Biso   1.000  C
  H124     1.0000 0.51250  0.50160  0.83770  Biso   1.000  H
  C118     1.0000 0.40450  0.69620  0.98860  Biso   1.000  C
  C119     1.0000 0.46540  0.58490  0.88570  Biso   1.000  C
  H125     1.0000 0.46440  0.58640  0.82830  Biso   1.000  H
  H126     1.0000 0.52360  0.58840  0.90240  Biso   1.000  H
  C120     1.0000 0.44610  0.64990  0.97470  Biso   1.000  C
  C121     1.0000 0.36870  0.72180  0.93010  Biso   1.000  C
  H127     1.0000 0.36200  0.70840  0.88000  Biso   1.000  H
  C122     1.0000 0.40950  0.71640  0.06140  Biso   1.000  C
  H128     1.0000 0.43130  0.69930  0.10410  Biso   1.000  H
  C123     1.0000 0.38250  0.76150  0.07050  Biso   1.000  C
  H129     1.0000 0.38650  0.77530  0.12050  Biso   1.000  H
  C124     1.0000 0.34250  0.76680  0.94440  Biso   1.000  C
  H130     1.0000 0.31740  0.78400  0.90350  Biso   1.000  H
  C125     1.0000 0.20550  0.43500  0.73560  Biso   1.000  C
  H131     1.0000 0.23000  0.44380  0.78550  Biso   1.000  H
  H132     1.0000 0.19590  0.46330  0.70450  Biso   1.000  H
  H133     1.0000 0.15290  0.41880  0.74450  Biso   1.000  H
  C126     1.0000 0.22550  0.38840  0.61420  Biso   1.000  C
  Cd8      1.0000 0.15418  0.86880  0.52673  Biso   1.000  Cd
  O36      1.0000 0.12160  0.86045  0.66370  Biso   1.000  O
  O37      1.0000 0.25070  0.86778  0.62880  Biso   1.000  O
  O38      1.0000 0.23450  0.89282  0.94670  Biso   1.000  O
  O39      1.0000 0.99420  0.13892  0.48490  Biso   1.000  O
  O40      1.0000 0.34700  0.87333  0.88760  Biso   1.000  O
  N22      1.0000 0.11250  0.94589  0.54900  Biso   1.000  N
  N23      1.0000 0.08120  0.12406  0.58420  Biso   1.000  N
  H134     1.0000 0.12910  0.13110  0.60550  Biso   1.000  H
  N24      1.0000 0.14920  0.28713  0.48680  Biso   1.000  N
  C127     1.0000 0.12440  0.02960  0.53470  Biso   1.000  C
  H135     1.0000 0.15080  0.05520  0.50940  Biso   1.000  H
  C128     1.0000 0.05410  0.95390  0.60170  Biso   1.000  C
  H136     1.0000 0.02830  0.92750  0.62530  Biso   1.000  H
  C129     1.0000 0.06460  0.03720  0.58970  Biso   1.000  C
  C130     1.0000 0.19690  0.86190  0.68030  Biso   1.000  C
  C131     1.0000 0.22420  0.85570  0.76400  Biso   1.000  C
  H137     1.0000 0.18280  0.83620  0.79150  Biso   1.000  H
  H138     1.0000 0.27730  0.83840  0.76470  Biso   1.000  H
  C132     1.0000 0.23500  0.90190  0.80810  Biso   1.000  C
  C133     1.0000 0.15070  0.92540  0.81930  Biso   1.000  C
  H139     1.0000 0.11170  0.90270  0.84120  Biso   1.000  H
  H140     1.0000 0.15640  0.95210  0.85480  Biso   1.000  H
  H141     1.0000 0.13010  0.93650  0.76910  Biso   1.000  H
  C134     1.0000 0.14540  0.98340  0.51680  Biso   1.000  C
  H142     1.0000 0.18660  0.97860  0.47840  Biso   1.000  H
  C135     1.0000 0.02910  0.99800  0.62380  Biso   1.000  C
  H143     1.0000 0.98750  0.00160  0.66230  Biso   1.000  H
  C136     1.0000 0.09550  0.19620  0.51140  Biso   1.000  C
  C137     1.0000 0.03460  0.08490  0.61430  Biso   1.000  C
  H144     1.0000 0.03560  0.08640  0.67170  Biso   1.000  H
  H145     1.0000 0.97640  0.08840  0.59760  Biso   1.000  H
  C138     1.0000 0.05390  0.14990  0.52530  Biso   1.000  C
  C139     1.0000 0.13130  0.22180  0.56990  Biso   1.000  C
  H146     1.0000 0.13800  0.20840  0.62000  Biso   1.000  H
  C140     1.0000 0.09050  0.21640  0.43860  Biso   1.000  C
  H147     1.0000 0.06870  0.19930  0.39590  Biso   1.000  H
  C141     1.0000 0.11750  0.26150  0.42950  Biso   1.000  C
  H148     1.0000 0.11350  0.27530  0.37950  Biso   1.000  H
  C142     1.0000 0.15750  0.26680  0.55560  Biso   1.000  C
  H149     1.0000 0.18260  0.28400  0.59650  Biso   1.000  H
  C143     1.0000 0.29450  0.93500  0.76440  Biso   1.000  C
  H150     1.0000 0.27000  0.94380  0.71450  Biso   1.000  H
  H151     1.0000 0.30410  0.96330  0.79550  Biso   1.000  H
  H152     1.0000 0.34710  0.91880  0.75550  Biso   1.000  H
  C144     1.0000 0.27450  0.88840  0.88580  Biso   1.000  C
  Cd9      1.0000 0.65418  0.63120  0.02673  Biso   1.000  Cd
  O41      1.0000 0.62160  0.63955  0.16370  Biso   1.000  O
  O42      1.0000 0.75070  0.63222  0.12880  Biso   1.000  O
  O43      1.0000 0.73450  0.60718  0.44670  Biso   1.000  O
  O44      1.0000 0.49420  0.36108  0.98490  Biso   1.000  O
  O45      1.0000 0.84700  0.62667  0.38760  Biso   1.000  O
  N25      1.0000 0.61250  0.55411  0.04900  Biso   1.000  N
  N26      1.0000 0.58120  0.37594  0.08420  Biso   1.000  N
  H153     1.0000 0.62910  0.36890  0.10550  Biso   1.000  H
  N27      1.0000 0.64920  0.21287  0.98680  Biso   1.000  N
  C145     1.0000 0.62440  0.47040  0.03470  Biso   1.000  C
  H154     1.0000 0.65080  0.44480  0.00940  Biso   1.000  H
  C146     1.0000 0.55410  0.54610  0.10170  Biso   1.000  C
  H155     1.0000 0.52830  0.57250  0.12530  Biso   1.000  H
  C147     1.0000 0.56460  0.46280  0.08970  Biso   1.000  C
  C148     1.0000 0.69690  0.63810  0.18030  Biso   1.000  C
  C149     1.0000 0.72420  0.64430  0.26400  Biso   1.000  C
  H156     1.0000 0.68280  0.66380  0.29150  Biso   1.000  H
  H157     1.0000 0.77730  0.66160  0.26470  Biso   1.000  H
  C150     1.0000 0.73500  0.59810  0.30810  Biso   1.000  C
  C151     1.0000 0.65070  0.57460  0.31930  Biso   1.000  C
  H158     1.0000 0.61170  0.59730  0.34120  Biso   1.000  H
  H159     1.0000 0.65640  0.54790  0.35480  Biso   1.000  H
  H160     1.0000 0.63010  0.56350  0.26910  Biso   1.000  H
  C152     1.0000 0.64540  0.51660  0.01680  Biso   1.000  C
  H161     1.0000 0.68660  0.52140  0.97840  Biso   1.000  H
  C153     1.0000 0.52910  0.50200  0.12380  Biso   1.000  C
  H162     1.0000 0.48750  0.49840  0.16230  Biso   1.000  H
  C154     1.0000 0.59550  0.30380  0.01140  Biso   1.000  C
  C155     1.0000 0.53460  0.41510  0.11430  Biso   1.000  C
  H163     1.0000 0.53560  0.41360  0.17170  Biso   1.000  H
  H164     1.0000 0.47640  0.41160  0.09760  Biso   1.000  H
  C156     1.0000 0.55390  0.35010  0.02530  Biso   1.000  C
  C157     1.0000 0.63130  0.27820  0.06990  Biso   1.000  C
  H165     1.0000 0.63800  0.29160  0.12000  Biso   1.000  H
  C158     1.0000 0.59050  0.28360  0.93860  Biso   1.000  C
  H166     1.0000 0.56870  0.30070  0.89590  Biso   1.000  H
  C159     1.0000 0.61750  0.23850  0.92950  Biso   1.000  C
  H167     1.0000 0.61350  0.22470  0.87950  Biso   1.000  H
  C160     1.0000 0.65750  0.23320  0.05560  Biso   1.000  C
  H168     1.0000 0.68260  0.21600  0.09650  Biso   1.000  H
  C161     1.0000 0.79450  0.56500  0.26440  Biso   1.000  C
  H169     1.0000 0.77000  0.55620  0.21450  Biso   1.000  H
  H170     1.0000 0.80410  0.53670  0.29550  Biso   1.000  H
  H171     1.0000 0.84710  0.58120  0.25550  Biso   1.000  H
  C162     1.0000 0.77450  0.61160  0.38580  Biso   1.000  C
  Cd10     1.0000 0.84582  0.13120  0.47327  Biso   1.000  Cd
  O46      1.0000 0.87840  0.13955  0.33630  Biso   1.000  O
  O47      1.0000 0.74930  0.13222  0.37120  Biso   1.000  O
  O48      1.0000 0.76550  0.10718  0.05330  Biso   1.000  O
  O49      1.0000 0.00580  0.86108  0.51510  Biso   1.000  O
  O50      1.0000 0.65300  0.12667  0.11240  Biso   1.000  O
  N28      1.0000 0.88750  0.05411  0.45100  Biso   1.000  N
  N29      1.0000 0.91880  0.87594  0.41580  Biso   1.000  N
  H172     1.0000 0.87090  0.86890  0.39450  Biso   1.000  H
  N30      1.0000 0.85080  0.71287  0.51320  Biso   1.000  N
  C163     1.0000 0.87560  0.97040  0.46530  Biso   1.000  C
  H173     1.0000 0.84920  0.94480  0.49060  Biso   1.000  H
  C164     1.0000 0.94590  0.04610  0.39830  Biso   1.000  C
  H174     1.0000 0.97170  0.07250  0.37470  Biso   1.000  H
  C165     1.0000 0.93540  0.96280  0.41030  Biso   1.000  C
  C166     1.0000 0.80310  0.13810  0.31970  Biso   1.000  C
  C167     1.0000 0.77580  0.14430  0.23600  Biso   1.000  C
  H175     1.0000 0.81720  0.16380  0.20850  Biso   1.000  H
  H176     1.0000 0.72270  0.16160  0.23530  Biso   1.000  H
  C168     1.0000 0.76500  0.09810  0.19190  Biso   1.000  C
  C169     1.0000 0.84930  0.07460  0.18070  Biso   1.000  C
  H177     1.0000 0.88830  0.09730  0.15880  Biso   1.000  H
  H178     1.0000 0.84360  0.04790  0.14520  Biso   1.000  H
  H179     1.0000 0.86990  0.06350  0.23090  Biso   1.000  H
  C170     1.0000 0.85460  0.01660  0.48320  Biso   1.000  C
  H180     1.0000 0.81340  0.02140  0.52160  Biso   1.000  H
  C171     1.0000 0.97090  0.00200  0.37620  Biso   1.000  C
  H181     1.0000 0.01250  0.99840  0.33770  Biso   1.000  H
  C172     1.0000 0.90450  0.80380  0.48860  Biso   1.000  C
  C173     1.0000 0.96540  0.91510  0.38570  Biso   1.000  C
  H182     1.0000 0.96440  0.91360  0.32830  Biso   1.000  H
  H183     1.0000 0.02360  0.91160  0.40240  Biso   1.000  H
  C174     1.0000 0.94610  0.85010  0.47470  Biso   1.000  C
  C175     1.0000 0.86870  0.77820  0.43010  Biso   1.000  C
  H184     1.0000 0.86200  0.79160  0.38000  Biso   1.000  H
  C176     1.0000 0.90950  0.78360  0.56140  Biso   1.000  C
  H185     1.0000 0.93130  0.80070  0.60410  Biso   1.000  H
  C177     1.0000 0.88250  0.73850  0.57050  Biso   1.000  C
  H186     1.0000 0.88650  0.72470  0.62050  Biso   1.000  H
  C178     1.0000 0.84250  0.73320  0.44440  Biso   1.000  C
  H187     1.0000 0.81740  0.71600  0.40350  Biso   1.000  H
  C179     1.0000 0.70550  0.06500  0.23560  Biso   1.000  C
  H188     1.0000 0.73000  0.05620  0.28550  Biso   1.000  H
  H189     1.0000 0.69590  0.03670  0.20450  Biso   1.000  H
  H190     1.0000 0.65290  0.08120  0.24450  Biso   1.000  H
  C180     1.0000 0.72550  0.11160  0.11420  Biso   1.000  C
  Cd11     1.0000 0.65418  0.13120  0.97327  Biso   1.000  Cd
  O51      1.0000 0.62160  0.13955  0.83630  Biso   1.000  O
  O52      1.0000 0.75070  0.13222  0.87120  Biso   1.000  O
  O53      1.0000 0.73450  0.10718  0.55330  Biso   1.000  O
  O54      1.0000 0.49420  0.86108  0.01510  Biso   1.000  O
  O55      1.0000 0.84700  0.12667  0.61240  Biso   1.000  O
  N31      1.0000 0.61250  0.05411  0.95100  Biso   1.000  N
  N32      1.0000 0.58120  0.87594  0.91580  Biso   1.000  N
  H191     1.0000 0.62910  0.86890  0.89450  Biso   1.000  H
  N33      1.0000 0.64920  0.71287  0.01320  Biso   1.000  N
  C181     1.0000 0.62440  0.97040  0.96530  Biso   1.000  C
  H192     1.0000 0.65080  0.94480  0.99060  Biso   1.000  H
  C182     1.0000 0.55410  0.04610  0.89830  Biso   1.000  C
  H193     1.0000 0.52830  0.07250  0.87470  Biso   1.000  H
  C183     1.0000 0.56460  0.96280  0.91030  Biso   1.000  C
  C184     1.0000 0.69690  0.13810  0.81970  Biso   1.000  C
  C185     1.0000 0.72420  0.14430  0.73600  Biso   1.000  C
  H194     1.0000 0.68280  0.16380  0.70850  Biso   1.000  H
  H195     1.0000 0.77730  0.16160  0.73530  Biso   1.000  H
  C186     1.0000 0.73500  0.09810  0.69190  Biso   1.000  C
  C187     1.0000 0.65070  0.07460  0.68070  Biso   1.000  C
  H196     1.0000 0.61170  0.09730  0.65880  Biso   1.000  H
  H197     1.0000 0.65640  0.04790  0.64520  Biso   1.000  H
  H198     1.0000 0.63010  0.06350  0.73090  Biso   1.000  H
  C188     1.0000 0.64540  0.01660  0.98320  Biso   1.000  C
  H199     1.0000 0.68660  0.02140  0.02160  Biso   1.000  H
  C189     1.0000 0.52910  0.00200  0.87620  Biso   1.000  C
  H200     1.0000 0.48750  0.99840  0.83770  Biso   1.000  H
  C190     1.0000 0.59550  0.80380  0.98860  Biso   1.000  C
  C191     1.0000 0.53460  0.91510  0.88570  Biso   1.000  C
  H201     1.0000 0.53560  0.91360  0.82830  Biso   1.000  H
  H202     1.0000 0.47640  0.91160  0.90240  Biso   1.000  H
  C192     1.0000 0.55390  0.85010  0.97470  Biso   1.000  C
  C193     1.0000 0.63130  0.77820  0.93010  Biso   1.000  C
  H203     1.0000 0.63800  0.79160  0.88000  Biso   1.000  H
  C194     1.0000 0.59050  0.78360  0.06140  Biso   1.000  C
  H204     1.0000 0.56870  0.80070  0.10410  Biso   1.000  H
  C195     1.0000 0.61750  0.73850  0.07050  Biso   1.000  C
  H205     1.0000 0.61350  0.72470  0.12050  Biso   1.000  H
  C196     1.0000 0.65750  0.73320  0.94440  Biso   1.000  C
  H206     1.0000 0.68260  0.71600  0.90350  Biso   1.000  H
  C197     1.0000 0.79450  0.06500  0.73560  Biso   1.000  C
  H207     1.0000 0.77000  0.05620  0.78550  Biso   1.000  H
  H208     1.0000 0.80410  0.03670  0.70450  Biso   1.000  H
  H209     1.0000 0.84710  0.08120  0.74450  Biso   1.000  H
  C198     1.0000 0.77450  0.11160  0.61420  Biso   1.000  C
  Cd12     1.0000 0.84582  0.63120  0.52673  Biso   1.000  Cd
  O56      1.0000 0.87840  0.63955  0.66370  Biso   1.000  O
  O57      1.0000 0.74930  0.63222  0.62880  Biso   1.000  O
  O58      1.0000 0.76550  0.60718  0.94670  Biso   1.000  O
  O59      1.0000 0.00580  0.36108  0.48490  Biso   1.000  O
  O60      1.0000 0.65300  0.62667  0.88760  Biso   1.000  O
  N34      1.0000 0.88750  0.55411  0.54900  Biso   1.000  N
  N35      1.0000 0.91880  0.37594  0.58420  Biso   1.000  N
  H210     1.0000 0.87090  0.36890  0.60550  Biso   1.000  H
  N36      1.0000 0.85080  0.21287  0.48680  Biso   1.000  N
  C199     1.0000 0.87560  0.47040  0.53470  Biso   1.000  C
  H211     1.0000 0.84920  0.44480  0.50940  Biso   1.000  H
  C200     1.0000 0.94590  0.54610  0.60170  Biso   1.000  C
  H212     1.0000 0.97170  0.57250  0.62530  Biso   1.000  H
  C201     1.0000 0.93540  0.46280  0.58970  Biso   1.000  C
  C202     1.0000 0.80310  0.63810  0.68030  Biso   1.000  C
  C203     1.0000 0.77580  0.64430  0.76400  Biso   1.000  C
  H213     1.0000 0.81720  0.66380  0.79150  Biso   1.000  H
  H214     1.0000 0.72270  0.66160  0.76470  Biso   1.000  H
  C204     1.0000 0.76500  0.59810  0.80810  Biso   1.000  C
  C205     1.0000 0.84930  0.57460  0.81930  Biso   1.000  C
  H215     1.0000 0.88830  0.59730  0.84120  Biso   1.000  H
  H216     1.0000 0.84360  0.54790  0.85480  Biso   1.000  H
  H217     1.0000 0.86990  0.56350  0.76910  Biso   1.000  H
  C206     1.0000 0.85460  0.51660  0.51680  Biso   1.000  C
  H218     1.0000 0.81340  0.52140  0.47840  Biso   1.000  H
  C207     1.0000 0.97090  0.50200  0.62380  Biso   1.000  C
  H219     1.0000 0.01250  0.49840  0.66230  Biso   1.000  H
  C208     1.0000 0.90450  0.30380  0.51140  Biso   1.000  C
  C209     1.0000 0.96540  0.41510  0.61430  Biso   1.000  C
  H220     1.0000 0.96440  0.41360  0.67170  Biso   1.000  H
  H221     1.0000 0.02360  0.41160  0.59760  Biso   1.000  H
  C210     1.0000 0.94610  0.35010  0.52530  Biso   1.000  C
  C211     1.0000 0.86870  0.27820  0.56990  Biso   1.000  C
  H222     1.0000 0.86200  0.29160  0.62000  Biso   1.000  H
  C212     1.0000 0.90950  0.28360  0.43860  Biso   1.000  C
  H223     1.0000 0.93130  0.30070  0.39590  Biso   1.000  H
  C213     1.0000 0.88250  0.23850  0.42950  Biso   1.000  C
  H224     1.0000 0.88650  0.22470  0.37950  Biso   1.000  H
  C214     1.0000 0.84250  0.23320  0.55560  Biso   1.000  C
  H225     1.0000 0.81740  0.21600  0.59650  Biso   1.000  H
  C215     1.0000 0.70550  0.56500  0.76440  Biso   1.000  C
  H226     1.0000 0.73000  0.55620  0.71450  Biso   1.000  H
  H227     1.0000 0.69590  0.53670  0.79550  Biso   1.000  H
  H228     1.0000 0.65290  0.58120  0.75550  Biso   1.000  H
  C216     1.0000 0.72550  0.61160  0.88580  Biso   1.000  C
  Cd13     1.0000 0.15418  0.13120  0.02673  Biso   1.000  Cd
  O61      1.0000 0.12160  0.13955  0.16370  Biso   1.000  O
  O62      1.0000 0.25070  0.13222  0.12880  Biso   1.000  O
  O63      1.0000 0.23450  0.10718  0.44670  Biso   1.000  O
  O64      1.0000 0.99420  0.86108  0.98490  Biso   1.000  O
  O65      1.0000 0.34700  0.12667  0.38760  Biso   1.000  O
  N37      1.0000 0.11250  0.05411  0.04900  Biso   1.000  N
  N38      1.0000 0.08120  0.87594  0.08420  Biso   1.000  N
  H229     1.0000 0.12910  0.86890  0.10550  Biso   1.000  H
  N39      1.0000 0.14920  0.71287  0.98680  Biso   1.000  N
  C217     1.0000 0.12440  0.97040  0.03470  Biso   1.000  C
  H230     1.0000 0.15080  0.94480  0.00940  Biso   1.000  H
  C218     1.0000 0.05410  0.04610  0.10170  Biso   1.000  C
  H231     1.0000 0.02830  0.07250  0.12530  Biso   1.000  H
  C219     1.0000 0.06460  0.96280  0.08970  Biso   1.000  C
  C220     1.0000 0.19690  0.13810  0.18030  Biso   1.000  C
  C221     1.0000 0.22420  0.14430  0.26400  Biso   1.000  C
  H232     1.0000 0.18280  0.16380  0.29150  Biso   1.000  H
  H233     1.0000 0.27730  0.16160  0.26470  Biso   1.000  H
  C222     1.0000 0.23500  0.09810  0.30810  Biso   1.000  C
  C223     1.0000 0.15070  0.07460  0.31930  Biso   1.000  C
  H234     1.0000 0.11170  0.09730  0.34120  Biso   1.000  H
  H235     1.0000 0.15640  0.04790  0.35480  Biso   1.000  H
  H236     1.0000 0.13010  0.06350  0.26910  Biso   1.000  H
  C224     1.0000 0.14540  0.01660  0.01680  Biso   1.000  C
  H237     1.0000 0.18660  0.02140  0.97840  Biso   1.000  H
  C225     1.0000 0.02910  0.00200  0.12380  Biso   1.000  C
  H238     1.0000 0.98750  0.99840  0.16230  Biso   1.000  H
  C226     1.0000 0.09550  0.80380  0.01140  Biso   1.000  C
  C227     1.0000 0.03460  0.91510  0.11430  Biso   1.000  C
  H239     1.0000 0.03560  0.91360  0.17170  Biso   1.000  H
  H240     1.0000 0.97640  0.91160  0.09760  Biso   1.000  H
  C228     1.0000 0.05390  0.85010  0.02530  Biso   1.000  C
  C229     1.0000 0.13130  0.77820  0.06990  Biso   1.000  C
  H241     1.0000 0.13800  0.79160  0.12000  Biso   1.000  H
  C230     1.0000 0.09050  0.78360  0.93860  Biso   1.000  C
  H242     1.0000 0.06870  0.80070  0.89590  Biso   1.000  H
  C231     1.0000 0.11750  0.73850  0.92950  Biso   1.000  C
  H243     1.0000 0.11350  0.72470  0.87950  Biso   1.000  H
  C232     1.0000 0.15750  0.73320  0.05560  Biso   1.000  C
  H244     1.0000 0.18260  0.71600  0.09650  Biso   1.000  H
  C233     1.0000 0.29450  0.06500  0.26440  Biso   1.000  C
  H245     1.0000 0.27000  0.05620  0.21450  Biso   1.000  H
  H246     1.0000 0.30410  0.03670  0.29550  Biso   1.000  H
  H247     1.0000 0.34710  0.08120  0.25550  Biso   1.000  H
  C234     1.0000 0.27450  0.11160  0.38580  Biso   1.000  C
  Cd14     1.0000 0.34582  0.63120  0.47327  Biso   1.000  Cd
  O66      1.0000 0.37840  0.63955  0.33630  Biso   1.000  O
  O67      1.0000 0.24930  0.63222  0.37120  Biso   1.000  O
  O68      1.0000 0.26550  0.60718  0.05330  Biso   1.000  O
  O69      1.0000 0.50580  0.36108  0.51510  Biso   1.000  O
  O70      1.0000 0.15300  0.62667  0.11240  Biso   1.000  O
  N40      1.0000 0.38750  0.55411  0.45100  Biso   1.000  N
  N41      1.0000 0.41880  0.37594  0.41580  Biso   1.000  N
  H248     1.0000 0.37090  0.36890  0.39450  Biso   1.000  H
  N42      1.0000 0.35080  0.21287  0.51320  Biso   1.000  N
  C235     1.0000 0.37560  0.47040  0.46530  Biso   1.000  C
  H249     1.0000 0.34920  0.44480  0.49060  Biso   1.000  H
  C236     1.0000 0.44590  0.54610  0.39830  Biso   1.000  C
  H250     1.0000 0.47170  0.57250  0.37470  Biso   1.000  H
  C237     1.0000 0.43540  0.46280  0.41030  Biso   1.000  C
  C238     1.0000 0.30310  0.63810  0.31970  Biso   1.000  C
  C239     1.0000 0.27580  0.64430  0.23600  Biso   1.000  C
  H251     1.0000 0.31720  0.66380  0.20850  Biso   1.000  H
  H252     1.0000 0.22270  0.66160  0.23530  Biso   1.000  H
  C240     1.0000 0.26500  0.59810  0.19190  Biso   1.000  C
  C241     1.0000 0.34930  0.57460  0.18070  Biso   1.000  C
  H253     1.0000 0.38830  0.59730  0.15880  Biso   1.000  H
  H254     1.0000 0.34360  0.54790  0.14520  Biso   1.000  H
  H255     1.0000 0.36990  0.56350  0.23090  Biso   1.000  H
  C242     1.0000 0.35460  0.51660  0.48320  Biso   1.000  C
  H256     1.0000 0.31340  0.52140  0.52160  Biso   1.000  H
  C243     1.0000 0.47090  0.50200  0.37620  Biso   1.000  C
  H257     1.0000 0.51250  0.49840  0.33770  Biso   1.000  H
  C244     1.0000 0.40450  0.30380  0.48860  Biso   1.000  C
  C245     1.0000 0.46540  0.41510  0.38570  Biso   1.000  C
  H258     1.0000 0.46440  0.41360  0.32830  Biso   1.000  H
  H259     1.0000 0.52360  0.41160  0.40240  Biso   1.000  H
  C246     1.0000 0.44610  0.35010  0.47470  Biso   1.000  C
  C247     1.0000 0.36870  0.27820  0.43010  Biso   1.000  C
  H260     1.0000 0.36200  0.29160  0.38000  Biso   1.000  H
  C248     1.0000 0.40950  0.28360  0.56140  Biso   1.000  C
  H261     1.0000 0.43130  0.30070  0.60410  Biso   1.000  H
  C249     1.0000 0.38250  0.23850  0.57050  Biso   1.000  C
  H262     1.0000 0.38650  0.22470  0.62050  Biso   1.000  H
  C250     1.0000 0.34250  0.23320  0.44440  Biso   1.000  C
  H263     1.0000 0.31740  0.21600  0.40350  Biso   1.000  H
  C251     1.0000 0.20550  0.56500  0.23560  Biso   1.000  C
  H264     1.0000 0.23000  0.55620  0.28550  Biso   1.000  H
  H265     1.0000 0.19590  0.53670  0.20450  Biso   1.000  H
  H266     1.0000 0.15290  0.58120  0.24450  Biso   1.000  H
  C252     1.0000 0.22550  0.61160  0.11420  Biso   1.000  C
  Cd15     1.0000 0.15418  0.63120  0.97327  Biso   1.000  Cd
  O71      1.0000 0.12160  0.63955  0.83630  Biso   1.000  O
  O72      1.0000 0.25070  0.63222  0.87120  Biso   1.000  O
  O73      1.0000 0.23450  0.60718  0.55330  Biso   1.000  O
  O74      1.0000 0.99420  0.36108  0.01510  Biso   1.000  O
  O75      1.0000 0.34700  0.62667  0.61240  Biso   1.000  O
  N43      1.0000 0.11250  0.55411  0.95100  Biso   1.000  N
  N44      1.0000 0.08120  0.37594  0.91580  Biso   1.000  N
  H267     1.0000 0.12910  0.36890  0.89450  Biso   1.000  H
  N45      1.0000 0.14920  0.21287  0.01320  Biso   1.000  N
  C253     1.0000 0.12440  0.47040  0.96530  Biso   1.000  C
  H268     1.0000 0.15080  0.44480  0.99060  Biso   1.000  H
  C254     1.0000 0.05410  0.54610  0.89830  Biso   1.000  C
  H269     1.0000 0.02830  0.57250  0.87470  Biso   1.000  H
  C255     1.0000 0.06460  0.46280  0.91030  Biso   1.000  C
  C256     1.0000 0.19690  0.63810  0.81970  Biso   1.000  C
  C257     1.0000 0.22420  0.64430  0.73600  Biso   1.000  C
  H270     1.0000 0.18280  0.66380  0.70850  Biso   1.000  H
  H271     1.0000 0.27730  0.66160  0.73530  Biso   1.000  H
  C258     1.0000 0.23500  0.59810  0.69190  Biso   1.000  C
  C259     1.0000 0.15070  0.57460  0.68070  Biso   1.000  C
  H272     1.0000 0.11170  0.59730  0.65880  Biso   1.000  H
  H273     1.0000 0.15640  0.54790  0.64520  Biso   1.000  H
  H274     1.0000 0.13010  0.56350  0.73090  Biso   1.000  H
  C260     1.0000 0.14540  0.51660  0.98320  Biso   1.000  C
  H275     1.0000 0.18660  0.52140  0.02160  Biso   1.000  H
  C261     1.0000 0.02910  0.50200  0.87620  Biso   1.000  C
  H276     1.0000 0.98750  0.49840  0.83770  Biso   1.000  H
  C262     1.0000 0.09550  0.30380  0.98860  Biso   1.000  C
  C263     1.0000 0.03460  0.41510  0.88570  Biso   1.000  C
  H277     1.0000 0.03560  0.41360  0.82830  Biso   1.000  H
  H278     1.0000 0.97640  0.41160  0.90240  Biso   1.000  H
  C264     1.0000 0.05390  0.35010  0.97470  Biso   1.000  C
  C265     1.0000 0.13130  0.27820  0.93010  Biso   1.000  C
  H279     1.0000 0.13800  0.29160  0.88000  Biso   1.000  H
  C266     1.0000 0.09050  0.28360  0.06140  Biso   1.000  C
  H280     1.0000 0.06870  0.30070  0.10410  Biso   1.000  H
  C267     1.0000 0.11750  0.23850  0.07050  Biso   1.000  C
  H281     1.0000 0.11350  0.22470  0.12050  Biso   1.000  H
  C268     1.0000 0.15750  0.23320  0.94440  Biso   1.000  C
  H282     1.0000 0.18260  0.21600  0.90350  Biso   1.000  H
  C269     1.0000 0.29450  0.56500  0.73560  Biso   1.000  C
  H283     1.0000 0.27000  0.55620  0.78550  Biso   1.000  H
  H284     1.0000 0.30410  0.53670  0.70450  Biso   1.000  H
  H285     1.0000 0.34710  0.58120  0.74450  Biso   1.000  H
  C270     1.0000 0.27450  0.61160  0.61420  Biso   1.000  C
  Cd16     1.0000 0.34582  0.13120  0.52673  Biso   1.000  Cd
  O76      1.0000 0.37840  0.13955  0.66370  Biso   1.000  O
  O77      1.0000 0.24930  0.13222  0.62880  Biso   1.000  O
  O78      1.0000 0.26550  0.10718  0.94670  Biso   1.000  O
  O79      1.0000 0.50580  0.86108  0.48490  Biso   1.000  O
  O80      1.0000 0.15300  0.12667  0.88760  Biso   1.000  O
  N46      1.0000 0.38750  0.05411  0.54900  Biso   1.000  N
  N47      1.0000 0.41880  0.87594  0.58420  Biso   1.000  N
  H286     1.0000 0.37090  0.86890  0.60550  Biso   1.000  H
  N48      1.0000 0.35080  0.71287  0.48680  Biso   1.000  N
  C271     1.0000 0.37560  0.97040  0.53470  Biso   1.000  C
  H287     1.0000 0.34920  0.94480  0.50940  Biso   1.000  H
  C272     1.0000 0.44590  0.04610  0.60170  Biso   1.000  C
  H288     1.0000 0.47170  0.07250  0.62530  Biso   1.000  H
  C273     1.0000 0.43540  0.96280  0.58970  Biso   1.000  C
  C274     1.0000 0.30310  0.13810  0.68030  Biso   1.000  C
  C275     1.0000 0.27580  0.14430  0.76400  Biso   1.000  C
  H289     1.0000 0.31720  0.16380  0.79150  Biso   1.000  H
  H290     1.0000 0.22270  0.16160  0.76470  Biso   1.000  H
  C276     1.0000 0.26500  0.09810  0.80810  Biso   1.000  C
  C277     1.0000 0.34930  0.07460  0.81930  Biso   1.000  C
  H291     1.0000 0.38830  0.09730  0.84120  Biso   1.000  H
  H292     1.0000 0.34360  0.04790  0.85480  Biso   1.000  H
  H293     1.0000 0.36990  0.06350  0.76910  Biso   1.000  H
  C278     1.0000 0.35460  0.01660  0.51680  Biso   1.000  C
  H294     1.0000 0.31340  0.02140  0.47840  Biso   1.000  H
  C279     1.0000 0.47090  0.00200  0.62380  Biso   1.000  C
  H295     1.0000 0.51250  0.99840  0.66230  Biso   1.000  H
  C280     1.0000 0.40450  0.80380  0.51140  Biso   1.000  C
  C281     1.0000 0.46540  0.91510  0.61430  Biso   1.000  C
  H296     1.0000 0.46440  0.91360  0.67170  Biso   1.000  H
  H297     1.0000 0.52360  0.91160  0.59760  Biso   1.000  H
  C282     1.0000 0.44610  0.85010  0.52530  Biso   1.000  C
  C283     1.0000 0.36870  0.77820  0.56990  Biso   1.000  C
  H298     1.0000 0.36200  0.79160  0.62000  Biso   1.000  H
  C284     1.0000 0.40950  0.78360  0.43860  Biso   1.000  C
  H299     1.0000 0.43130  0.80070  0.39590  Biso   1.000  H
  C285     1.0000 0.38250  0.73850  0.42950  Biso   1.000  C
  H300     1.0000 0.38650  0.72470  0.37950  Biso   1.000  H
  C286     1.0000 0.34250  0.73320  0.55560  Biso   1.000  C
  H301     1.0000 0.31740  0.71600  0.59650  Biso   1.000  H
  C287     1.0000 0.20550  0.06500  0.76440  Biso   1.000  C
  H302     1.0000 0.23000  0.05620  0.71450  Biso   1.000  H
  H303     1.0000 0.19590  0.03670  0.79550  Biso   1.000  H
  H304     1.0000 0.15290  0.08120  0.75550  Biso   1.000  H
  C288     1.0000 0.22550  0.11160  0.88580  Biso   1.000  C
