data_image0
_cell_length_a       31.8199
_cell_length_b       31.8199
_cell_length_c       25.1149
_cell_angle_alpha    90
_cell_angle_beta     90
_cell_angle_gamma    90

_symmetry_space_group_name_H-M    "P 1"
_symmetry_int_tables_number       1

loop_
  _symmetry_equiv_pos_as_xyz
  'x, y, z'

loop_
  _atom_site_label
  _atom_site_occupancy
  _atom_site_fract_x
  _atom_site_fract_y
  _atom_site_fract_z
  _atom_site_thermal_displace_type
  _atom_site_B_iso_or_equiv
  _atom_site_type_symbol
  Ni1      1.0000 0.51330  0.25755  0.64040  Biso   1.000  Ni
  Ni2      1.0000 0.25671  0.01475  0.39297  Biso   1.000  Ni
  Ni3      1.0000 0.01507  0.75582  0.64029  Biso   1.000  Ni
  Ni4      1.0000 0.74338  0.98623  0.89118  Biso   1.000  Ni
  N1       1.0000 0.52950  0.77480  0.09860  Biso   1.000  N
  C1       1.0000 0.57040  0.77700  0.11550  Biso   1.000  C
  H1       1.0000 0.57700  0.76470  0.14890  Biso   1.000  H
  C2       1.0000 0.60330  0.79630  0.08710  Biso   1.000  C
  H2       1.0000 0.63140  0.79630  0.09970  Biso   1.000  H
  C3       1.0000 0.59150  0.81620  0.03720  Biso   1.000  C
  C4       1.0000 0.55100  0.81460  0.02020  Biso   1.000  C
  H3       1.0000 0.54280  0.82760  0.98780  Biso   1.000  H
  C5       1.0000 0.52170  0.79330  0.05160  Biso   1.000  C
  H4       1.0000 0.49370  0.79170  0.03850  Biso   1.000  H
  C6       1.0000 0.62340  0.84070  0.00690  Biso   1.000  C
  C7       1.0000 0.65910  0.85750  0.03260  Biso   1.000  C
  H5       1.0000 0.66450  0.85000  0.06850  Biso   1.000  H
  C8       1.0000 0.68660  0.88470  0.00670  Biso   1.000  C
  H6       1.0000 0.70880  0.89820  0.02550  Biso   1.000  H
  C9       1.0000 0.68060  0.89170  0.95240  Biso   1.000  C
  C10      1.0000 0.64850  0.87430  0.92560  Biso   1.000  C
  H7       1.0000 0.64510  0.87970  0.88860  Biso   1.000  H
  C11      1.0000 0.61900  0.84720  0.95300  Biso   1.000  C
  H8       1.0000 0.59680  0.83410  0.93400  Biso   1.000  H
  C12      1.0000 0.70780  0.92460  0.92620  Biso   1.000  C
  O1       1.0000 0.73300  0.94560  0.95310  Biso   1.000  O
  O2       1.0000 0.70340  0.93110  0.87630  Biso   1.000  O
  N2       1.0000 0.54120  0.20480  0.67250  Biso   1.000  N
  C13      1.0000 0.53500  0.19910  0.72590  Biso   1.000  C
  H9       1.0000 0.51490  0.21520  0.74490  Biso   1.000  H
  C14      1.0000 0.55970  0.16830  0.75160  Biso   1.000  C
  H10      1.0000 0.55660  0.16480  0.78900  Biso   1.000  H
  C15      1.0000 0.58770  0.14350  0.72570  Biso   1.000  C
  C16      1.0000 0.59100  0.14900  0.67200  Biso   1.000  C
  H11      1.0000 0.60960  0.13170  0.65210  Biso   1.000  H
  C17      1.0000 0.56750  0.17960  0.64610  Biso   1.000  C
  H12      1.0000 0.57020  0.18270  0.60870  Biso   1.000  H
  C18      1.0000 0.61080  0.11230  0.75590  Biso   1.000  C
  C19      1.0000 0.60020  0.09590  0.80380  Biso   1.000  C
  H13      1.0000 0.57330  0.10240  0.81790  Biso   1.000  H
  C20      1.0000 0.62580  0.07070  0.83260  Biso   1.000  C
  H14      1.0000 0.61640  0.06070  0.86630  Biso   1.000  H
  C21      1.0000 0.66530  0.05910  0.81430  Biso   1.000  C
  C22      1.0000 0.67820  0.07420  0.76500  Biso   1.000  C
  H15      1.0000 0.70430  0.06560  0.75020  Biso   1.000  H
  C23      1.0000 0.65230  0.10240  0.73730  Biso   1.000  C
  H16      1.0000 0.66240  0.11510  0.70550  Biso   1.000  H
  C24      1.0000 0.69380  0.03170  0.84690  Biso   1.000  C
  O3       1.0000 0.68540  0.02170  0.89480  Biso   1.000  O
  O4       1.0000 0.72930  0.02190  0.82690  Biso   1.000  O
  N3       1.0000 0.72530  0.46890  0.43300  Biso   1.000  N
  C25      1.0000 0.70740  0.47750  0.47980  Biso   1.000  C
  H17      1.0000 0.70850  0.50560  0.49220  Biso   1.000  H
  C26      1.0000 0.68680  0.44740  0.51220  Biso   1.000  C
  H18      1.0000 0.67540  0.45500  0.54580  Biso   1.000  H
  C27      1.0000 0.68400  0.40720  0.49390  Biso   1.000  C
  C28      1.0000 0.70270  0.39580  0.44510  Biso   1.000  C
  H19      1.0000 0.70210  0.36780  0.43220  Biso   1.000  H
  C29      1.0000 0.72280  0.42930  0.41630  Biso   1.000  C
  H20      1.0000 0.73520  0.42270  0.38290  Biso   1.000  H
  C30      1.0000 0.65970  0.37570  0.52510  Biso   1.000  C
  C31      1.0000 0.65420  0.38030  0.57910  Biso   1.000  C
  H21      1.0000 0.66840  0.40180  0.59830  Biso   1.000  H
  C32      1.0000 0.62640  0.35190  0.60560  Biso   1.000  C
  H22      1.0000 0.62020  0.35580  0.64220  Biso   1.000  H
  C33      1.0000 0.60900  0.31920  0.57890  Biso   1.000  C
  C34      1.0000 0.61640  0.31280  0.52600  Biso   1.000  C
  H23      1.0000 0.60350  0.29010  0.50770  Biso   1.000  H
  C35      1.0000 0.64380  0.34090  0.49880  Biso   1.000  C
  H24      1.0000 0.65110  0.33580  0.46270  Biso   1.000  H
  C36      1.0000 0.57560  0.29280  0.60530  Biso   1.000  C
  O5       1.0000 0.56860  0.29640  0.65550  Biso   1.000  O
  O6       1.0000 0.55420  0.26760  0.57860  Biso   1.000  O
  N4       1.0000 0.79590  0.95820  0.85800  Biso   1.000  N
  C37      1.0000 0.81840  0.93000  0.88300  Biso   1.000  C
  H25      1.0000 0.81310  0.92500  0.91970  Biso   1.000  H
  C38      1.0000 0.84860  0.90800  0.85860  Biso   1.000  C
  H26      1.0000 0.86510  0.88900  0.87900  Biso   1.000  H
  C39      1.0000 0.85670  0.91190  0.80470  Biso   1.000  C
  C40      1.0000 0.83280  0.93940  0.77840  Biso   1.000  C
  H27      1.0000 0.83630  0.94310  0.74110  Biso   1.000  H
  C41      1.0000 0.80150  0.96370  0.80670  Biso   1.000  C
  H28      1.0000 0.78500  0.98380  0.78810  Biso   1.000  H
  C42      1.0000 0.88830  0.88770  0.77460  Biso   1.000  C
  C43      1.0000 0.90600  0.90090  0.72920  Biso   1.000  C
  H29      1.0000 0.89920  0.92790  0.71540  Biso   1.000  H
  C44      1.0000 0.93480  0.87450  0.70180  Biso   1.000  C
  H30      1.0000 0.94980  0.88560  0.67230  Biso   1.000  H
  C45      1.0000 0.94140  0.83440  0.71640  Biso   1.000  C
  C46      1.0000 0.92300  0.82020  0.76490  Biso   1.000  C
  H31      1.0000 0.93020  0.79330  0.77860  Biso   1.000  H
  C47      1.0000 0.89520  0.84470  0.79170  Biso   1.000  C
  H32      1.0000 0.88050  0.83380  0.82150  Biso   1.000  H
  C48      1.0000 0.96910  0.80520  0.68410  Biso   1.000  C
  O7       1.0000 0.98060  0.81530  0.63890  Biso   1.000  O
  O8       1.0000 0.97920  0.77040  0.70400  Biso   1.000  O
  N5       1.0000 0.22720  0.96880  0.43490  Biso   1.000  N
  C49      1.0000 0.22390  0.92900  0.41600  Biso   1.000  C
  H33      1.0000 0.23610  0.92310  0.38230  Biso   1.000  H
  C50      1.0000 0.20400  0.89610  0.44290  Biso   1.000  C
  H34      1.0000 0.20190  0.86900  0.42720  Biso   1.000  H
  C51      1.0000 0.18710  0.90400  0.49360  Biso   1.000  C
  C52      1.0000 0.19240  0.94620  0.51280  Biso   1.000  C
  H35      1.0000 0.18260  0.95340  0.54730  Biso   1.000  H
  C53      1.0000 0.21110  0.97550  0.48280  Biso   1.000  C
  H36      1.0000 0.21300  0.00320  0.49690  Biso   1.000  H
  C54      1.0000 0.16370  0.87190  0.52360  Biso   1.000  C
  C55      1.0000 0.15870  0.87490  0.57780  Biso   1.000  C
  H37      1.0000 0.17370  0.89570  0.59720  Biso   1.000  H
  C56      1.0000 0.13100  0.84690  0.60530  Biso   1.000  C
  H38      1.0000 0.12650  0.85020  0.64250  Biso   1.000  H
  C57      1.0000 0.11090  0.81560  0.57850  Biso   1.000  C
  C58      1.0000 0.11760  0.81150  0.52430  Biso   1.000  C
  H39      1.0000 0.10320  0.79020  0.50510  Biso   1.000  H
  C59      1.0000 0.14530  0.83820  0.49700  Biso   1.000  C
  H40      1.0000 0.15150  0.83320  0.46050  Biso   1.000  H
  C60      1.0000 0.07820  0.79020  0.60700  Biso   1.000  C
  O9       1.0000 0.05570  0.76550  0.57930  Biso   1.000  O
  O10      1.0000 0.07140  0.79430  0.65490  Biso   1.000  O
  N6       1.0000 0.45900  0.79690  0.17340  Biso   1.000  N
  C61      1.0000 0.43610  0.82540  0.14670  Biso   1.000  C
  H41      1.0000 0.43460  0.82290  0.10900  Biso   1.000  H
  C62      1.0000 0.41440  0.85800  0.17030  Biso   1.000  C
  H42      1.0000 0.39950  0.87800  0.14940  Biso   1.000  H
  C63      1.0000 0.41520  0.86100  0.22690  Biso   1.000  C
  C64      1.0000 0.44030  0.83450  0.25150  Biso   1.000  C
  H43      1.0000 0.44370  0.83710  0.28900  Biso   1.000  H
  C65      1.0000 0.46190  0.80330  0.22520  Biso   1.000  C
  H44      1.0000 0.47970  0.78540  0.24540  Biso   1.000  H
  C66      1.0000 0.39000  0.89310  0.25490  Biso   1.000  C
  C67      1.0000 0.34990  0.90180  0.23690  Biso   1.000  C
  H45      1.0000 0.34060  0.89060  0.20380  Biso   1.000  H
  C68      1.0000 0.32260  0.92740  0.26740  Biso   1.000  C
  H46      1.0000 0.29470  0.93280  0.25580  Biso   1.000  H
  C69      1.0000 0.33710  0.94410  0.31380  Biso   1.000  C
  C70      1.0000 0.37870  0.93820  0.33010  Biso   1.000  C
  H47      1.0000 0.38920  0.95200  0.36090  Biso   1.000  H
  C71      1.0000 0.40430  0.91180  0.30060  Biso   1.000  C
  H48      1.0000 0.43220  0.90670  0.31210  Biso   1.000  H
  C72      1.0000 0.30760  0.97020  0.34710  Biso   1.000  C
  O11      1.0000 0.27220  0.97970  0.32810  Biso   1.000  O
  O12      1.0000 0.31790  0.98250  0.39400  Biso   1.000  O
  N7       1.0000 0.46860  0.22660  0.59960  Biso   1.000  N
  C73      1.0000 0.47550  0.21090  0.55110  Biso   1.000  C
  H49      1.0000 0.50320  0.21300  0.53730  Biso   1.000  H
  C74      1.0000 0.44530  0.19150  0.51880  Biso   1.000  C
  H50      1.0000 0.45200  0.18140  0.48420  Biso   1.000  H
  C75      1.0000 0.40360  0.18760  0.54060  Biso   1.000  C
  C76      1.0000 0.39530  0.20350  0.58990  Biso   1.000  C
  H51      1.0000 0.36800  0.20120  0.60500  Biso   1.000  H
  C77      1.0000 0.42830  0.22360  0.61830  Biso   1.000  C
  H52      1.0000 0.42200  0.23550  0.65210  Biso   1.000  H
  C78      1.0000 0.37120  0.16420  0.50970  Biso   1.000  C
  C79      1.0000 0.37470  0.16040  0.45470  Biso   1.000  C
  H53      1.0000 0.39560  0.17540  0.43550  Biso   1.000  H
  C80      1.0000 0.34620  0.13370  0.42840  Biso   1.000  C
  H54      1.0000 0.34780  0.13140  0.39080  Biso   1.000  H
  C81      1.0000 0.31600  0.11080  0.45510  Biso   1.000  C
  C82      1.0000 0.31160  0.11700  0.50860  Biso   1.000  C
  H55      1.0000 0.29040  0.10220  0.52750  Biso   1.000  H
  C83      1.0000 0.33850  0.14540  0.53650  Biso   1.000  C
  H56      1.0000 0.33390  0.15110  0.57320  Biso   1.000  H
  C84      1.0000 0.28990  0.07750  0.42730  Biso   1.000  C
  O13      1.0000 0.29430  0.07220  0.37790  Biso   1.000  O
  O14      1.0000 0.26620  0.05580  0.45540  Biso   1.000  O
  N8       1.0000 0.29600  0.45950  0.86140  Biso   1.000  N
  C85      1.0000 0.30050  0.46300  0.80770  Biso   1.000  C
  H57      1.0000 0.28200  0.48040  0.78790  Biso   1.000  H
  C86      1.0000 0.33300  0.44040  0.78140  Biso   1.000  C
  H58      1.0000 0.33580  0.44270  0.74390  Biso   1.000  H
  C87      1.0000 0.35940  0.41620  0.80800  Biso   1.000  C
  C88      1.0000 0.35830  0.41470  0.86380  Biso   1.000  C
  H59      1.0000 0.37830  0.39940  0.88410  Biso   1.000  H
  C89      1.0000 0.32410  0.43810  0.88800  Biso   1.000  C
  H60      1.0000 0.32210  0.43790  0.92570  Biso   1.000  H
  C90      1.0000 0.39290  0.39120  0.78040  Biso   1.000  C
  C91      1.0000 0.41030  0.40320  0.73200  Biso   1.000  C
  H61      1.0000 0.40510  0.43080  0.71940  Biso   1.000  H
  C92      1.0000 0.43390  0.37790  0.70240  Biso   1.000  C
  H62      1.0000 0.44400  0.38770  0.66900  Biso   1.000  H
  C93      1.0000 0.42930  0.32420  0.77010  Biso   1.000  C
  H63      1.0000 0.43780  0.29790  0.78460  Biso   1.000  H
  C94      1.0000 0.40200  0.35040  0.79920  Biso   1.000  C
  H64      1.0000 0.38980  0.34060  0.83140  Biso   1.000  H
  C95      1.0000 0.46860  0.30780  0.68630  Biso   1.000  C
  O15      1.0000 0.47830  0.27200  0.70700  Biso   1.000  O
  O16      1.0000 0.47910  0.31810  0.64020  Biso   1.000  O
  C96      1.0000 0.44430  0.33680  0.71920  Biso   1.000  C
  Ni5      1.0000 0.98670  0.24245  0.14040  Biso   1.000  Ni
  Ni6      1.0000 0.24329  0.48525  0.89297  Biso   1.000  Ni
  Ni7      1.0000 0.48493  0.74418  0.14029  Biso   1.000  Ni
  Ni8      1.0000 0.75662  0.51377  0.39118  Biso   1.000  Ni
  N9       1.0000 0.97050  0.72520  0.59860  Biso   1.000  N
  C97      1.0000 0.92960  0.72300  0.61550  Biso   1.000  C
  H65      1.0000 0.92300  0.73530  0.64890  Biso   1.000  H
  C98      1.0000 0.89670  0.70370  0.58710  Biso   1.000  C
  H66      1.0000 0.86860  0.70370  0.59970  Biso   1.000  H
  C99      1.0000 0.90850  0.68380  0.53720  Biso   1.000  C
  C100     1.0000 0.94900  0.68540  0.52020  Biso   1.000  C
  H67      1.0000 0.95720  0.67240  0.48780  Biso   1.000  H
  C101     1.0000 0.97830  0.70670  0.55160  Biso   1.000  C
  H68      1.0000 0.00630  0.70830  0.53850  Biso   1.000  H
  C102     1.0000 0.87660  0.65930  0.50690  Biso   1.000  C
  C103     1.0000 0.84090  0.64250  0.53260  Biso   1.000  C
  H69      1.0000 0.83550  0.65000  0.56850  Biso   1.000  H
  C104     1.0000 0.81340  0.61530  0.50670  Biso   1.000  C
  H70      1.0000 0.79120  0.60180  0.52550  Biso   1.000  H
  C105     1.0000 0.81940  0.60830  0.45240  Biso   1.000  C
  C106     1.0000 0.85150  0.62570  0.42560  Biso   1.000  C
  H71      1.0000 0.85490  0.62030  0.38860  Biso   1.000  H
  C107     1.0000 0.88100  0.65280  0.45300  Biso   1.000  C
  H72      1.0000 0.90320  0.66590  0.43400  Biso   1.000  H
  C108     1.0000 0.79220  0.57540  0.42620  Biso   1.000  C
  O17      1.0000 0.76700  0.55440  0.45310  Biso   1.000  O
  O18      1.0000 0.79660  0.56890  0.37630  Biso   1.000  O
  N10      1.0000 0.95880  0.29520  0.17250  Biso   1.000  N
  C109     1.0000 0.96500  0.30090  0.22590  Biso   1.000  C
  H73      1.0000 0.98510  0.28480  0.24490  Biso   1.000  H
  C110     1.0000 0.94030  0.33170  0.25160  Biso   1.000  C
  H74      1.0000 0.94340  0.33520  0.28900  Biso   1.000  H
  C111     1.0000 0.91230  0.35650  0.22570  Biso   1.000  C
  C112     1.0000 0.90900  0.35100  0.17200  Biso   1.000  C
  H75      1.0000 0.89040  0.36830  0.15210  Biso   1.000  H
  C113     1.0000 0.93250  0.32040  0.14610  Biso   1.000  C
  H76      1.0000 0.92980  0.31730  0.10870  Biso   1.000  H
  C114     1.0000 0.88920  0.38770  0.25590  Biso   1.000  C
  C115     1.0000 0.89980  0.40410  0.30380  Biso   1.000  C
  H77      1.0000 0.92670  0.39760  0.31790  Biso   1.000  H
  C116     1.0000 0.87420  0.42930  0.33260  Biso   1.000  C
  H78      1.0000 0.88360  0.43930  0.36630  Biso   1.000  H
  C117     1.0000 0.83470  0.44090  0.31430  Biso   1.000  C
  C118     1.0000 0.82180  0.42580  0.26500  Biso   1.000  C
  H79      1.0000 0.79570  0.43440  0.25020  Biso   1.000  H
  C119     1.0000 0.84770  0.39760  0.23730  Biso   1.000  C
  H80      1.0000 0.83760  0.38490  0.20550  Biso   1.000  H
  C120     1.0000 0.80620  0.46830  0.34690  Biso   1.000  C
  O19      1.0000 0.81460  0.47830  0.39480  Biso   1.000  O
  O20      1.0000 0.77070  0.47810  0.32690  Biso   1.000  O
  N11      1.0000 0.77470  0.03110  0.93300  Biso   1.000  N
  C121     1.0000 0.79260  0.02250  0.97980  Biso   1.000  C
  H81      1.0000 0.79150  0.99440  0.99220  Biso   1.000  H
  C122     1.0000 0.81320  0.05260  0.01220  Biso   1.000  C
  H82      1.0000 0.82460  0.04500  0.04580  Biso   1.000  H
  C123     1.0000 0.81600  0.09280  0.99390  Biso   1.000  C
  C124     1.0000 0.79730  0.10420  0.94510  Biso   1.000  C
  H83      1.0000 0.79790  0.13220  0.93220  Biso   1.000  H
  C125     1.0000 0.77720  0.07070  0.91630  Biso   1.000  C
  H84      1.0000 0.76480  0.07730  0.88290  Biso   1.000  H
  C126     1.0000 0.84030  0.12430  0.02510  Biso   1.000  C
  C127     1.0000 0.84580  0.11970  0.07910  Biso   1.000  C
  H85      1.0000 0.83160  0.09820  0.09830  Biso   1.000  H
  C128     1.0000 0.87360  0.14810  0.10560  Biso   1.000  C
  H86      1.0000 0.87980  0.14420  0.14220  Biso   1.000  H
  C129     1.0000 0.89100  0.18080  0.07890  Biso   1.000  C
  C130     1.0000 0.88360  0.18720  0.02600  Biso   1.000  C
  H87      1.0000 0.89650  0.20990  0.00770  Biso   1.000  H
  C131     1.0000 0.85620  0.15910  0.99880  Biso   1.000  C
  H88      1.0000 0.84890  0.16420  0.96270  Biso   1.000  H
  C132     1.0000 0.92440  0.20720  0.10530  Biso   1.000  C
  O21      1.0000 0.93140  0.20360  0.15550  Biso   1.000  O
  O22      1.0000 0.94580  0.23240  0.07860  Biso   1.000  O
  N12      1.0000 0.70410  0.54180  0.35800  Biso   1.000  N
  C133     1.0000 0.68160  0.57000  0.38300  Biso   1.000  C
  H89      1.0000 0.68690  0.57500  0.41970  Biso   1.000  H
  C134     1.0000 0.65140  0.59200  0.35860  Biso   1.000  C
  H90      1.0000 0.63490  0.61100  0.37900  Biso   1.000  H
  C135     1.0000 0.64330  0.58810  0.30470  Biso   1.000  C
  C136     1.0000 0.66720  0.56060  0.27840  Biso   1.000  C
  H91      1.0000 0.66370  0.55690  0.24110  Biso   1.000  H
  C137     1.0000 0.69850  0.53630  0.30670  Biso   1.000  C
  H92      1.0000 0.71500  0.51620  0.28810  Biso   1.000  H
  C138     1.0000 0.61170  0.61230  0.27460  Biso   1.000  C
  C139     1.0000 0.59400  0.59910  0.22920  Biso   1.000  C
  H93      1.0000 0.60080  0.57210  0.21540  Biso   1.000  H
  C140     1.0000 0.56520  0.62550  0.20180  Biso   1.000  C
  H94      1.0000 0.55020  0.61440  0.17230  Biso   1.000  H
  C141     1.0000 0.55860  0.66560  0.21640  Biso   1.000  C
  C142     1.0000 0.57700  0.67980  0.26490  Biso   1.000  C
  H95      1.0000 0.56980  0.70670  0.27860  Biso   1.000  H
  C143     1.0000 0.60480  0.65530  0.29170  Biso   1.000  C
  H96      1.0000 0.61950  0.66620  0.32150  Biso   1.000  H
  C144     1.0000 0.53090  0.69480  0.18410  Biso   1.000  C
  O23      1.0000 0.51940  0.68470  0.13890  Biso   1.000  O
  O24      1.0000 0.52080  0.72960  0.20400  Biso   1.000  O
  N13      1.0000 0.27280  0.53120  0.93490  Biso   1.000  N
  C145     1.0000 0.27610  0.57100  0.91600  Biso   1.000  C
  H97      1.0000 0.26390  0.57690  0.88230  Biso   1.000  H
  C146     1.0000 0.29600  0.60390  0.94290  Biso   1.000  C
  H98      1.0000 0.29810  0.63100  0.92720  Biso   1.000  H
  C147     1.0000 0.31290  0.59600  0.99360  Biso   1.000  C
  C148     1.0000 0.30760  0.55380  0.01280  Biso   1.000  C
  H99      1.0000 0.31740  0.54660  0.04730  Biso   1.000  H
  C149     1.0000 0.28890  0.52450  0.98280  Biso   1.000  C
  H100     1.0000 0.28700  0.49680  0.99690  Biso   1.000  H
  C150     1.0000 0.33630  0.62810  0.02360  Biso   1.000  C
  C151     1.0000 0.34130  0.62510  0.07780  Biso   1.000  C
  H101     1.0000 0.32630  0.60430  0.09720  Biso   1.000  H
  C152     1.0000 0.36900  0.65310  0.10530  Biso   1.000  C
  H102     1.0000 0.37350  0.64980  0.14250  Biso   1.000  H
  C153     1.0000 0.38910  0.68440  0.07850  Biso   1.000  C
  C154     1.0000 0.38240  0.68850  0.02430  Biso   1.000  C
  H103     1.0000 0.39680  0.70980  0.00510  Biso   1.000  H
  C155     1.0000 0.35470  0.66180  0.99700  Biso   1.000  C
  H104     1.0000 0.34850  0.66680  0.96050  Biso   1.000  H
  C156     1.0000 0.42180  0.70980  0.10700  Biso   1.000  C
  O25      1.0000 0.44430  0.73450  0.07930  Biso   1.000  O
  O26      1.0000 0.42860  0.70570  0.15490  Biso   1.000  O
  N14      1.0000 0.04100  0.70310  0.67340  Biso   1.000  N
  C157     1.0000 0.06390  0.67460  0.64670  Biso   1.000  C
  H105     1.0000 0.06540  0.67710  0.60900  Biso   1.000  H
  C158     1.0000 0.08560  0.64200  0.67030  Biso   1.000  C
  H106     1.0000 0.10050  0.62200  0.64940  Biso   1.000  H
  C159     1.0000 0.08480  0.63900  0.72690  Biso   1.000  C
  C160     1.0000 0.05970  0.66550  0.75150  Biso   1.000  C
  H107     1.0000 0.05630  0.66290  0.78900  Biso   1.000  H
  C161     1.0000 0.03810  0.69670  0.72520  Biso   1.000  C
  H108     1.0000 0.02030  0.71460  0.74540  Biso   1.000  H
  C162     1.0000 0.11000  0.60690  0.75490  Biso   1.000  C
  C163     1.0000 0.15010  0.59820  0.73690  Biso   1.000  C
  H109     1.0000 0.15940  0.60940  0.70380  Biso   1.000  H
  C164     1.0000 0.17740  0.57260  0.76740  Biso   1.000  C
  H110     1.0000 0.20530  0.56720  0.75580  Biso   1.000  H
  C165     1.0000 0.16290  0.55590  0.81380  Biso   1.000  C
  C166     1.0000 0.12130  0.56180  0.83010  Biso   1.000  C
  H111     1.0000 0.11080  0.54800  0.86090  Biso   1.000  H
  C167     1.0000 0.09570  0.58820  0.80060  Biso   1.000  C
  H112     1.0000 0.06780  0.59330  0.81210  Biso   1.000  H
  C168     1.0000 0.19240  0.52980  0.84710  Biso   1.000  C
  O27      1.0000 0.22780  0.52030  0.82810  Biso   1.000  O
  O28      1.0000 0.18210  0.51750  0.89400  Biso   1.000  O
  N15      1.0000 0.03140  0.27340  0.09960  Biso   1.000  N
  C169     1.0000 0.02450  0.28910  0.05110  Biso   1.000  C
  H113     1.0000 0.99680  0.28700  0.03730  Biso   1.000  H
  C170     1.0000 0.05470  0.30850  0.01880  Biso   1.000  C
  H114     1.0000 0.04800  0.31860  0.98420  Biso   1.000  H
  C171     1.0000 0.09640  0.31240  0.04060  Biso   1.000  C
  C172     1.0000 0.10470  0.29650  0.08990  Biso   1.000  C
  H115     1.0000 0.13200  0.29880  0.10500  Biso   1.000  H
  C173     1.0000 0.07170  0.27640  0.11830  Biso   1.000  C
  H116     1.0000 0.07800  0.26450  0.15210  Biso   1.000  H
  C174     1.0000 0.12880  0.33580  0.00970  Biso   1.000  C
  C175     1.0000 0.12530  0.33960  0.95470  Biso   1.000  C
  H117     1.0000 0.10440  0.32460  0.93550  Biso   1.000  H
  C176     1.0000 0.15380  0.36630  0.92840  Biso   1.000  C
  H118     1.0000 0.15220  0.36860  0.89080  Biso   1.000  H
  C177     1.0000 0.18400  0.38920  0.95510  Biso   1.000  C
  C178     1.0000 0.18840  0.38300  0.00860  Biso   1.000  C
  H119     1.0000 0.20960  0.39780  0.02750  Biso   1.000  H
  C179     1.0000 0.16150  0.35460  0.03650  Biso   1.000  C
  H120     1.0000 0.16610  0.34890  0.07320  Biso   1.000  H
  C180     1.0000 0.21010  0.42250  0.92730  Biso   1.000  C
  O29      1.0000 0.20570  0.42780  0.87790  Biso   1.000  O
  O30      1.0000 0.23380  0.44420  0.95540  Biso   1.000  O
  N16      1.0000 0.20400  0.04050  0.36140  Biso   1.000  N
  C181     1.0000 0.19950  0.03700  0.30770  Biso   1.000  C
  H121     1.0000 0.21800  0.01960  0.28790  Biso   1.000  H
  C182     1.0000 0.16700  0.05960  0.28140  Biso   1.000  C
  H122     1.0000 0.16420  0.05730  0.24390  Biso   1.000  H
  C183     1.0000 0.14060  0.08380  0.30800  Biso   1.000  C
  C184     1.0000 0.14170  0.08530  0.36380  Biso   1.000  C
  H123     1.0000 0.12170  0.10060  0.38410  Biso   1.000  H
  C185     1.0000 0.17590  0.06190  0.38800  Biso   1.000  C
  H124     1.0000 0.17790  0.06210  0.42570  Biso   1.000  H
  C186     1.0000 0.10710  0.10880  0.28040  Biso   1.000  C
  C187     1.0000 0.08970  0.09680  0.23200  Biso   1.000  C
  H125     1.0000 0.09490  0.06920  0.21940  Biso   1.000  H
  C188     1.0000 0.06610  0.12210  0.20240  Biso   1.000  C
  H126     1.0000 0.05600  0.11230  0.16900  Biso   1.000  H
  C189     1.0000 0.07070  0.17580  0.27010  Biso   1.000  C
  H127     1.0000 0.06220  0.20210  0.28460  Biso   1.000  H
  C190     1.0000 0.09800  0.14960  0.29920  Biso   1.000  C
  H128     1.0000 0.11020  0.15940  0.33140  Biso   1.000  H
  C191     1.0000 0.03140  0.19220  0.18630  Biso   1.000  C
  O31      1.0000 0.02170  0.22800  0.20700  Biso   1.000  O
  O32      1.0000 0.02090  0.18190  0.14020  Biso   1.000  O
  C192     1.0000 0.05570  0.16320  0.21920  Biso   1.000  C
  Ni9      1.0000 0.01330  0.75755  0.14040  Biso   1.000  Ni
  Ni10     1.0000 0.75671  0.51475  0.89297  Biso   1.000  Ni
  Ni11     1.0000 0.51507  0.25582  0.14029  Biso   1.000  Ni
  Ni12     1.0000 0.24338  0.48623  0.39118  Biso   1.000  Ni
  N17      1.0000 0.02950  0.27480  0.59860  Biso   1.000  N
  C193     1.0000 0.07040  0.27700  0.61550  Biso   1.000  C
  H129     1.0000 0.07700  0.26470  0.64890  Biso   1.000  H
  C194     1.0000 0.10330  0.29630  0.58710  Biso   1.000  C
  H130     1.0000 0.13140  0.29630  0.59970  Biso   1.000  H
  C195     1.0000 0.09150  0.31620  0.53720  Biso   1.000  C
  C196     1.0000 0.05100  0.31460  0.52020  Biso   1.000  C
  H131     1.0000 0.04280  0.32760  0.48780  Biso   1.000  H
  C197     1.0000 0.02170  0.29330  0.55160  Biso   1.000  C
  H132     1.0000 0.99370  0.29170  0.53850  Biso   1.000  H
  C198     1.0000 0.12340  0.34070  0.50690  Biso   1.000  C
  C199     1.0000 0.15910  0.35750  0.53260  Biso   1.000  C
  H133     1.0000 0.16450  0.35000  0.56850  Biso   1.000  H
  C200     1.0000 0.18660  0.38470  0.50670  Biso   1.000  C
  H134     1.0000 0.20880  0.39820  0.52550  Biso   1.000  H
  C201     1.0000 0.18060  0.39170  0.45240  Biso   1.000  C
  C202     1.0000 0.14850  0.37430  0.42560  Biso   1.000  C
  H135     1.0000 0.14510  0.37970  0.38860  Biso   1.000  H
  C203     1.0000 0.11900  0.34720  0.45300  Biso   1.000  C
  H136     1.0000 0.09680  0.33410  0.43400  Biso   1.000  H
  C204     1.0000 0.20780  0.42460  0.42620  Biso   1.000  C
  O33      1.0000 0.23300  0.44560  0.45310  Biso   1.000  O
  O34      1.0000 0.20340  0.43110  0.37630  Biso   1.000  O
  N18      1.0000 0.04120  0.70480  0.17250  Biso   1.000  N
  C205     1.0000 0.03500  0.69910  0.22590  Biso   1.000  C
  H137     1.0000 0.01490  0.71520  0.24490  Biso   1.000  H
  C206     1.0000 0.05970  0.66830  0.25160  Biso   1.000  C
  H138     1.0000 0.05660  0.66480  0.28900  Biso   1.000  H
  C207     1.0000 0.08770  0.64350  0.22570  Biso   1.000  C
  C208     1.0000 0.09100  0.64900  0.17200  Biso   1.000  C
  H139     1.0000 0.10960  0.63170  0.15210  Biso   1.000  H
  C209     1.0000 0.06750  0.67960  0.14610  Biso   1.000  C
  H140     1.0000 0.07020  0.68270  0.10870  Biso   1.000  H
  C210     1.0000 0.11080  0.61230  0.25590  Biso   1.000  C
  C211     1.0000 0.10020  0.59590  0.30380  Biso   1.000  C
  H141     1.0000 0.07330  0.60240  0.31790  Biso   1.000  H
  C212     1.0000 0.12580  0.57070  0.33260  Biso   1.000  C
  H142     1.0000 0.11640  0.56070  0.36630  Biso   1.000  H
  C213     1.0000 0.16530  0.55910  0.31430  Biso   1.000  C
  C214     1.0000 0.17820  0.57420  0.26500  Biso   1.000  C
  H143     1.0000 0.20430  0.56560  0.25020  Biso   1.000  H
  C215     1.0000 0.15230  0.60240  0.23730  Biso   1.000  C
  H144     1.0000 0.16240  0.61510  0.20550  Biso   1.000  H
  C216     1.0000 0.19380  0.53170  0.34690  Biso   1.000  C
  O35      1.0000 0.18540  0.52170  0.39480  Biso   1.000  O
  O36      1.0000 0.22930  0.52190  0.32690  Biso   1.000  O
  N19      1.0000 0.22530  0.96890  0.93300  Biso   1.000  N
  C217     1.0000 0.20740  0.97750  0.97980  Biso   1.000  C
  H145     1.0000 0.20850  0.00560  0.99220  Biso   1.000  H
  C218     1.0000 0.18680  0.94740  0.01220  Biso   1.000  C
  H146     1.0000 0.17540  0.95500  0.04580  Biso   1.000  H
  C219     1.0000 0.18400  0.90720  0.99390  Biso   1.000  C
  C220     1.0000 0.20270  0.89580  0.94510  Biso   1.000  C
  H147     1.0000 0.20210  0.86780  0.93220  Biso   1.000  H
  C221     1.0000 0.22280  0.92930  0.91630  Biso   1.000  C
  H148     1.0000 0.23520  0.92270  0.88290  Biso   1.000  H
  C222     1.0000 0.15970  0.87570  0.02510  Biso   1.000  C
  C223     1.0000 0.15420  0.88030  0.07910  Biso   1.000  C
  H149     1.0000 0.16840  0.90180  0.09830  Biso   1.000  H
  C224     1.0000 0.12640  0.85190  0.10560  Biso   1.000  C
  H150     1.0000 0.12020  0.85580  0.14220  Biso   1.000  H
  C225     1.0000 0.10900  0.81920  0.07890  Biso   1.000  C
  C226     1.0000 0.11640  0.81280  0.02600  Biso   1.000  C
  H151     1.0000 0.10350  0.79010  0.00770  Biso   1.000  H
  C227     1.0000 0.14380  0.84090  0.99880  Biso   1.000  C
  H152     1.0000 0.15110  0.83580  0.96270  Biso   1.000  H
  C228     1.0000 0.07560  0.79280  0.10530  Biso   1.000  C
  O37      1.0000 0.06860  0.79640  0.15550  Biso   1.000  O
  O38      1.0000 0.05420  0.76760  0.07860  Biso   1.000  O
  N20      1.0000 0.29590  0.45820  0.35800  Biso   1.000  N
  C229     1.0000 0.31840  0.43000  0.38300  Biso   1.000  C
  H153     1.0000 0.31310  0.42500  0.41970  Biso   1.000  H
  C230     1.0000 0.34860  0.40800  0.35860  Biso   1.000  C
  H154     1.0000 0.36510  0.38900  0.37900  Biso   1.000  H
  C231     1.0000 0.35670  0.41190  0.30470  Biso   1.000  C
  C232     1.0000 0.33280  0.43940  0.27840  Biso   1.000  C
  H155     1.0000 0.33630  0.44310  0.24110  Biso   1.000  H
  C233     1.0000 0.30150  0.46370  0.30670  Biso   1.000  C
  H156     1.0000 0.28500  0.48380  0.28810  Biso   1.000  H
  C234     1.0000 0.38830  0.38770  0.27460  Biso   1.000  C
  C235     1.0000 0.40600  0.40090  0.22920  Biso   1.000  C
  H157     1.0000 0.39920  0.42790  0.21540  Biso   1.000  H
  C236     1.0000 0.43480  0.37450  0.20180  Biso   1.000  C
  H158     1.0000 0.44980  0.38560  0.17230  Biso   1.000  H
  C237     1.0000 0.44140  0.33440  0.21640  Biso   1.000  C
  C238     1.0000 0.42300  0.32020  0.26490  Biso   1.000  C
  H159     1.0000 0.43020  0.29330  0.27860  Biso   1.000  H
  C239     1.0000 0.39520  0.34470  0.29170  Biso   1.000  C
  H160     1.0000 0.38050  0.33380  0.32150  Biso   1.000  H
  C240     1.0000 0.46910  0.30520  0.18410  Biso   1.000  C
  O39      1.0000 0.48060  0.31530  0.13890  Biso   1.000  O
  O40      1.0000 0.47920  0.27040  0.20400  Biso   1.000  O
  N21      1.0000 0.72720  0.46880  0.93490  Biso   1.000  N
  C241     1.0000 0.72390  0.42900  0.91600  Biso   1.000  C
  H161     1.0000 0.73610  0.42310  0.88230  Biso   1.000  H
  C242     1.0000 0.70400  0.39610  0.94290  Biso   1.000  C
  H162     1.0000 0.70190  0.36900  0.92720  Biso   1.000  H
  C243     1.0000 0.68710  0.40400  0.99360  Biso   1.000  C
  C244     1.0000 0.69240  0.44620  0.01280  Biso   1.000  C
  H163     1.0000 0.68260  0.45340  0.04730  Biso   1.000  H
  C245     1.0000 0.71110  0.47550  0.98280  Biso   1.000  C
  H164     1.0000 0.71300  0.50320  0.99690  Biso   1.000  H
  C246     1.0000 0.66370  0.37190  0.02360  Biso   1.000  C
  C247     1.0000 0.65870  0.37490  0.07780  Biso   1.000  C
  H165     1.0000 0.67370  0.39570  0.09720  Biso   1.000  H
  C248     1.0000 0.63100  0.34690  0.10530  Biso   1.000  C
  H166     1.0000 0.62650  0.35020  0.14250  Biso   1.000  H
  C249     1.0000 0.61090  0.31560  0.07850  Biso   1.000  C
  C250     1.0000 0.61760  0.31150  0.02430  Biso   1.000  C
  H167     1.0000 0.60320  0.29020  0.00510  Biso   1.000  H
  C251     1.0000 0.64530  0.33820  0.99700  Biso   1.000  C
  H168     1.0000 0.65150  0.33320  0.96050  Biso   1.000  H
  C252     1.0000 0.57820  0.29020  0.10700  Biso   1.000  C
  O41      1.0000 0.55570  0.26550  0.07930  Biso   1.000  O
  O42      1.0000 0.57140  0.29430  0.15490  Biso   1.000  O
  N22      1.0000 0.95900  0.29690  0.67340  Biso   1.000  N
  C253     1.0000 0.93610  0.32540  0.64670  Biso   1.000  C
  H169     1.0000 0.93460  0.32290  0.60900  Biso   1.000  H
  C254     1.0000 0.91440  0.35800  0.67030  Biso   1.000  C
  H170     1.0000 0.89950  0.37800  0.64940  Biso   1.000  H
  C255     1.0000 0.91520  0.36100  0.72690  Biso   1.000  C
  C256     1.0000 0.94030  0.33450  0.75150  Biso   1.000  C
  H171     1.0000 0.94370  0.33710  0.78900  Biso   1.000  H
  C257     1.0000 0.96190  0.30330  0.72520  Biso   1.000  C
  H172     1.0000 0.97970  0.28540  0.74540  Biso   1.000  H
  C258     1.0000 0.89000  0.39310  0.75490  Biso   1.000  C
  C259     1.0000 0.84990  0.40180  0.73690  Biso   1.000  C
  H173     1.0000 0.84060  0.39060  0.70380  Biso   1.000  H
  C260     1.0000 0.82260  0.42740  0.76740  Biso   1.000  C
  H174     1.0000 0.79470  0.43280  0.75580  Biso   1.000  H
  C261     1.0000 0.83710  0.44410  0.81380  Biso   1.000  C
  C262     1.0000 0.87870  0.43820  0.83010  Biso   1.000  C
  H175     1.0000 0.88920  0.45200  0.86090  Biso   1.000  H
  C263     1.0000 0.90430  0.41180  0.80060  Biso   1.000  C
  H176     1.0000 0.93220  0.40670  0.81210  Biso   1.000  H
  C264     1.0000 0.80760  0.47020  0.84710  Biso   1.000  C
  O43      1.0000 0.77220  0.47970  0.82810  Biso   1.000  O
  O44      1.0000 0.81790  0.48250  0.89400  Biso   1.000  O
  N23      1.0000 0.96860  0.72660  0.09960  Biso   1.000  N
  C265     1.0000 0.97550  0.71090  0.05110  Biso   1.000  C
  H177     1.0000 0.00320  0.71300  0.03730  Biso   1.000  H
  C266     1.0000 0.94530  0.69150  0.01880  Biso   1.000  C
  H178     1.0000 0.95200  0.68140  0.98420  Biso   1.000  H
  C267     1.0000 0.90360  0.68760  0.04060  Biso   1.000  C
  C268     1.0000 0.89530  0.70350  0.08990  Biso   1.000  C
  H179     1.0000 0.86800  0.70120  0.10500  Biso   1.000  H
  C269     1.0000 0.92830  0.72360  0.11830  Biso   1.000  C
  H180     1.0000 0.92200  0.73550  0.15210  Biso   1.000  H
  C270     1.0000 0.87120  0.66420  0.00970  Biso   1.000  C
  C271     1.0000 0.87470  0.66040  0.95470  Biso   1.000  C
  H181     1.0000 0.89560  0.67540  0.93550  Biso   1.000  H
  C272     1.0000 0.84620  0.63370  0.92840  Biso   1.000  C
  H182     1.0000 0.84780  0.63140  0.89080  Biso   1.000  H
  C273     1.0000 0.81600  0.61080  0.95510  Biso   1.000  C
  C274     1.0000 0.81160  0.61700  0.00860  Biso   1.000  C
  H183     1.0000 0.79040  0.60220  0.02750  Biso   1.000  H
  C275     1.0000 0.83850  0.64540  0.03650  Biso   1.000  C
  H184     1.0000 0.83390  0.65110  0.07320  Biso   1.000  H
  C276     1.0000 0.78990  0.57750  0.92730  Biso   1.000  C
  O45      1.0000 0.79430  0.57220  0.87790  Biso   1.000  O
  O46      1.0000 0.76620  0.55580  0.95540  Biso   1.000  O
  N24      1.0000 0.79600  0.95950  0.36140  Biso   1.000  N
  C277     1.0000 0.80050  0.96300  0.30770  Biso   1.000  C
  H185     1.0000 0.78200  0.98040  0.28790  Biso   1.000  H
  C278     1.0000 0.83300  0.94040  0.28140  Biso   1.000  C
  H186     1.0000 0.83580  0.94270  0.24390  Biso   1.000  H
  C279     1.0000 0.85940  0.91620  0.30800  Biso   1.000  C
  C280     1.0000 0.85830  0.91470  0.36380  Biso   1.000  C
  H187     1.0000 0.87830  0.89940  0.38410  Biso   1.000  H
  C281     1.0000 0.82410  0.93810  0.38800  Biso   1.000  C
  H188     1.0000 0.82210  0.93790  0.42570  Biso   1.000  H
  C282     1.0000 0.89290  0.89120  0.28040  Biso   1.000  C
  C283     1.0000 0.91030  0.90320  0.23200  Biso   1.000  C
  H189     1.0000 0.90510  0.93080  0.21940  Biso   1.000  H
  C284     1.0000 0.93390  0.87790  0.20240  Biso   1.000  C
  H190     1.0000 0.94400  0.88770  0.16900  Biso   1.000  H
  C285     1.0000 0.92930  0.82420  0.27010  Biso   1.000  C
  H191     1.0000 0.93780  0.79790  0.28460  Biso   1.000  H
  C286     1.0000 0.90200  0.85040  0.29920  Biso   1.000  C
  H192     1.0000 0.88980  0.84060  0.33140  Biso   1.000  H
  C287     1.0000 0.96860  0.80780  0.18630  Biso   1.000  C
  O47      1.0000 0.97830  0.77200  0.20700  Biso   1.000  O
  O48      1.0000 0.97910  0.81810  0.14020  Biso   1.000  O
  C288     1.0000 0.94430  0.83680  0.21920  Biso   1.000  C
  Ni13     1.0000 0.48670  0.74245  0.64040  Biso   1.000  Ni
  Ni14     1.0000 0.74329  0.98525  0.39297  Biso   1.000  Ni
  Ni15     1.0000 0.98493  0.24418  0.64029  Biso   1.000  Ni
  Ni16     1.0000 0.25662  0.01377  0.89118  Biso   1.000  Ni
  N25      1.0000 0.47050  0.22520  0.09860  Biso   1.000  N
  C289     1.0000 0.42960  0.22300  0.11550  Biso   1.000  C
  H193     1.0000 0.42300  0.23530  0.14890  Biso   1.000  H
  C290     1.0000 0.39670  0.20370  0.08710  Biso   1.000  C
  H194     1.0000 0.36860  0.20370  0.09970  Biso   1.000  H
  C291     1.0000 0.40850  0.18380  0.03720  Biso   1.000  C
  C292     1.0000 0.44900  0.18540  0.02020  Biso   1.000  C
  H195     1.0000 0.45720  0.17240  0.98780  Biso   1.000  H
  C293     1.0000 0.47830  0.20670  0.05160  Biso   1.000  C
  H196     1.0000 0.50630  0.20830  0.03850  Biso   1.000  H
  C294     1.0000 0.37660  0.15930  0.00690  Biso   1.000  C
  C295     1.0000 0.34090  0.14250  0.03260  Biso   1.000  C
  H197     1.0000 0.33550  0.15000  0.06850  Biso   1.000  H
  C296     1.0000 0.31340  0.11530  0.00670  Biso   1.000  C
  H198     1.0000 0.29120  0.10180  0.02550  Biso   1.000  H
  C297     1.0000 0.31940  0.10830  0.95240  Biso   1.000  C
  C298     1.0000 0.35150  0.12570  0.92560  Biso   1.000  C
  H199     1.0000 0.35490  0.12030  0.88860  Biso   1.000  H
  C299     1.0000 0.38100  0.15280  0.95300  Biso   1.000  C
  H200     1.0000 0.40320  0.16590  0.93400  Biso   1.000  H
  C300     1.0000 0.29220  0.07540  0.92620  Biso   1.000  C
  O49      1.0000 0.26700  0.05440  0.95310  Biso   1.000  O
  O50      1.0000 0.29660  0.06890  0.87630  Biso   1.000  O
  N26      1.0000 0.45880  0.79520  0.67250  Biso   1.000  N
  C301     1.0000 0.46500  0.80090  0.72590  Biso   1.000  C
  H201     1.0000 0.48510  0.78480  0.74490  Biso   1.000  H
  C302     1.0000 0.44030  0.83170  0.75160  Biso   1.000  C
  H202     1.0000 0.44340  0.83520  0.78900  Biso   1.000  H
  C303     1.0000 0.41230  0.85650  0.72570  Biso   1.000  C
  C304     1.0000 0.40900  0.85100  0.67200  Biso   1.000  C
  H203     1.0000 0.39040  0.86830  0.65210  Biso   1.000  H
  C305     1.0000 0.43250  0.82040  0.64610  Biso   1.000  C
  H204     1.0000 0.42980  0.81730  0.60870  Biso   1.000  H
  C306     1.0000 0.38920  0.88770  0.75590  Biso   1.000  C
  C307     1.0000 0.39980  0.90410  0.80380  Biso   1.000  C
  H205     1.0000 0.42670  0.89760  0.81790  Biso   1.000  H
  C308     1.0000 0.37420  0.92930  0.83260  Biso   1.000  C
  H206     1.0000 0.38360  0.93930  0.86630  Biso   1.000  H
  C309     1.0000 0.33470  0.94090  0.81430  Biso   1.000  C
  C310     1.0000 0.32180  0.92580  0.76500  Biso   1.000  C
  H207     1.0000 0.29570  0.93440  0.75020  Biso   1.000  H
  C311     1.0000 0.34770  0.89760  0.73730  Biso   1.000  C
  H208     1.0000 0.33760  0.88490  0.70550  Biso   1.000  H
  C312     1.0000 0.30620  0.96830  0.84690  Biso   1.000  C
  O51      1.0000 0.31460  0.97830  0.89480  Biso   1.000  O
  O52      1.0000 0.27070  0.97810  0.82690  Biso   1.000  O
  N27      1.0000 0.27470  0.53110  0.43300  Biso   1.000  N
  C313     1.0000 0.29260  0.52250  0.47980  Biso   1.000  C
  H209     1.0000 0.29150  0.49440  0.49220  Biso   1.000  H
  C314     1.0000 0.31320  0.55260  0.51220  Biso   1.000  C
  H210     1.0000 0.32460  0.54500  0.54580  Biso   1.000  H
  C315     1.0000 0.31600  0.59280  0.49390  Biso   1.000  C
  C316     1.0000 0.29730  0.60420  0.44510  Biso   1.000  C
  H211     1.0000 0.29790  0.63220  0.43220  Biso   1.000  H
  C317     1.0000 0.27720  0.57070  0.41630  Biso   1.000  C
  H212     1.0000 0.26480  0.57730  0.38290  Biso   1.000  H
  C318     1.0000 0.34030  0.62430  0.52510  Biso   1.000  C
  C319     1.0000 0.34580  0.61970  0.57910  Biso   1.000  C
  H213     1.0000 0.33160  0.59820  0.59830  Biso   1.000  H
  C320     1.0000 0.37360  0.64810  0.60560  Biso   1.000  C
  H214     1.0000 0.37980  0.64420  0.64220  Biso   1.000  H
  C321     1.0000 0.39100  0.68080  0.57890  Biso   1.000  C
  C322     1.0000 0.38360  0.68720  0.52600  Biso   1.000  C
  H215     1.0000 0.39650  0.70990  0.50770  Biso   1.000  H
  C323     1.0000 0.35620  0.65910  0.49880  Biso   1.000  C
  H216     1.0000 0.34890  0.66420  0.46270  Biso   1.000  H
  C324     1.0000 0.42440  0.70720  0.60530  Biso   1.000  C
  O53      1.0000 0.43140  0.70360  0.65550  Biso   1.000  O
  O54      1.0000 0.44580  0.73240  0.57860  Biso   1.000  O
  N28      1.0000 0.20410  0.04180  0.85800  Biso   1.000  N
  C325     1.0000 0.18160  0.07000  0.88300  Biso   1.000  C
  H217     1.0000 0.18690  0.07500  0.91970  Biso   1.000  H
  C326     1.0000 0.15140  0.09200  0.85860  Biso   1.000  C
  H218     1.0000 0.13490  0.11100  0.87900  Biso   1.000  H
  C327     1.0000 0.14330  0.08810  0.80470  Biso   1.000  C
  C328     1.0000 0.16720  0.06060  0.77840  Biso   1.000  C
  H219     1.0000 0.16370  0.05690  0.74110  Biso   1.000  H
  C329     1.0000 0.19850  0.03630  0.80670  Biso   1.000  C
  H220     1.0000 0.21500  0.01620  0.78810  Biso   1.000  H
  C330     1.0000 0.11170  0.11230  0.77460  Biso   1.000  C
  C331     1.0000 0.09400  0.09910  0.72920  Biso   1.000  C
  H221     1.0000 0.10080  0.07210  0.71540  Biso   1.000  H
  C332     1.0000 0.06520  0.12550  0.70180  Biso   1.000  C
  H222     1.0000 0.05020  0.11440  0.67230  Biso   1.000  H
  C333     1.0000 0.05860  0.16560  0.71640  Biso   1.000  C
  C334     1.0000 0.07700  0.17980  0.76490  Biso   1.000  C
  H223     1.0000 0.06980  0.20670  0.77860  Biso   1.000  H
  C335     1.0000 0.10480  0.15530  0.79170  Biso   1.000  C
  H224     1.0000 0.11950  0.16620  0.82150  Biso   1.000  H
  C336     1.0000 0.03090  0.19480  0.68410  Biso   1.000  C
  O55      1.0000 0.01940  0.18470  0.63890  Biso   1.000  O
  O56      1.0000 0.02080  0.22960  0.70400  Biso   1.000  O
  N29      1.0000 0.77280  0.03120  0.43490  Biso   1.000  N
  C337     1.0000 0.77610  0.07100  0.41600  Biso   1.000  C
  H225     1.0000 0.76390  0.07690  0.38230  Biso   1.000  H
  C338     1.0000 0.79600  0.10390  0.44290  Biso   1.000  C
  H226     1.0000 0.79810  0.13100  0.42720  Biso   1.000  H
  C339     1.0000 0.81290  0.09600  0.49360  Biso   1.000  C
  C340     1.0000 0.80760  0.05380  0.51280  Biso   1.000  C
  H227     1.0000 0.81740  0.04660  0.54730  Biso   1.000  H
  C341     1.0000 0.78890  0.02450  0.48280  Biso   1.000  C
  H228     1.0000 0.78700  0.99680  0.49690  Biso   1.000  H
  C342     1.0000 0.83630  0.12810  0.52360  Biso   1.000  C
  C343     1.0000 0.84130  0.12510  0.57780  Biso   1.000  C
  H229     1.0000 0.82630  0.10430  0.59720  Biso   1.000  H
  C344     1.0000 0.86900  0.15310  0.60530  Biso   1.000  C
  H230     1.0000 0.87350  0.14980  0.64250  Biso   1.000  H
  C345     1.0000 0.88910  0.18440  0.57850  Biso   1.000  C
  C346     1.0000 0.88240  0.18850  0.52430  Biso   1.000  C
  H231     1.0000 0.89680  0.20980  0.50510  Biso   1.000  H
  C347     1.0000 0.85470  0.16180  0.49700  Biso   1.000  C
  H232     1.0000 0.84850  0.16680  0.46050  Biso   1.000  H
  C348     1.0000 0.92180  0.20980  0.60700  Biso   1.000  C
  O57      1.0000 0.94430  0.23450  0.57930  Biso   1.000  O
  O58      1.0000 0.92860  0.20570  0.65490  Biso   1.000  O
  N30      1.0000 0.54100  0.20310  0.17340  Biso   1.000  N
  C349     1.0000 0.56390  0.17460  0.14670  Biso   1.000  C
  H233     1.0000 0.56540  0.17710  0.10900  Biso   1.000  H
  C350     1.0000 0.58560  0.14200  0.17030  Biso   1.000  C
  H234     1.0000 0.60050  0.12200  0.14940  Biso   1.000  H
  C351     1.0000 0.58480  0.13900  0.22690  Biso   1.000  C
  C352     1.0000 0.55970  0.16550  0.25150  Biso   1.000  C
  H235     1.0000 0.55630  0.16290  0.28900  Biso   1.000  H
  C353     1.0000 0.53810  0.19670  0.22520  Biso   1.000  C
  H236     1.0000 0.52030  0.21460  0.24540  Biso   1.000  H
  C354     1.0000 0.61000  0.10690  0.25490  Biso   1.000  C
  C355     1.0000 0.65010  0.09820  0.23690  Biso   1.000  C
  H237     1.0000 0.65940  0.10940  0.20380  Biso   1.000  H
  C356     1.0000 0.67740  0.07260  0.26740  Biso   1.000  C
  H238     1.0000 0.70530  0.06720  0.25580  Biso   1.000  H
  C357     1.0000 0.66290  0.05590  0.31380  Biso   1.000  C
  C358     1.0000 0.62130  0.06180  0.33010  Biso   1.000  C
  H239     1.0000 0.61080  0.04800  0.36090  Biso   1.000  H
  C359     1.0000 0.59570  0.08820  0.30060  Biso   1.000  C
  H240     1.0000 0.56780  0.09330  0.31210  Biso   1.000  H
  C360     1.0000 0.69240  0.02980  0.34710  Biso   1.000  C
  O59      1.0000 0.72780  0.02030  0.32810  Biso   1.000  O
  O60      1.0000 0.68210  0.01750  0.39400  Biso   1.000  O
  N31      1.0000 0.53140  0.77340  0.59960  Biso   1.000  N
  C361     1.0000 0.52450  0.78910  0.55110  Biso   1.000  C
  H241     1.0000 0.49680  0.78700  0.53730  Biso   1.000  H
  C362     1.0000 0.55470  0.80850  0.51880  Biso   1.000  C
  H242     1.0000 0.54800  0.81860  0.48420  Biso   1.000  H
  C363     1.0000 0.59640  0.81240  0.54060  Biso   1.000  C
  C364     1.0000 0.60470  0.79650  0.58990  Biso   1.000  C
  H243     1.0000 0.63200  0.79880  0.60500  Biso   1.000  H
  C365     1.0000 0.57170  0.77640  0.61830  Biso   1.000  C
  H244     1.0000 0.57800  0.76450  0.65210  Biso   1.000  H
  C366     1.0000 0.62880  0.83580  0.50970  Biso   1.000  C
  C367     1.0000 0.62530  0.83960  0.45470  Biso   1.000  C
  H245     1.0000 0.60440  0.82460  0.43550  Biso   1.000  H
  C368     1.0000 0.65380  0.86630  0.42840  Biso   1.000  C
  H246     1.0000 0.65220  0.86860  0.39080  Biso   1.000  H
  C369     1.0000 0.68400  0.88920  0.45510  Biso   1.000  C
  C370     1.0000 0.68840  0.88300  0.50860  Biso   1.000  C
  H247     1.0000 0.70960  0.89780  0.52750  Biso   1.000  H
  C371     1.0000 0.66150  0.85460  0.53650  Biso   1.000  C
  H248     1.0000 0.66610  0.84890  0.57320  Biso   1.000  H
  C372     1.0000 0.71010  0.92250  0.42730  Biso   1.000  C
  O61      1.0000 0.70570  0.92780  0.37790  Biso   1.000  O
  O62      1.0000 0.73380  0.94420  0.45540  Biso   1.000  O
  N32      1.0000 0.70400  0.54050  0.86140  Biso   1.000  N
  C373     1.0000 0.69950  0.53700  0.80770  Biso   1.000  C
  H249     1.0000 0.71800  0.51960  0.78790  Biso   1.000  H
  C374     1.0000 0.66700  0.55960  0.78140  Biso   1.000  C
  H250     1.0000 0.66420  0.55730  0.74390  Biso   1.000  H
  C375     1.0000 0.64060  0.58380  0.80800  Biso   1.000  C
  C376     1.0000 0.64170  0.58530  0.86380  Biso   1.000  C
  H251     1.0000 0.62170  0.60060  0.88410  Biso   1.000  H
  C377     1.0000 0.67590  0.56190  0.88800  Biso   1.000  C
  H252     1.0000 0.67790  0.56210  0.92570  Biso   1.000  H
  C378     1.0000 0.60710  0.60880  0.78040  Biso   1.000  C
  C379     1.0000 0.58970  0.59680  0.73200  Biso   1.000  C
  H253     1.0000 0.59490  0.56920  0.71940  Biso   1.000  H
  C380     1.0000 0.56610  0.62210  0.70240  Biso   1.000  C
  H254     1.0000 0.55600  0.61230  0.66900  Biso   1.000  H
  C381     1.0000 0.57070  0.67580  0.77010  Biso   1.000  C
  H255     1.0000 0.56220  0.70210  0.78460  Biso   1.000  H
  C382     1.0000 0.59800  0.64960  0.79920  Biso   1.000  C
  H256     1.0000 0.61020  0.65940  0.83140  Biso   1.000  H
  C383     1.0000 0.53140  0.69220  0.68630  Biso   1.000  C
  O63      1.0000 0.52170  0.72800  0.70700  Biso   1.000  O
  O64      1.0000 0.52090  0.68190  0.64020  Biso   1.000  O
  C384     1.0000 0.55570  0.66320  0.71920  Biso   1.000  C
  Ni17     1.0000 0.74245  0.51330  0.64040  Biso   1.000  Ni
  Ni18     1.0000 0.98525  0.25671  0.39297  Biso   1.000  Ni
  Ni19     1.0000 0.24418  0.01507  0.64029  Biso   1.000  Ni
  Ni20     1.0000 0.01377  0.74338  0.89118  Biso   1.000  Ni
  N33      1.0000 0.22520  0.52950  0.09860  Biso   1.000  N
  C385     1.0000 0.22300  0.57040  0.11550  Biso   1.000  C
  H257     1.0000 0.23530  0.57700  0.14890  Biso   1.000  H
  C386     1.0000 0.20370  0.60330  0.08710  Biso   1.000  C
  H258     1.0000 0.20370  0.63140  0.09970  Biso   1.000  H
  C387     1.0000 0.18380  0.59150  0.03720  Biso   1.000  C
  C388     1.0000 0.18540  0.55100  0.02020  Biso   1.000  C
  H259     1.0000 0.17240  0.54280  0.98780  Biso   1.000  H
  C389     1.0000 0.20670  0.52170  0.05160  Biso   1.000  C
  H260     1.0000 0.20830  0.49370  0.03850  Biso   1.000  H
  C390     1.0000 0.15930  0.62340  0.00690  Biso   1.000  C
  C391     1.0000 0.14250  0.65910  0.03260  Biso   1.000  C
  H261     1.0000 0.15000  0.66450  0.06850  Biso   1.000  H
  C392     1.0000 0.11530  0.68660  0.00670  Biso   1.000  C
  H262     1.0000 0.10180  0.70880  0.02550  Biso   1.000  H
  C393     1.0000 0.10830  0.68060  0.95240  Biso   1.000  C
  C394     1.0000 0.12570  0.64850  0.92560  Biso   1.000  C
  H263     1.0000 0.12030  0.64510  0.88860  Biso   1.000  H
  C395     1.0000 0.15280  0.61900  0.95300  Biso   1.000  C
  H264     1.0000 0.16590  0.59680  0.93400  Biso   1.000  H
  C396     1.0000 0.07540  0.70780  0.92620  Biso   1.000  C
  O65      1.0000 0.05440  0.73300  0.95310  Biso   1.000  O
  O66      1.0000 0.06890  0.70340  0.87630  Biso   1.000  O
  N34      1.0000 0.79520  0.54120  0.67250  Biso   1.000  N
  C397     1.0000 0.80090  0.53500  0.72590  Biso   1.000  C
  H265     1.0000 0.78480  0.51490  0.74490  Biso   1.000  H
  C398     1.0000 0.83170  0.55970  0.75160  Biso   1.000  C
  H266     1.0000 0.83520  0.55660  0.78900  Biso   1.000  H
  C399     1.0000 0.85650  0.58770  0.72570  Biso   1.000  C
  C400     1.0000 0.85100  0.59100  0.67200  Biso   1.000  C
  H267     1.0000 0.86830  0.60960  0.65210  Biso   1.000  H
  C401     1.0000 0.82040  0.56750  0.64610  Biso   1.000  C
  H268     1.0000 0.81730  0.57020  0.60870  Biso   1.000  H
  C402     1.0000 0.88770  0.61080  0.75590  Biso   1.000  C
  C403     1.0000 0.90410  0.60020  0.80380  Biso   1.000  C
  H269     1.0000 0.89760  0.57330  0.81790  Biso   1.000  H
  C404     1.0000 0.92930  0.62580  0.83260  Biso   1.000  C
  H270     1.0000 0.93930  0.61640  0.86630  Biso   1.000  H
  C405     1.0000 0.94090  0.66530  0.81430  Biso   1.000  C
  C406     1.0000 0.92580  0.67820  0.76500  Biso   1.000  C
  H271     1.0000 0.93440  0.70430  0.75020  Biso   1.000  H
  C407     1.0000 0.89760  0.65230  0.73730  Biso   1.000  C
  H272     1.0000 0.88490  0.66240  0.70550  Biso   1.000  H
  C408     1.0000 0.96830  0.69380  0.84690  Biso   1.000  C
  O67      1.0000 0.97830  0.68540  0.89480  Biso   1.000  O
  O68      1.0000 0.97810  0.72930  0.82690  Biso   1.000  O
  N35      1.0000 0.53110  0.72530  0.43300  Biso   1.000  N
  C409     1.0000 0.52250  0.70740  0.47980  Biso   1.000  C
  H273     1.0000 0.49440  0.70850  0.49220  Biso   1.000  H
  C410     1.0000 0.55260  0.68680  0.51220  Biso   1.000  C
  H274     1.0000 0.54500  0.67540  0.54580  Biso   1.000  H
  C411     1.0000 0.59280  0.68400  0.49390  Biso   1.000  C
  C412     1.0000 0.60420  0.70270  0.44510  Biso   1.000  C
  H275     1.0000 0.63220  0.70210  0.43220  Biso   1.000  H
  C413     1.0000 0.57070  0.72280  0.41630  Biso   1.000  C
  H276     1.0000 0.57730  0.73520  0.38290  Biso   1.000  H
  C414     1.0000 0.62430  0.65970  0.52510  Biso   1.000  C
  C415     1.0000 0.61970  0.65420  0.57910  Biso   1.000  C
  H277     1.0000 0.59820  0.66840  0.59830  Biso   1.000  H
  C416     1.0000 0.64810  0.62640  0.60560  Biso   1.000  C
  H278     1.0000 0.64420  0.62020  0.64220  Biso   1.000  H
  C417     1.0000 0.68080  0.60900  0.57890  Biso   1.000  C
  C418     1.0000 0.68720  0.61640  0.52600  Biso   1.000  C
  H279     1.0000 0.70990  0.60350  0.50770  Biso   1.000  H
  C419     1.0000 0.65910  0.64380  0.49880  Biso   1.000  C
  H280     1.0000 0.66420  0.65110  0.46270  Biso   1.000  H
  C420     1.0000 0.70720  0.57560  0.60530  Biso   1.000  C
  O69      1.0000 0.70360  0.56860  0.65550  Biso   1.000  O
  O70      1.0000 0.73240  0.55420  0.57860  Biso   1.000  O
  N36      1.0000 0.04180  0.79590  0.85800  Biso   1.000  N
  C421     1.0000 0.07000  0.81840  0.88300  Biso   1.000  C
  H281     1.0000 0.07500  0.81310  0.91970  Biso   1.000  H
  C422     1.0000 0.09200  0.84860  0.85860  Biso   1.000  C
  H282     1.0000 0.11100  0.86510  0.87900  Biso   1.000  H
  C423     1.0000 0.08810  0.85670  0.80470  Biso   1.000  C
  C424     1.0000 0.06060  0.83280  0.77840  Biso   1.000  C
  H283     1.0000 0.05690  0.83630  0.74110  Biso   1.000  H
  C425     1.0000 0.03630  0.80150  0.80670  Biso   1.000  C
  H284     1.0000 0.01620  0.78500  0.78810  Biso   1.000  H
  C426     1.0000 0.11230  0.88830  0.77460  Biso   1.000  C
  C427     1.0000 0.09910  0.90600  0.72920  Biso   1.000  C
  H285     1.0000 0.07210  0.89920  0.71540  Biso   1.000  H
  C428     1.0000 0.12550  0.93480  0.70180  Biso   1.000  C
  H286     1.0000 0.11440  0.94980  0.67230  Biso   1.000  H
  C429     1.0000 0.16560  0.94140  0.71640  Biso   1.000  C
  C430     1.0000 0.17980  0.92300  0.76490  Biso   1.000  C
  H287     1.0000 0.20670  0.93020  0.77860  Biso   1.000  H
  C431     1.0000 0.15530  0.89520  0.79170  Biso   1.000  C
  H288     1.0000 0.16620  0.88050  0.82150  Biso   1.000  H
  C432     1.0000 0.19480  0.96910  0.68410  Biso   1.000  C
  O71      1.0000 0.18470  0.98060  0.63890  Biso   1.000  O
  O72      1.0000 0.22960  0.97920  0.70400  Biso   1.000  O
  N37      1.0000 0.03120  0.22720  0.43490  Biso   1.000  N
  C433     1.0000 0.07100  0.22390  0.41600  Biso   1.000  C
  H289     1.0000 0.07690  0.23610  0.38230  Biso   1.000  H
  C434     1.0000 0.10390  0.20400  0.44290  Biso   1.000  C
  H290     1.0000 0.13100  0.20190  0.42720  Biso   1.000  H
  C435     1.0000 0.09600  0.18710  0.49360  Biso   1.000  C
  C436     1.0000 0.05380  0.19240  0.51280  Biso   1.000  C
  H291     1.0000 0.04660  0.18260  0.54730  Biso   1.000  H
  C437     1.0000 0.02450  0.21110  0.48280  Biso   1.000  C
  H292     1.0000 0.99680  0.21300  0.49690  Biso   1.000  H
  C438     1.0000 0.12810  0.16370  0.52360  Biso   1.000  C
  C439     1.0000 0.12510  0.15870  0.57780  Biso   1.000  C
  H293     1.0000 0.10430  0.17370  0.59720  Biso   1.000  H
  C440     1.0000 0.15310  0.13100  0.60530  Biso   1.000  C
  H294     1.0000 0.14980  0.12650  0.64250  Biso   1.000  H
  C441     1.0000 0.18440  0.11090  0.57850  Biso   1.000  C
  C442     1.0000 0.18850  0.11760  0.52430  Biso   1.000  C
  H295     1.0000 0.20980  0.10320  0.50510  Biso   1.000  H
  C443     1.0000 0.16180  0.14530  0.49700  Biso   1.000  C
  H296     1.0000 0.16680  0.15150  0.46050  Biso   1.000  H
  C444     1.0000 0.20980  0.07820  0.60700  Biso   1.000  C
  O73      1.0000 0.23450  0.05570  0.57930  Biso   1.000  O
  O74      1.0000 0.20570  0.07140  0.65490  Biso   1.000  O
  N38      1.0000 0.20310  0.45900  0.17340  Biso   1.000  N
  C445     1.0000 0.17460  0.43610  0.14670  Biso   1.000  C
  H297     1.0000 0.17710  0.43460  0.10900  Biso   1.000  H
  C446     1.0000 0.14200  0.41440  0.17030  Biso   1.000  C
  H298     1.0000 0.12200  0.39950  0.14940  Biso   1.000  H
  C447     1.0000 0.13900  0.41520  0.22690  Biso   1.000  C
  C448     1.0000 0.16550  0.44030  0.25150  Biso   1.000  C
  H299     1.0000 0.16290  0.44370  0.28900  Biso   1.000  H
  C449     1.0000 0.19670  0.46190  0.22520  Biso   1.000  C
  H300     1.0000 0.21460  0.47970  0.24540  Biso   1.000  H
  C450     1.0000 0.10690  0.39000  0.25490  Biso   1.000  C
  C451     1.0000 0.09820  0.34990  0.23690  Biso   1.000  C
  H301     1.0000 0.10940  0.34060  0.20380  Biso   1.000  H
  C452     1.0000 0.07260  0.32260  0.26740  Biso   1.000  C
  H302     1.0000 0.06720  0.29470  0.25580  Biso   1.000  H
  C453     1.0000 0.05590  0.33710  0.31380  Biso   1.000  C
  C454     1.0000 0.06180  0.37870  0.33010  Biso   1.000  C
  H303     1.0000 0.04800  0.38920  0.36090  Biso   1.000  H
  C455     1.0000 0.08820  0.40430  0.30060  Biso   1.000  C
  H304     1.0000 0.09330  0.43220  0.31210  Biso   1.000  H
  C456     1.0000 0.02980  0.30760  0.34710  Biso   1.000  C
  O75      1.0000 0.02030  0.27220  0.32810  Biso   1.000  O
  O76      1.0000 0.01750  0.31790  0.39400  Biso   1.000  O
  N39      1.0000 0.77340  0.46860  0.59960  Biso   1.000  N
  C457     1.0000 0.78910  0.47550  0.55110  Biso   1.000  C
  H305     1.0000 0.78700  0.50320  0.53730  Biso   1.000  H
  C458     1.0000 0.80850  0.44530  0.51880  Biso   1.000  C
  H306     1.0000 0.81860  0.45200  0.48420  Biso   1.000  H
  C459     1.0000 0.81240  0.40360  0.54060  Biso   1.000  C
  C460     1.0000 0.79650  0.39530  0.58990  Biso   1.000  C
  H307     1.0000 0.79880  0.36800  0.60500  Biso   1.000  H
  C461     1.0000 0.77640  0.42830  0.61830  Biso   1.000  C
  H308     1.0000 0.76450  0.42200  0.65210  Biso   1.000  H
  C462     1.0000 0.83580  0.37120  0.50970  Biso   1.000  C
  C463     1.0000 0.83960  0.37470  0.45470  Biso   1.000  C
  H309     1.0000 0.82460  0.39560  0.43550  Biso   1.000  H
  C464     1.0000 0.86630  0.34620  0.42840  Biso   1.000  C
  H310     1.0000 0.86860  0.34780  0.39080  Biso   1.000  H
  C465     1.0000 0.88920  0.31600  0.45510  Biso   1.000  C
  C466     1.0000 0.88300  0.31160  0.50860  Biso   1.000  C
  H311     1.0000 0.89780  0.29040  0.52750  Biso   1.000  H
  C467     1.0000 0.85460  0.33850  0.53650  Biso   1.000  C
  H312     1.0000 0.84890  0.33390  0.57320  Biso   1.000  H
  C468     1.0000 0.92250  0.28990  0.42730  Biso   1.000  C
  O77      1.0000 0.92780  0.29430  0.37790  Biso   1.000  O
  O78      1.0000 0.94420  0.26620  0.45540  Biso   1.000  O
  N40      1.0000 0.54050  0.29600  0.86140  Biso   1.000  N
  C469     1.0000 0.53700  0.30050  0.80770  Biso   1.000  C
  H313     1.0000 0.51960  0.28200  0.78790  Biso   1.000  H
  C470     1.0000 0.55960  0.33300  0.78140  Biso   1.000  C
  H314     1.0000 0.55730  0.33580  0.74390  Biso   1.000  H
  C471     1.0000 0.58380  0.35940  0.80800  Biso   1.000  C
  C472     1.0000 0.58530  0.35830  0.86380  Biso   1.000  C
  H315     1.0000 0.60060  0.37830  0.88410  Biso   1.000  H
  C473     1.0000 0.56190  0.32410  0.88800  Biso   1.000  C
  H316     1.0000 0.56210  0.32210  0.92570  Biso   1.000  H
  C474     1.0000 0.60880  0.39290  0.78040  Biso   1.000  C
  C475     1.0000 0.59680  0.41030  0.73200  Biso   1.000  C
  H317     1.0000 0.56920  0.40510  0.71940  Biso   1.000  H
  C476     1.0000 0.62210  0.43390  0.70240  Biso   1.000  C
  H318     1.0000 0.61230  0.44400  0.66900  Biso   1.000  H
  C477     1.0000 0.67580  0.42930  0.77010  Biso   1.000  C
  H319     1.0000 0.70210  0.43780  0.78460  Biso   1.000  H
  C478     1.0000 0.64960  0.40200  0.79920  Biso   1.000  C
  H320     1.0000 0.65940  0.38980  0.83140  Biso   1.000  H
  C479     1.0000 0.69220  0.46860  0.68630  Biso   1.000  C
  O79      1.0000 0.72800  0.47830  0.70700  Biso   1.000  O
  O80      1.0000 0.68190  0.47910  0.64020  Biso   1.000  O
  C480     1.0000 0.66320  0.44430  0.71920  Biso   1.000  C
  Ni21     1.0000 0.75755  0.98670  0.14040  Biso   1.000  Ni
  Ni22     1.0000 0.51475  0.24329  0.89297  Biso   1.000  Ni
  Ni23     1.0000 0.25582  0.48493  0.14029  Biso   1.000  Ni
  Ni24     1.0000 0.48623  0.75662  0.39118  Biso   1.000  Ni
  N41      1.0000 0.27480  0.97050  0.59860  Biso   1.000  N
  C481     1.0000 0.27700  0.92960  0.61550  Biso   1.000  C
  H321     1.0000 0.26470  0.92300  0.64890  Biso   1.000  H
  C482     1.0000 0.29630  0.89670  0.58710  Biso   1.000  C
  H322     1.0000 0.29630  0.86860  0.59970  Biso   1.000  H
  C483     1.0000 0.31620  0.90850  0.53720  Biso   1.000  C
  C484     1.0000 0.31460  0.94900  0.52020  Biso   1.000  C
  H323     1.0000 0.32760  0.95720  0.48780  Biso   1.000  H
  C485     1.0000 0.29330  0.97830  0.55160  Biso   1.000  C
  H324     1.0000 0.29170  0.00630  0.53850  Biso   1.000  H
  C486     1.0000 0.34070  0.87660  0.50690  Biso   1.000  C
  C487     1.0000 0.35750  0.84090  0.53260  Biso   1.000  C
  H325     1.0000 0.35000  0.83550  0.56850  Biso   1.000  H
  C488     1.0000 0.38470  0.81340  0.50670  Biso   1.000  C
  H326     1.0000 0.39820  0.79120  0.52550  Biso   1.000  H
  C489     1.0000 0.39170  0.81940  0.45240  Biso   1.000  C
  C490     1.0000 0.37430  0.85150  0.42560  Biso   1.000  C
  H327     1.0000 0.37970  0.85490  0.38860  Biso   1.000  H
  C491     1.0000 0.34720  0.88100  0.45300  Biso   1.000  C
  H328     1.0000 0.33410  0.90320  0.43400  Biso   1.000  H
  C492     1.0000 0.42460  0.79220  0.42620  Biso   1.000  C
  O81      1.0000 0.44560  0.76700  0.45310  Biso   1.000  O
  O82      1.0000 0.43110  0.79660  0.37630  Biso   1.000  O
  N42      1.0000 0.70480  0.95880  0.17250  Biso   1.000  N
  C493     1.0000 0.69910  0.96500  0.22590  Biso   1.000  C
  H329     1.0000 0.71520  0.98510  0.24490  Biso   1.000  H
  C494     1.0000 0.66830  0.94030  0.25160  Biso   1.000  C
  H330     1.0000 0.66480  0.94340  0.28900  Biso   1.000  H
  C495     1.0000 0.64350  0.91230  0.22570  Biso   1.000  C
  C496     1.0000 0.64900  0.90900  0.17200  Biso   1.000  C
  H331     1.0000 0.63170  0.89040  0.15210  Biso   1.000  H
  C497     1.0000 0.67960  0.93250  0.14610  Biso   1.000  C
  H332     1.0000 0.68270  0.92980  0.10870  Biso   1.000  H
  C498     1.0000 0.61230  0.88920  0.25590  Biso   1.000  C
  C499     1.0000 0.59590  0.89980  0.30380  Biso   1.000  C
  H333     1.0000 0.60240  0.92670  0.31790  Biso   1.000  H
  C500     1.0000 0.57070  0.87420  0.33260  Biso   1.000  C
  H334     1.0000 0.56070  0.88360  0.36630  Biso   1.000  H
  C501     1.0000 0.55910  0.83470  0.31430  Biso   1.000  C
  C502     1.0000 0.57420  0.82180  0.26500  Biso   1.000  C
  H335     1.0000 0.56560  0.79570  0.25020  Biso   1.000  H
  C503     1.0000 0.60240  0.84770  0.23730  Biso   1.000  C
  H336     1.0000 0.61510  0.83760  0.20550  Biso   1.000  H
  C504     1.0000 0.53170  0.80620  0.34690  Biso   1.000  C
  O83      1.0000 0.52170  0.81460  0.39480  Biso   1.000  O
  O84      1.0000 0.52190  0.77070  0.32690  Biso   1.000  O
  N43      1.0000 0.96890  0.77470  0.93300  Biso   1.000  N
  C505     1.0000 0.97750  0.79260  0.97980  Biso   1.000  C
  H337     1.0000 0.00560  0.79150  0.99220  Biso   1.000  H
  C506     1.0000 0.94740  0.81320  0.01220  Biso   1.000  C
  H338     1.0000 0.95500  0.82460  0.04580  Biso   1.000  H
  C507     1.0000 0.90720  0.81600  0.99390  Biso   1.000  C
  C508     1.0000 0.89580  0.79730  0.94510  Biso   1.000  C
  H339     1.0000 0.86780  0.79790  0.93220  Biso   1.000  H
  C509     1.0000 0.92930  0.77720  0.91630  Biso   1.000  C
  H340     1.0000 0.92270  0.76480  0.88290  Biso   1.000  H
  C510     1.0000 0.87570  0.84030  0.02510  Biso   1.000  C
  C511     1.0000 0.88030  0.84580  0.07910  Biso   1.000  C
  H341     1.0000 0.90180  0.83160  0.09830  Biso   1.000  H
  C512     1.0000 0.85190  0.87360  0.10560  Biso   1.000  C
  H342     1.0000 0.85580  0.87980  0.14220  Biso   1.000  H
  C513     1.0000 0.81920  0.89100  0.07890  Biso   1.000  C
  C514     1.0000 0.81280  0.88360  0.02600  Biso   1.000  C
  H343     1.0000 0.79010  0.89650  0.00770  Biso   1.000  H
  C515     1.0000 0.84090  0.85620  0.99880  Biso   1.000  C
  H344     1.0000 0.83580  0.84890  0.96270  Biso   1.000  H
  C516     1.0000 0.79280  0.92440  0.10530  Biso   1.000  C
  O85      1.0000 0.79640  0.93140  0.15550  Biso   1.000  O
  O86      1.0000 0.76760  0.94580  0.07860  Biso   1.000  O
  N44      1.0000 0.45820  0.70410  0.35800  Biso   1.000  N
  C517     1.0000 0.43000  0.68160  0.38300  Biso   1.000  C
  H345     1.0000 0.42500  0.68690  0.41970  Biso   1.000  H
  C518     1.0000 0.40800  0.65140  0.35860  Biso   1.000  C
  H346     1.0000 0.38900  0.63490  0.37900  Biso   1.000  H
  C519     1.0000 0.41190  0.64330  0.30470  Biso   1.000  C
  C520     1.0000 0.43940  0.66720  0.27840  Biso   1.000  C
  H347     1.0000 0.44310  0.66370  0.24110  Biso   1.000  H
  C521     1.0000 0.46370  0.69850  0.30670  Biso   1.000  C
  H348     1.0000 0.48380  0.71500  0.28810  Biso   1.000  H
  C522     1.0000 0.38770  0.61170  0.27460  Biso   1.000  C
  C523     1.0000 0.40090  0.59400  0.22920  Biso   1.000  C
  H349     1.0000 0.42790  0.60080  0.21540  Biso   1.000  H
  C524     1.0000 0.37450  0.56520  0.20180  Biso   1.000  C
  H350     1.0000 0.38560  0.55020  0.17230  Biso   1.000  H
  C525     1.0000 0.33440  0.55860  0.21640  Biso   1.000  C
  C526     1.0000 0.32020  0.57700  0.26490  Biso   1.000  C
  H351     1.0000 0.29330  0.56980  0.27860  Biso   1.000  H
  C527     1.0000 0.34470  0.60480  0.29170  Biso   1.000  C
  H352     1.0000 0.33380  0.61950  0.32150  Biso   1.000  H
  C528     1.0000 0.30520  0.53090  0.18410  Biso   1.000  C
  O87      1.0000 0.31530  0.51940  0.13890  Biso   1.000  O
  O88      1.0000 0.27040  0.52080  0.20400  Biso   1.000  O
  N45      1.0000 0.46880  0.27280  0.93490  Biso   1.000  N
  C529     1.0000 0.42900  0.27610  0.91600  Biso   1.000  C
  H353     1.0000 0.42310  0.26390  0.88230  Biso   1.000  H
  C530     1.0000 0.39610  0.29600  0.94290  Biso   1.000  C
  H354     1.0000 0.36900  0.29810  0.92720  Biso   1.000  H
  C531     1.0000 0.40400  0.31290  0.99360  Biso   1.000  C
  C532     1.0000 0.44620  0.30760  0.01280  Biso   1.000  C
  H355     1.0000 0.45340  0.31740  0.04730  Biso   1.000  H
  C533     1.0000 0.47550  0.28890  0.98280  Biso   1.000  C
  H356     1.0000 0.50320  0.28700  0.99690  Biso   1.000  H
  C534     1.0000 0.37190  0.33630  0.02360  Biso   1.000  C
  C535     1.0000 0.37490  0.34130  0.07780  Biso   1.000  C
  H357     1.0000 0.39570  0.32630  0.09720  Biso   1.000  H
  C536     1.0000 0.34690  0.36900  0.10530  Biso   1.000  C
  H358     1.0000 0.35020  0.37350  0.14250  Biso   1.000  H
  C537     1.0000 0.31560  0.38910  0.07850  Biso   1.000  C
  C538     1.0000 0.31150  0.38240  0.02430  Biso   1.000  C
  H359     1.0000 0.29020  0.39680  0.00510  Biso   1.000  H
  C539     1.0000 0.33820  0.35470  0.99700  Biso   1.000  C
  H360     1.0000 0.33320  0.34850  0.96050  Biso   1.000  H
  C540     1.0000 0.29020  0.42180  0.10700  Biso   1.000  C
  O89      1.0000 0.26550  0.44430  0.07930  Biso   1.000  O
  O90      1.0000 0.29430  0.42860  0.15490  Biso   1.000  O
  N46      1.0000 0.29690  0.04100  0.67340  Biso   1.000  N
  C541     1.0000 0.32540  0.06390  0.64670  Biso   1.000  C
  H361     1.0000 0.32290  0.06540  0.60900  Biso   1.000  H
  C542     1.0000 0.35800  0.08560  0.67030  Biso   1.000  C
  H362     1.0000 0.37800  0.10050  0.64940  Biso   1.000  H
  C543     1.0000 0.36100  0.08480  0.72690  Biso   1.000  C
  C544     1.0000 0.33450  0.05970  0.75150  Biso   1.000  C
  H363     1.0000 0.33710  0.05630  0.78900  Biso   1.000  H
  C545     1.0000 0.30330  0.03810  0.72520  Biso   1.000  C
  H364     1.0000 0.28540  0.02030  0.74540  Biso   1.000  H
  C546     1.0000 0.39310  0.11000  0.75490  Biso   1.000  C
  C547     1.0000 0.40180  0.15010  0.73690  Biso   1.000  C
  H365     1.0000 0.39060  0.15940  0.70380  Biso   1.000  H
  C548     1.0000 0.42740  0.17740  0.76740  Biso   1.000  C
  H366     1.0000 0.43280  0.20530  0.75580  Biso   1.000  H
  C549     1.0000 0.44410  0.16290  0.81380  Biso   1.000  C
  C550     1.0000 0.43820  0.12130  0.83010  Biso   1.000  C
  H367     1.0000 0.45200  0.11080  0.86090  Biso   1.000  H
  C551     1.0000 0.41180  0.09570  0.80060  Biso   1.000  C
  H368     1.0000 0.40670  0.06780  0.81210  Biso   1.000  H
  C552     1.0000 0.47020  0.19240  0.84710  Biso   1.000  C
  O91      1.0000 0.47970  0.22780  0.82810  Biso   1.000  O
  O92      1.0000 0.48250  0.18210  0.89400  Biso   1.000  O
  N47      1.0000 0.72660  0.03140  0.09960  Biso   1.000  N
  C553     1.0000 0.71090  0.02450  0.05110  Biso   1.000  C
  H369     1.0000 0.71300  0.99680  0.03730  Biso   1.000  H
  C554     1.0000 0.69150  0.05470  0.01880  Biso   1.000  C
  H370     1.0000 0.68140  0.04800  0.98420  Biso   1.000  H
  C555     1.0000 0.68760  0.09640  0.04060  Biso   1.000  C
  C556     1.0000 0.70350  0.10470  0.08990  Biso   1.000  C
  H371     1.0000 0.70120  0.13200  0.10500  Biso   1.000  H
  C557     1.0000 0.72360  0.07170  0.11830  Biso   1.000  C
  H372     1.0000 0.73550  0.07800  0.15210  Biso   1.000  H
  C558     1.0000 0.66420  0.12880  0.00970  Biso   1.000  C
  C559     1.0000 0.66040  0.12530  0.95470  Biso   1.000  C
  H373     1.0000 0.67540  0.10440  0.93550  Biso   1.000  H
  C560     1.0000 0.63370  0.15380  0.92840  Biso   1.000  C
  H374     1.0000 0.63140  0.15220  0.89080  Biso   1.000  H
  C561     1.0000 0.61080  0.18400  0.95510  Biso   1.000  C
  C562     1.0000 0.61700  0.18840  0.00860  Biso   1.000  C
  H375     1.0000 0.60220  0.20960  0.02750  Biso   1.000  H
  C563     1.0000 0.64540  0.16150  0.03650  Biso   1.000  C
  H376     1.0000 0.65110  0.16610  0.07320  Biso   1.000  H
  C564     1.0000 0.57750  0.21010  0.92730  Biso   1.000  C
  O93      1.0000 0.57220  0.20570  0.87790  Biso   1.000  O
  O94      1.0000 0.55580  0.23380  0.95540  Biso   1.000  O
  N48      1.0000 0.95950  0.20400  0.36140  Biso   1.000  N
  C565     1.0000 0.96300  0.19950  0.30770  Biso   1.000  C
  H377     1.0000 0.98040  0.21800  0.28790  Biso   1.000  H
  C566     1.0000 0.94040  0.16700  0.28140  Biso   1.000  C
  H378     1.0000 0.94270  0.16420  0.24390  Biso   1.000  H
  C567     1.0000 0.91620  0.14060  0.30800  Biso   1.000  C
  C568     1.0000 0.91470  0.14170  0.36380  Biso   1.000  C
  H379     1.0000 0.89940  0.12170  0.38410  Biso   1.000  H
  C569     1.0000 0.93810  0.17590  0.38800  Biso   1.000  C
  H380     1.0000 0.93790  0.17790  0.42570  Biso   1.000  H
  C570     1.0000 0.89120  0.10710  0.28040  Biso   1.000  C
  C571     1.0000 0.90320  0.08970  0.23200  Biso   1.000  C
  H381     1.0000 0.93080  0.09490  0.21940  Biso   1.000  H
  C572     1.0000 0.87790  0.06610  0.20240  Biso   1.000  C
  H382     1.0000 0.88770  0.05600  0.16900  Biso   1.000  H
  C573     1.0000 0.82420  0.07070  0.27010  Biso   1.000  C
  H383     1.0000 0.79790  0.06220  0.28460  Biso   1.000  H
  C574     1.0000 0.85040  0.09800  0.29920  Biso   1.000  C
  H384     1.0000 0.84060  0.11020  0.33140  Biso   1.000  H
  C575     1.0000 0.80780  0.03140  0.18630  Biso   1.000  C
  O95      1.0000 0.77200  0.02170  0.20700  Biso   1.000  O
  O96      1.0000 0.81810  0.02090  0.14020  Biso   1.000  O
  C576     1.0000 0.83680  0.05570  0.21920  Biso   1.000  C
  Ni25     1.0000 0.24245  0.01330  0.14040  Biso   1.000  Ni
  Ni26     1.0000 0.48525  0.75671  0.89297  Biso   1.000  Ni
  Ni27     1.0000 0.74418  0.51507  0.14029  Biso   1.000  Ni
  Ni28     1.0000 0.51377  0.24338  0.39118  Biso   1.000  Ni
  N49      1.0000 0.72520  0.02950  0.59860  Biso   1.000  N
  C577     1.0000 0.72300  0.07040  0.61550  Biso   1.000  C
  H385     1.0000 0.73530  0.07700  0.64890  Biso   1.000  H
  C578     1.0000 0.70370  0.10330  0.58710  Biso   1.000  C
  H386     1.0000 0.70370  0.13140  0.59970  Biso   1.000  H
  C579     1.0000 0.68380  0.09150  0.53720  Biso   1.000  C
  C580     1.0000 0.68540  0.05100  0.52020  Biso   1.000  C
  H387     1.0000 0.67240  0.04280  0.48780  Biso   1.000  H
  C581     1.0000 0.70670  0.02170  0.55160  Biso   1.000  C
  H388     1.0000 0.70830  0.99370  0.53850  Biso   1.000  H
  C582     1.0000 0.65930  0.12340  0.50690  Biso   1.000  C
  C583     1.0000 0.64250  0.15910  0.53260  Biso   1.000  C
  H389     1.0000 0.65000  0.16450  0.56850  Biso   1.000  H
  C584     1.0000 0.61530  0.18660  0.50670  Biso   1.000  C
  H390     1.0000 0.60180  0.20880  0.52550  Biso   1.000  H
  C585     1.0000 0.60830  0.18060  0.45240  Biso   1.000  C
  C586     1.0000 0.62570  0.14850  0.42560  Biso   1.000  C
  H391     1.0000 0.62030  0.14510  0.38860  Biso   1.000  H
  C587     1.0000 0.65280  0.11900  0.45300  Biso   1.000  C
  H392     1.0000 0.66590  0.09680  0.43400  Biso   1.000  H
  C588     1.0000 0.57540  0.20780  0.42620  Biso   1.000  C
  O97      1.0000 0.55440  0.23300  0.45310  Biso   1.000  O
  O98      1.0000 0.56890  0.20340  0.37630  Biso   1.000  O
  N50      1.0000 0.29520  0.04120  0.17250  Biso   1.000  N
  C589     1.0000 0.30090  0.03500  0.22590  Biso   1.000  C
  H393     1.0000 0.28480  0.01490  0.24490  Biso   1.000  H
  C590     1.0000 0.33170  0.05970  0.25160  Biso   1.000  C
  H394     1.0000 0.33520  0.05660  0.28900  Biso   1.000  H
  C591     1.0000 0.35650  0.08770  0.22570  Biso   1.000  C
  C592     1.0000 0.35100  0.09100  0.17200  Biso   1.000  C
  H395     1.0000 0.36830  0.10960  0.15210  Biso   1.000  H
  C593     1.0000 0.32040  0.06750  0.14610  Biso   1.000  C
  H396     1.0000 0.31730  0.07020  0.10870  Biso   1.000  H
  C594     1.0000 0.38770  0.11080  0.25590  Biso   1.000  C
  C595     1.0000 0.40410  0.10020  0.30380  Biso   1.000  C
  H397     1.0000 0.39760  0.07330  0.31790  Biso   1.000  H
  C596     1.0000 0.42930  0.12580  0.33260  Biso   1.000  C
  H398     1.0000 0.43930  0.11640  0.36630  Biso   1.000  H
  C597     1.0000 0.44090  0.16530  0.31430  Biso   1.000  C
  C598     1.0000 0.42580  0.17820  0.26500  Biso   1.000  C
  H399     1.0000 0.43440  0.20430  0.25020  Biso   1.000  H
  C599     1.0000 0.39760  0.15230  0.23730  Biso   1.000  C
  H400     1.0000 0.38490  0.16240  0.20550  Biso   1.000  H
  C600     1.0000 0.46830  0.19380  0.34690  Biso   1.000  C
  O99      1.0000 0.47830  0.18540  0.39480  Biso   1.000  O
  O100     1.0000 0.47810  0.22930  0.32690  Biso   1.000  O
  N51      1.0000 0.03110  0.22530  0.93300  Biso   1.000  N
  C601     1.0000 0.02250  0.20740  0.97980  Biso   1.000  C
  H401     1.0000 0.99440  0.20850  0.99220  Biso   1.000  H
  C602     1.0000 0.05260  0.18680  0.01220  Biso   1.000  C
  H402     1.0000 0.04500  0.17540  0.04580  Biso   1.000  H
  C603     1.0000 0.09280  0.18400  0.99390  Biso   1.000  C
  C604     1.0000 0.10420  0.20270  0.94510  Biso   1.000  C
  H403     1.0000 0.13220  0.20210  0.93220  Biso   1.000  H
  C605     1.0000 0.07070  0.22280  0.91630  Biso   1.000  C
  H404     1.0000 0.07730  0.23520  0.88290  Biso   1.000  H
  C606     1.0000 0.12430  0.15970  0.02510  Biso   1.000  C
  C607     1.0000 0.11970  0.15420  0.07910  Biso   1.000  C
  H405     1.0000 0.09820  0.16840  0.09830  Biso   1.000  H
  C608     1.0000 0.14810  0.12640  0.10560  Biso   1.000  C
  H406     1.0000 0.14420  0.12020  0.14220  Biso   1.000  H
  C609     1.0000 0.18080  0.10900  0.07890  Biso   1.000  C
  C610     1.0000 0.18720  0.11640  0.02600  Biso   1.000  C
  H407     1.0000 0.20990  0.10350  0.00770  Biso   1.000  H
  C611     1.0000 0.15910  0.14380  0.99880  Biso   1.000  C
  H408     1.0000 0.16420  0.15110  0.96270  Biso   1.000  H
  C612     1.0000 0.20720  0.07560  0.10530  Biso   1.000  C
  O101     1.0000 0.20360  0.06860  0.15550  Biso   1.000  O
  O102     1.0000 0.23240  0.05420  0.07860  Biso   1.000  O
  N52      1.0000 0.54180  0.29590  0.35800  Biso   1.000  N
  C613     1.0000 0.57000  0.31840  0.38300  Biso   1.000  C
  H409     1.0000 0.57500  0.31310  0.41970  Biso   1.000  H
  C614     1.0000 0.59200  0.34860  0.35860  Biso   1.000  C
  H410     1.0000 0.61100  0.36510  0.37900  Biso   1.000  H
  C615     1.0000 0.58810  0.35670  0.30470  Biso   1.000  C
  C616     1.0000 0.56060  0.33280  0.27840  Biso   1.000  C
  H411     1.0000 0.55690  0.33630  0.24110  Biso   1.000  H
  C617     1.0000 0.53630  0.30150  0.30670  Biso   1.000  C
  H412     1.0000 0.51620  0.28500  0.28810  Biso   1.000  H
  C618     1.0000 0.61230  0.38830  0.27460  Biso   1.000  C
  C619     1.0000 0.59910  0.40600  0.22920  Biso   1.000  C
  H413     1.0000 0.57210  0.39920  0.21540  Biso   1.000  H
  C620     1.0000 0.62550  0.43480  0.20180  Biso   1.000  C
  H414     1.0000 0.61440  0.44980  0.17230  Biso   1.000  H
  C621     1.0000 0.66560  0.44140  0.21640  Biso   1.000  C
  C622     1.0000 0.67980  0.42300  0.26490  Biso   1.000  C
  H415     1.0000 0.70670  0.43020  0.27860  Biso   1.000  H
  C623     1.0000 0.65530  0.39520  0.29170  Biso   1.000  C
  H416     1.0000 0.66620  0.38050  0.32150  Biso   1.000  H
  C624     1.0000 0.69480  0.46910  0.18410  Biso   1.000  C
  O103     1.0000 0.68470  0.48060  0.13890  Biso   1.000  O
  O104     1.0000 0.72960  0.47920  0.20400  Biso   1.000  O
  N53      1.0000 0.53120  0.72720  0.93490  Biso   1.000  N
  C625     1.0000 0.57100  0.72390  0.91600  Biso   1.000  C
  H417     1.0000 0.57690  0.73610  0.88230  Biso   1.000  H
  C626     1.0000 0.60390  0.70400  0.94290  Biso   1.000  C
  H418     1.0000 0.63100  0.70190  0.92720  Biso   1.000  H
  C627     1.0000 0.59600  0.68710  0.99360  Biso   1.000  C
  C628     1.0000 0.55380  0.69240  0.01280  Biso   1.000  C
  H419     1.0000 0.54660  0.68260  0.04730  Biso   1.000  H
  C629     1.0000 0.52450  0.71110  0.98280  Biso   1.000  C
  H420     1.0000 0.49680  0.71300  0.99690  Biso   1.000  H
  C630     1.0000 0.62810  0.66370  0.02360  Biso   1.000  C
  C631     1.0000 0.62510  0.65870  0.07780  Biso   1.000  C
  H421     1.0000 0.60430  0.67370  0.09720  Biso   1.000  H
  C632     1.0000 0.65310  0.63100  0.10530  Biso   1.000  C
  H422     1.0000 0.64980  0.62650  0.14250  Biso   1.000  H
  C633     1.0000 0.68440  0.61090  0.07850  Biso   1.000  C
  C634     1.0000 0.68850  0.61760  0.02430  Biso   1.000  C
  H423     1.0000 0.70980  0.60320  0.00510  Biso   1.000  H
  C635     1.0000 0.66180  0.64530  0.99700  Biso   1.000  C
  H424     1.0000 0.66680  0.65150  0.96050  Biso   1.000  H
  C636     1.0000 0.70980  0.57820  0.10700  Biso   1.000  C
  O105     1.0000 0.73450  0.55570  0.07930  Biso   1.000  O
  O106     1.0000 0.70570  0.57140  0.15490  Biso   1.000  O
  N54      1.0000 0.70310  0.95900  0.67340  Biso   1.000  N
  C637     1.0000 0.67460  0.93610  0.64670  Biso   1.000  C
  H425     1.0000 0.67710  0.93460  0.60900  Biso   1.000  H
  C638     1.0000 0.64200  0.91440  0.67030  Biso   1.000  C
  H426     1.0000 0.62200  0.89950  0.64940  Biso   1.000  H
  C639     1.0000 0.63900  0.91520  0.72690  Biso   1.000  C
  C640     1.0000 0.66550  0.94030  0.75150  Biso   1.000  C
  H427     1.0000 0.66290  0.94370  0.78900  Biso   1.000  H
  C641     1.0000 0.69670  0.96190  0.72520  Biso   1.000  C
  H428     1.0000 0.71460  0.97970  0.74540  Biso   1.000  H
  C642     1.0000 0.60690  0.89000  0.75490  Biso   1.000  C
  C643     1.0000 0.59820  0.84990  0.73690  Biso   1.000  C
  H429     1.0000 0.60940  0.84060  0.70380  Biso   1.000  H
  C644     1.0000 0.57260  0.82260  0.76740  Biso   1.000  C
  H430     1.0000 0.56720  0.79470  0.75580  Biso   1.000  H
  C645     1.0000 0.55590  0.83710  0.81380  Biso   1.000  C
  C646     1.0000 0.56180  0.87870  0.83010  Biso   1.000  C
  H431     1.0000 0.54800  0.88920  0.86090  Biso   1.000  H
  C647     1.0000 0.58820  0.90430  0.80060  Biso   1.000  C
  H432     1.0000 0.59330  0.93220  0.81210  Biso   1.000  H
  C648     1.0000 0.52980  0.80760  0.84710  Biso   1.000  C
  O107     1.0000 0.52030  0.77220  0.82810  Biso   1.000  O
  O108     1.0000 0.51750  0.81790  0.89400  Biso   1.000  O
  N55      1.0000 0.27340  0.96860  0.09960  Biso   1.000  N
  C649     1.0000 0.28910  0.97550  0.05110  Biso   1.000  C
  H433     1.0000 0.28700  0.00320  0.03730  Biso   1.000  H
  C650     1.0000 0.30850  0.94530  0.01880  Biso   1.000  C
  H434     1.0000 0.31860  0.95200  0.98420  Biso   1.000  H
  C651     1.0000 0.31240  0.90360  0.04060  Biso   1.000  C
  C652     1.0000 0.29650  0.89530  0.08990  Biso   1.000  C
  H435     1.0000 0.29880  0.86800  0.10500  Biso   1.000  H
  C653     1.0000 0.27640  0.92830  0.11830  Biso   1.000  C
  H436     1.0000 0.26450  0.92200  0.15210  Biso   1.000  H
  C654     1.0000 0.33580  0.87120  0.00970  Biso   1.000  C
  C655     1.0000 0.33960  0.87470  0.95470  Biso   1.000  C
  H437     1.0000 0.32460  0.89560  0.93550  Biso   1.000  H
  C656     1.0000 0.36630  0.84620  0.92840  Biso   1.000  C
  H438     1.0000 0.36860  0.84780  0.89080  Biso   1.000  H
  C657     1.0000 0.38920  0.81600  0.95510  Biso   1.000  C
  C658     1.0000 0.38300  0.81160  0.00860  Biso   1.000  C
  H439     1.0000 0.39780  0.79040  0.02750  Biso   1.000  H
  C659     1.0000 0.35460  0.83850  0.03650  Biso   1.000  C
  H440     1.0000 0.34890  0.83390  0.07320  Biso   1.000  H
  C660     1.0000 0.42250  0.78990  0.92730  Biso   1.000  C
  O109     1.0000 0.42780  0.79430  0.87790  Biso   1.000  O
  O110     1.0000 0.44420  0.76620  0.95540  Biso   1.000  O
  N56      1.0000 0.04050  0.79600  0.36140  Biso   1.000  N
  C661     1.0000 0.03700  0.80050  0.30770  Biso   1.000  C
  H441     1.0000 0.01960  0.78200  0.28790  Biso   1.000  H
  C662     1.0000 0.05960  0.83300  0.28140  Biso   1.000  C
  H442     1.0000 0.05730  0.83580  0.24390  Biso   1.000  H
  C663     1.0000 0.08380  0.85940  0.30800  Biso   1.000  C
  C664     1.0000 0.08530  0.85830  0.36380  Biso   1.000  C
  H443     1.0000 0.10060  0.87830  0.38410  Biso   1.000  H
  C665     1.0000 0.06190  0.82410  0.38800  Biso   1.000  C
  H444     1.0000 0.06210  0.82210  0.42570  Biso   1.000  H
  C666     1.0000 0.10880  0.89290  0.28040  Biso   1.000  C
  C667     1.0000 0.09680  0.91030  0.23200  Biso   1.000  C
  H445     1.0000 0.06920  0.90510  0.21940  Biso   1.000  H
  C668     1.0000 0.12210  0.93390  0.20240  Biso   1.000  C
  H446     1.0000 0.11230  0.94400  0.16900  Biso   1.000  H
  C669     1.0000 0.17580  0.92930  0.27010  Biso   1.000  C
  H447     1.0000 0.20210  0.93780  0.28460  Biso   1.000  H
  C670     1.0000 0.14960  0.90200  0.29920  Biso   1.000  C
  H448     1.0000 0.15940  0.88980  0.33140  Biso   1.000  H
  C671     1.0000 0.19220  0.96860  0.18630  Biso   1.000  C
  O111     1.0000 0.22800  0.97830  0.20700  Biso   1.000  O
  O112     1.0000 0.18190  0.97910  0.14020  Biso   1.000  O
  C672     1.0000 0.16320  0.94430  0.21920  Biso   1.000  C
  Ni29     1.0000 0.25755  0.48670  0.64040  Biso   1.000  Ni
  Ni30     1.0000 0.01475  0.74329  0.39297  Biso   1.000  Ni
  Ni31     1.0000 0.75582  0.98493  0.64029  Biso   1.000  Ni
  Ni32     1.0000 0.98623  0.25662  0.89118  Biso   1.000  Ni
  N57      1.0000 0.77480  0.47050  0.09860  Biso   1.000  N
  C673     1.0000 0.77700  0.42960  0.11550  Biso   1.000  C
  H449     1.0000 0.76470  0.42300  0.14890  Biso   1.000  H
  C674     1.0000 0.79630  0.39670  0.08710  Biso   1.000  C
  H450     1.0000 0.79630  0.36860  0.09970  Biso   1.000  H
  C675     1.0000 0.81620  0.40850  0.03720  Biso   1.000  C
  C676     1.0000 0.81460  0.44900  0.02020  Biso   1.000  C
  H451     1.0000 0.82760  0.45720  0.98780  Biso   1.000  H
  C677     1.0000 0.79330  0.47830  0.05160  Biso   1.000  C
  H452     1.0000 0.79170  0.50630  0.03850  Biso   1.000  H
  C678     1.0000 0.84070  0.37660  0.00690  Biso   1.000  C
  C679     1.0000 0.85750  0.34090  0.03260  Biso   1.000  C
  H453     1.0000 0.85000  0.33550  0.06850  Biso   1.000  H
  C680     1.0000 0.88470  0.31340  0.00670  Biso   1.000  C
  H454     1.0000 0.89820  0.29120  0.02550  Biso   1.000  H
  C681     1.0000 0.89170  0.31940  0.95240  Biso   1.000  C
  C682     1.0000 0.87430  0.35150  0.92560  Biso   1.000  C
  H455     1.0000 0.87970  0.35490  0.88860  Biso   1.000  H
  C683     1.0000 0.84720  0.38100  0.95300  Biso   1.000  C
  H456     1.0000 0.83410  0.40320  0.93400  Biso   1.000  H
  C684     1.0000 0.92460  0.29220  0.92620  Biso   1.000  C
  O113     1.0000 0.94560  0.26700  0.95310  Biso   1.000  O
  O114     1.0000 0.93110  0.29660  0.87630  Biso   1.000  O
  N58      1.0000 0.20480  0.45880  0.67250  Biso   1.000  N
  C685     1.0000 0.19910  0.46500  0.72590  Biso   1.000  C
  H457     1.0000 0.21520  0.48510  0.74490  Biso   1.000  H
  C686     1.0000 0.16830  0.44030  0.75160  Biso   1.000  C
  H458     1.0000 0.16480  0.44340  0.78900  Biso   1.000  H
  C687     1.0000 0.14350  0.41230  0.72570  Biso   1.000  C
  C688     1.0000 0.14900  0.40900  0.67200  Biso   1.000  C
  H459     1.0000 0.13170  0.39040  0.65210  Biso   1.000  H
  C689     1.0000 0.17960  0.43250  0.64610  Biso   1.000  C
  H460     1.0000 0.18270  0.42980  0.60870  Biso   1.000  H
  C690     1.0000 0.11230  0.38920  0.75590  Biso   1.000  C
  C691     1.0000 0.09590  0.39980  0.80380  Biso   1.000  C
  H461     1.0000 0.10240  0.42670  0.81790  Biso   1.000  H
  C692     1.0000 0.07070  0.37420  0.83260  Biso   1.000  C
  H462     1.0000 0.06070  0.38360  0.86630  Biso   1.000  H
  C693     1.0000 0.05910  0.33470  0.81430  Biso   1.000  C
  C694     1.0000 0.07420  0.32180  0.76500  Biso   1.000  C
  H463     1.0000 0.06560  0.29570  0.75020  Biso   1.000  H
  C695     1.0000 0.10240  0.34770  0.73730  Biso   1.000  C
  H464     1.0000 0.11510  0.33760  0.70550  Biso   1.000  H
  C696     1.0000 0.03170  0.30620  0.84690  Biso   1.000  C
  O115     1.0000 0.02170  0.31460  0.89480  Biso   1.000  O
  O116     1.0000 0.02190  0.27070  0.82690  Biso   1.000  O
  N59      1.0000 0.46890  0.27470  0.43300  Biso   1.000  N
  C697     1.0000 0.47750  0.29260  0.47980  Biso   1.000  C
  H465     1.0000 0.50560  0.29150  0.49220  Biso   1.000  H
  C698     1.0000 0.44740  0.31320  0.51220  Biso   1.000  C
  H466     1.0000 0.45500  0.32460  0.54580  Biso   1.000  H
  C699     1.0000 0.40720  0.31600  0.49390  Biso   1.000  C
  C700     1.0000 0.39580  0.29730  0.44510  Biso   1.000  C
  H467     1.0000 0.36780  0.29790  0.43220  Biso   1.000  H
  C701     1.0000 0.42930  0.27720  0.41630  Biso   1.000  C
  H468     1.0000 0.42270  0.26480  0.38290  Biso   1.000  H
  C702     1.0000 0.37570  0.34030  0.52510  Biso   1.000  C
  C703     1.0000 0.38030  0.34580  0.57910  Biso   1.000  C
  H469     1.0000 0.40180  0.33160  0.59830  Biso   1.000  H
  C704     1.0000 0.35190  0.37360  0.60560  Biso   1.000  C
  H470     1.0000 0.35580  0.37980  0.64220  Biso   1.000  H
  C705     1.0000 0.31920  0.39100  0.57890  Biso   1.000  C
  C706     1.0000 0.31280  0.38360  0.52600  Biso   1.000  C
  H471     1.0000 0.29010  0.39650  0.50770  Biso   1.000  H
  C707     1.0000 0.34090  0.35620  0.49880  Biso   1.000  C
  H472     1.0000 0.33580  0.34890  0.46270  Biso   1.000  H
  C708     1.0000 0.29280  0.42440  0.60530  Biso   1.000  C
  O117     1.0000 0.29640  0.43140  0.65550  Biso   1.000  O
  O118     1.0000 0.26760  0.44580  0.57860  Biso   1.000  O
  N60      1.0000 0.95820  0.20410  0.85800  Biso   1.000  N
  C709     1.0000 0.93000  0.18160  0.88300  Biso   1.000  C
  H473     1.0000 0.92500  0.18690  0.91970  Biso   1.000  H
  C710     1.0000 0.90800  0.15140  0.85860  Biso   1.000  C
  H474     1.0000 0.88900  0.13490  0.87900  Biso   1.000  H
  C711     1.0000 0.91190  0.14330  0.80470  Biso   1.000  C
  C712     1.0000 0.93940  0.16720  0.77840  Biso   1.000  C
  H475     1.0000 0.94310  0.16370  0.74110  Biso   1.000  H
  C713     1.0000 0.96370  0.19850  0.80670  Biso   1.000  C
  H476     1.0000 0.98380  0.21500  0.78810  Biso   1.000  H
  C714     1.0000 0.88770  0.11170  0.77460  Biso   1.000  C
  C715     1.0000 0.90090  0.09400  0.72920  Biso   1.000  C
  H477     1.0000 0.92790  0.10080  0.71540  Biso   1.000  H
  C716     1.0000 0.87450  0.06520  0.70180  Biso   1.000  C
  H478     1.0000 0.88560  0.05020  0.67230  Biso   1.000  H
  C717     1.0000 0.83440  0.05860  0.71640  Biso   1.000  C
  C718     1.0000 0.82020  0.07700  0.76490  Biso   1.000  C
  H479     1.0000 0.79330  0.06980  0.77860  Biso   1.000  H
  C719     1.0000 0.84470  0.10480  0.79170  Biso   1.000  C
  H480     1.0000 0.83380  0.11950  0.82150  Biso   1.000  H
  C720     1.0000 0.80520  0.03090  0.68410  Biso   1.000  C
  O119     1.0000 0.81530  0.01940  0.63890  Biso   1.000  O
  O120     1.0000 0.77040  0.02080  0.70400  Biso   1.000  O
  N61      1.0000 0.96880  0.77280  0.43490  Biso   1.000  N
  C721     1.0000 0.92900  0.77610  0.41600  Biso   1.000  C
  H481     1.0000 0.92310  0.76390  0.38230  Biso   1.000  H
  C722     1.0000 0.89610  0.79600  0.44290  Biso   1.000  C
  H482     1.0000 0.86900  0.79810  0.42720  Biso   1.000  H
  C723     1.0000 0.90400  0.81290  0.49360  Biso   1.000  C
  C724     1.0000 0.94620  0.80760  0.51280  Biso   1.000  C
  H483     1.0000 0.95340  0.81740  0.54730  Biso   1.000  H
  C725     1.0000 0.97550  0.78890  0.48280  Biso   1.000  C
  H484     1.0000 0.00320  0.78700  0.49690  Biso   1.000  H
  C726     1.0000 0.87190  0.83630  0.52360  Biso   1.000  C
  C727     1.0000 0.87490  0.84130  0.57780  Biso   1.000  C
  H485     1.0000 0.89570  0.82630  0.59720  Biso   1.000  H
  C728     1.0000 0.84690  0.86900  0.60530  Biso   1.000  C
  H486     1.0000 0.85020  0.87350  0.64250  Biso   1.000  H
  C729     1.0000 0.81560  0.88910  0.57850  Biso   1.000  C
  C730     1.0000 0.81150  0.88240  0.52430  Biso   1.000  C
  H487     1.0000 0.79020  0.89680  0.50510  Biso   1.000  H
  C731     1.0000 0.83820  0.85470  0.49700  Biso   1.000  C
  H488     1.0000 0.83320  0.84850  0.46050  Biso   1.000  H
  C732     1.0000 0.79020  0.92180  0.60700  Biso   1.000  C
  O121     1.0000 0.76550  0.94430  0.57930  Biso   1.000  O
  O122     1.0000 0.79430  0.92860  0.65490  Biso   1.000  O
  N62      1.0000 0.79690  0.54100  0.17340  Biso   1.000  N
  C733     1.0000 0.82540  0.56390  0.14670  Biso   1.000  C
  H489     1.0000 0.82290  0.56540  0.10900  Biso   1.000  H
  C734     1.0000 0.85800  0.58560  0.17030  Biso   1.000  C
  H490     1.0000 0.87800  0.60050  0.14940  Biso   1.000  H
  C735     1.0000 0.86100  0.58480  0.22690  Biso   1.000  C
  C736     1.0000 0.83450  0.55970  0.25150  Biso   1.000  C
  H491     1.0000 0.83710  0.55630  0.28900  Biso   1.000  H
  C737     1.0000 0.80330  0.53810  0.22520  Biso   1.000  C
  H492     1.0000 0.78540  0.52030  0.24540  Biso   1.000  H
  C738     1.0000 0.89310  0.61000  0.25490  Biso   1.000  C
  C739     1.0000 0.90180  0.65010  0.23690  Biso   1.000  C
  H493     1.0000 0.89060  0.65940  0.20380  Biso   1.000  H
  C740     1.0000 0.92740  0.67740  0.26740  Biso   1.000  C
  H494     1.0000 0.93280  0.70530  0.25580  Biso   1.000  H
  C741     1.0000 0.94410  0.66290  0.31380  Biso   1.000  C
  C742     1.0000 0.93820  0.62130  0.33010  Biso   1.000  C
  H495     1.0000 0.95200  0.61080  0.36090  Biso   1.000  H
  C743     1.0000 0.91180  0.59570  0.30060  Biso   1.000  C
  H496     1.0000 0.90670  0.56780  0.31210  Biso   1.000  H
  C744     1.0000 0.97020  0.69240  0.34710  Biso   1.000  C
  O123     1.0000 0.97970  0.72780  0.32810  Biso   1.000  O
  O124     1.0000 0.98250  0.68210  0.39400  Biso   1.000  O
  N63      1.0000 0.22660  0.53140  0.59960  Biso   1.000  N
  C745     1.0000 0.21090  0.52450  0.55110  Biso   1.000  C
  H497     1.0000 0.21300  0.49680  0.53730  Biso   1.000  H
  C746     1.0000 0.19150  0.55470  0.51880  Biso   1.000  C
  H498     1.0000 0.18140  0.54800  0.48420  Biso   1.000  H
  C747     1.0000 0.18760  0.59640  0.54060  Biso   1.000  C
  C748     1.0000 0.20350  0.60470  0.58990  Biso   1.000  C
  H499     1.0000 0.20120  0.63200  0.60500  Biso   1.000  H
  C749     1.0000 0.22360  0.57170  0.61830  Biso   1.000  C
  H500     1.0000 0.23550  0.57800  0.65210  Biso   1.000  H
  C750     1.0000 0.16420  0.62880  0.50970  Biso   1.000  C
  C751     1.0000 0.16040  0.62530  0.45470  Biso   1.000  C
  H501     1.0000 0.17540  0.60440  0.43550  Biso   1.000  H
  C752     1.0000 0.13370  0.65380  0.42840  Biso   1.000  C
  H502     1.0000 0.13140  0.65220  0.39080  Biso   1.000  H
  C753     1.0000 0.11080  0.68400  0.45510  Biso   1.000  C
  C754     1.0000 0.11700  0.68840  0.50860  Biso   1.000  C
  H503     1.0000 0.10220  0.70960  0.52750  Biso   1.000  H
  C755     1.0000 0.14540  0.66150  0.53650  Biso   1.000  C
  H504     1.0000 0.15110  0.66610  0.57320  Biso   1.000  H
  C756     1.0000 0.07750  0.71010  0.42730  Biso   1.000  C
  O125     1.0000 0.07220  0.70570  0.37790  Biso   1.000  O
  O126     1.0000 0.05580  0.73380  0.45540  Biso   1.000  O
  N64      1.0000 0.45950  0.70400  0.86140  Biso   1.000  N
  C757     1.0000 0.46300  0.69950  0.80770  Biso   1.000  C
  H505     1.0000 0.48040  0.71800  0.78790  Biso   1.000  H
  C758     1.0000 0.44040  0.66700  0.78140  Biso   1.000  C
  H506     1.0000 0.44270  0.66420  0.74390  Biso   1.000  H
  C759     1.0000 0.41620  0.64060  0.80800  Biso   1.000  C
  C760     1.0000 0.41470  0.64170  0.86380  Biso   1.000  C
  H507     1.0000 0.39940  0.62170  0.88410  Biso   1.000  H
  C761     1.0000 0.43810  0.67590  0.88800  Biso   1.000  C
  H508     1.0000 0.43790  0.67790  0.92570  Biso   1.000  H
  C762     1.0000 0.39120  0.60710  0.78040  Biso   1.000  C
  C763     1.0000 0.40320  0.58970  0.73200  Biso   1.000  C
  H509     1.0000 0.43080  0.59490  0.71940  Biso   1.000  H
  C764     1.0000 0.37790  0.56610  0.70240  Biso   1.000  C
  H510     1.0000 0.38770  0.55600  0.66900  Biso   1.000  H
  C765     1.0000 0.32420  0.57070  0.77010  Biso   1.000  C
  H511     1.0000 0.29790  0.56220  0.78460  Biso   1.000  H
  C766     1.0000 0.35040  0.59800  0.79920  Biso   1.000  C
  H512     1.0000 0.34060  0.61020  0.83140  Biso   1.000  H
  C767     1.0000 0.30780  0.53140  0.68630  Biso   1.000  C
  O127     1.0000 0.27200  0.52170  0.70700  Biso   1.000  O
  O128     1.0000 0.31810  0.52090  0.64020  Biso   1.000  O
  C768     1.0000 0.33680  0.55570  0.71920  Biso   1.000  C
