data_image0
_cell_length_a       28.5554
_cell_length_b       28.5554
_cell_length_c       19.2155
_cell_angle_alpha    90
_cell_angle_beta     90
_cell_angle_gamma    120

_symmetry_space_group_name_H-M    "P 1"
_symmetry_int_tables_number       1

loop_
  _symmetry_equiv_pos_as_xyz
  'x, y, z'

loop_
  _atom_site_label
  _atom_site_occupancy
  _atom_site_fract_x
  _atom_site_fract_y
  _atom_site_fract_z
  _atom_site_thermal_displace_type
  _atom_site_B_iso_or_equiv
  _atom_site_type_symbol
  Mn1      1.0000 0.02029  0.76417  0.08077  Biso   1.000  Mn
  Mn2      1.0000 0.73421  0.75516  0.85156  Biso   1.000  Mn
  Fe1      1.0000 0.82273  0.64379  0.96550  Biso   1.000  Fe
  Br1      1.0000 0.09985  0.02679  0.23870  Biso   1.000  Br
  Br2      1.0000 0.21466  0.67239  0.03075  Biso   1.000  Br
  Br3      1.0000 0.92307  0.02320  0.71030  Biso   1.000  Br
  Br4      1.0000 0.44776  0.66195  0.89118  Biso   1.000  Br
  N1       1.0000 0.97852  0.77141  0.16167  Biso   1.000  N
  N2       1.0000 0.00295  0.68976  0.11185  Biso   1.000  N
  N3       1.0000 0.78410  0.76467  0.77133  Biso   1.000  N
  N4       1.0000 0.67853  0.67983  0.82094  Biso   1.000  N
  N5       1.0000 0.93949  0.72441  0.01933  Biso   1.000  N
  N6       1.0000 0.77838  0.71787  0.91296  Biso   1.000  N
  N7       1.0000 0.70927  0.55477  0.91854  Biso   1.000  N
  N8       1.0000 0.85193  0.55808  0.01185  Biso   1.000  N
  N9       1.0000 0.76350  0.63219  0.10635  Biso   1.000  N
  N10      1.0000 0.87419  0.63874  0.82450  Biso   1.000  N
  O1       1.0000 0.04408  0.83616  0.05466  Biso   1.000  O
  O2       1.0000 0.06243  0.76014  0.00698  Biso   1.000  O
  O3       1.0000 0.78100  0.82583  0.88133  Biso   1.000  O
  O4       1.0000 0.68699  0.74974  0.92437  Biso   1.000  O
  C1       1.0000 0.89613  0.69719  0.99843  Biso   1.000  C
  C2       1.0000 0.79775  0.69350  0.93306  Biso   1.000  C
  C3       1.0000 0.75201  0.58743  0.93527  Biso   1.000  C
  C4       1.0000 0.84067  0.58978  0.99578  Biso   1.000  C
  C5       1.0000 0.78840  0.63885  0.05628  Biso   1.000  C
  C6       1.0000 0.85461  0.64274  0.87477  Biso   1.000  C
  C7       1.0000 0.05920  0.87654  0.09941  Biso   1.000  C
  C8       1.0000 0.09973  0.92853  0.07951  Biso   1.000  C
  H1       1.0000 0.11840  0.93330  0.03680  Biso   1.000  H
  C9       1.0000 0.11280  0.97271  0.12103  Biso   1.000  C
  H2       1.0000 0.14040  0.00770  0.10730  Biso   1.000  H
  C10      1.0000 0.08494  0.96546  0.18379  Biso   1.000  C
  C11      1.0000 0.04699  0.91554  0.20612  Biso   1.000  C
  H3       1.0000 0.02920  0.91140  0.24940  Biso   1.000  H
  C12      1.0000 0.03408  0.86973  0.16478  Biso   1.000  C
  C13      1.0000 0.99211  0.81784  0.18885  Biso   1.000  C
  H4       1.0000 0.97240  0.81770  0.22880  Biso   1.000  H
  C14      1.0000 0.93051  0.72381  0.19109  Biso   1.000  C
  H5       1.0000 0.90080  0.71030  0.15660  Biso   1.000  H
  H6       1.0000 0.91860  0.73520  0.23290  Biso   1.000  H
  C15      1.0000 0.94019  0.67723  0.21121  Biso   1.000  C
  C16      1.0000 0.95120  0.65282  0.14614  Biso   1.000  C
  H7       1.0000 0.95120  0.61940  0.15960  Biso   1.000  H
  H8       1.0000 0.92140  0.64270  0.11240  Biso   1.000  H
  C17      1.0000 0.03770  0.67388  0.10465  Biso   1.000  C
  H9       1.0000 0.03090  0.64220  0.12930  Biso   1.000  H
  C18      1.0000 0.08607  0.69974  0.06262  Biso   1.000  C
  C19      1.0000 0.12145  0.67893  0.06630  Biso   1.000  C
  H10      1.0000 0.11480  0.65090  0.09840  Biso   1.000  H
  C20      1.0000 0.16571  0.69940  0.02320  Biso   1.000  C
  C21      1.0000 0.17524  0.73863  0.97418  Biso   1.000  C
  H11      1.0000 0.20560  0.75160  0.94400  Biso   1.000  H
  C22      1.0000 0.14037  0.75874  0.96948  Biso   1.000  C
  H12      1.0000 0.14680  0.78550  0.93550  Biso   1.000  H
  C23      1.0000 0.09536  0.74041  0.01401  Biso   1.000  C
  C24      1.0000 0.88699  0.63318  0.24280  Biso   1.000  C
  H13      1.0000 0.88950  0.60070  0.25150  Biso   1.000  H
  H14      1.0000 0.85730  0.62450  0.21030  Biso   1.000  H
  H15      1.0000 0.88020  0.64620  0.28670  Biso   1.000  H
  C25      1.0000 0.98676  0.69625  0.26296  Biso   1.000  C
  H16      1.0000 0.01910  0.72730  0.24360  Biso   1.000  H
  H17      1.0000 0.99420  0.66680  0.27190  Biso   1.000  H
  H18      1.0000 0.97690  0.70680  0.30660  Biso   1.000  H
  C26      1.0000 0.80839  0.86773  0.83869  Biso   1.000  C
  C27      1.0000 0.82247  0.91985  0.86422  Biso   1.000  C
  H19      1.0000 0.80910  0.92330  0.90800  Biso   1.000  H
  C28      1.0000 0.85554  0.96543  0.82570  Biso   1.000  C
  H20      1.0000 0.86460  0.00020  0.84260  Biso   1.000  H
  C29      1.0000 0.87552  0.96014  0.76203  Biso   1.000  C
  C30      1.0000 0.86178  0.91042  0.73632  Biso   1.000  C
  H21      1.0000 0.87550  0.90760  0.69250  Biso   1.000  H
  C31      1.0000 0.82748  0.86321  0.77390  Biso   1.000  C
  C32      1.0000 0.81726  0.81161  0.74601  Biso   1.000  C
  H22      1.0000 0.83680  0.81260  0.70550  Biso   1.000  H
  C33      1.0000 0.78581  0.71819  0.74100  Biso   1.000  C
  H23      1.0000 0.80310  0.70540  0.77480  Biso   1.000  H
  H24      1.0000 0.80880  0.73040  0.69880  Biso   1.000  H
  C34      1.0000 0.73035  0.67074  0.72135  Biso   1.000  C
  C35      1.0000 0.69534  0.64487  0.78560  Biso   1.000  C
  H25      1.0000 0.66260  0.61090  0.77160  Biso   1.000  H
  H26      1.0000 0.71580  0.63540  0.81890  Biso   1.000  H
  C36      1.0000 0.62773  0.66128  0.82956  Biso   1.000  C
  H27      1.0000 0.60370  0.62740  0.80870  Biso   1.000  H
  C37      1.0000 0.60395  0.68745  0.86833  Biso   1.000  C
  C38      1.0000 0.54756  0.66668  0.86296  Biso   1.000  C
  H28      1.0000 0.52660  0.63760  0.83210  Biso   1.000  H
  C39      1.0000 0.52321  0.68851  0.90242  Biso   1.000  C
  C40      1.0000 0.55253  0.73018  0.94864  Biso   1.000  C
  H29      1.0000 0.53490  0.74480  0.97550  Biso   1.000  H
  C41      1.0000 0.60748  0.75056  0.95563  Biso   1.000  C
  H30      1.0000 0.62740  0.77880  0.98800  Biso   1.000  H
  C42      1.0000 0.63407  0.73008  0.91545  Biso   1.000  C
  C43      1.0000 0.74055  0.62764  0.68770  Biso   1.000  C
  H31      1.0000 0.76230  0.64250  0.64550  Biso   1.000  H
  H32      1.0000 0.70590  0.59580  0.67560  Biso   1.000  H
  H33      1.0000 0.75990  0.61720  0.72060  Biso   1.000  H
  C44      1.0000 0.70103  0.68903  0.67047  Biso   1.000  C
  H34      1.0000 0.69520  0.71660  0.69280  Biso   1.000  H
  H35      1.0000 0.66610  0.65790  0.65760  Biso   1.000  H
  H36      1.0000 0.72310  0.70430  0.62860  Biso   1.000  H
  Mn3      1.0000 0.68669  0.59049  0.18345  Biso   1.000  Mn
  Fe2      1.0000 0.48742  0.51027  0.29513  Biso   1.000  Fe
  Br5      1.0000 0.76744  0.40766  0.02765  Biso   1.000  Br
  Br6      1.0000 0.88308  0.87547  0.23211  Biso   1.000  Br
  N11      1.0000 0.64530  0.54149  0.10259  Biso   1.000  N
  N12      1.0000 0.66928  0.64747  0.15276  Biso   1.000  N
  N13      1.0000 0.60545  0.54874  0.24450  Biso   1.000  N
  N14      1.0000 0.37286  0.48461  0.33982  Biso   1.000  N
  N15      1.0000 0.51546  0.62426  0.24669  Biso   1.000  N
  O5       1.0000 0.71081  0.54286  0.21032  Biso   1.000  O
  O6       1.0000 0.72791  0.63627  0.25780  Biso   1.000  O
  C45      1.0000 0.56161  0.53199  0.26396  Biso   1.000  C
  C46      1.0000 0.41579  0.49490  0.32449  Biso   1.000  C
  C47      1.0000 0.50417  0.58191  0.26382  Biso   1.000  C
  C48      1.0000 0.72610  0.51733  0.16610  Biso   1.000  C
  C49      1.0000 0.76685  0.50551  0.18610  Biso   1.000  C
  H37      1.0000 0.78540  0.51910  0.22890  Biso   1.000  H
  C50      1.0000 0.77987  0.47485  0.14450  Biso   1.000  C
  H38      1.0000 0.80770  0.46770  0.15800  Biso   1.000  H
  C51      1.0000 0.75221  0.45420  0.08250  Biso   1.000  C
  C52      1.0000 0.71392  0.46581  0.05934  Biso   1.000  C
  H39      1.0000 0.69620  0.45180  0.01620  Biso   1.000  H
  C53      1.0000 0.70108  0.49881  0.10028  Biso   1.000  C
  C54      1.0000 0.65889  0.50843  0.07531  Biso   1.000  C
  H40      1.0000 0.63940  0.48880  0.03530  Biso   1.000  H
  C55      1.0000 0.59734  0.54116  0.07298  Biso   1.000  C
  H41      1.0000 0.56750  0.52480  0.10730  Biso   1.000  H
  H42      1.0000 0.58560  0.51800  0.03090  Biso   1.000  H
  C56      1.0000 0.60723  0.59713  0.05349  Biso   1.000  C
  C57      1.0000 0.61730  0.63265  0.11785  Biso   1.000  C
  H43      1.0000 0.61740  0.66610  0.10380  Biso   1.000  H
  H44      1.0000 0.58730  0.61310  0.15130  Biso   1.000  H
  C58      1.0000 0.70328  0.69799  0.16157  Biso   1.000  C
  H45      1.0000 0.69550  0.72290  0.13900  Biso   1.000  H
  C59      1.0000 0.75220  0.72050  0.20257  Biso   1.000  C
  C60      1.0000 0.78826  0.77649  0.19778  Biso   1.000  C
  H46      1.0000 0.78190  0.79780  0.16530  Biso   1.000  H
  C61      1.0000 0.83275  0.80006  0.24036  Biso   1.000  C
  C62      1.0000 0.84262  0.76978  0.28911  Biso   1.000  C
  H47      1.0000 0.87360  0.78670  0.31820  Biso   1.000  H
  C63      1.0000 0.80707  0.71524  0.29466  Biso   1.000  C
  H48      1.0000 0.81340  0.69480  0.32850  Biso   1.000  H
  C64      1.0000 0.76157  0.68921  0.25117  Biso   1.000  C
  C65      1.0000 0.55335  0.58785  0.02160  Biso   1.000  C
  H49      1.0000 0.54560  0.56660  0.97880  Biso   1.000  H
  H50      1.0000 0.55640  0.62280  0.01080  Biso   1.000  H
  H51      1.0000 0.52390  0.56830  0.05500  Biso   1.000  H
  C66      1.0000 0.65364  0.62550  0.00130  Biso   1.000  C
  H52      1.0000 0.68650  0.62790  0.02070  Biso   1.000  H
  H53      1.0000 0.66000  0.66200  0.99190  Biso   1.000  H
  H54      1.0000 0.64410  0.60480  0.95790  Biso   1.000  H
  Mn4      1.0000 0.40196  0.31215  0.41267  Biso   1.000  Mn
  Br7      1.0000 0.59084  0.23394  0.55612  Biso   1.000  Br
  Br8      1.0000 0.11447  0.12077  0.37166  Biso   1.000  Br
  N16      1.0000 0.45209  0.35305  0.49274  Biso   1.000  N
  N17      1.0000 0.34631  0.33138  0.44390  Biso   1.000  N
  N18      1.0000 0.43075  0.46027  0.15356  Biso   1.000  N
  N19      1.0000 0.44522  0.39288  0.35066  Biso   1.000  N
  O7       1.0000 0.44926  0.28850  0.38376  Biso   1.000  O
  O8       1.0000 0.35436  0.26925  0.34080  Biso   1.000  O
  C67      1.0000 0.45449  0.47934  0.20446  Biso   1.000  C
  C68      1.0000 0.46373  0.43650  0.32901  Biso   1.000  C
  C69      1.0000 0.47658  0.27413  0.42564  Biso   1.000  C
  C70      1.0000 0.49043  0.23584  0.40167  Biso   1.000  C
  H55      1.0000 0.47660  0.21810  0.35847  Biso   1.000  H
  C71      1.0000 0.52377  0.22404  0.44027  Biso   1.000  C
  H56      1.0000 0.53350  0.19880  0.42327  Biso   1.000  H
  C72      1.0000 0.54315  0.24912  0.50434  Biso   1.000  C
  C73      1.0000 0.52939  0.28523  0.52987  Biso   1.000  C
  H57      1.0000 0.54290  0.30190  0.57377  Biso   1.000  H
  C74      1.0000 0.49518  0.29778  0.49135  Biso   1.000  C
  C75      1.0000 0.48489  0.33897  0.51874  Biso   1.000  C
  H58      1.0000 0.50400  0.35730  0.55957  Biso   1.000  H
  C76      1.0000 0.45397  0.40140  0.52308  Biso   1.000  C
  H59      1.0000 0.47090  0.43140  0.48907  Biso   1.000  H
  H60      1.0000 0.47720  0.41230  0.56497  Biso   1.000  H
  C77      1.0000 0.39836  0.39303  0.54323  Biso   1.000  C
  C78      1.0000 0.36268  0.38335  0.47885  Biso   1.000  C
  H61      1.0000 0.32980  0.38430  0.49307  Biso   1.000  H
  H62      1.0000 0.38270  0.41310  0.44527  Biso   1.000  H
  C79      1.0000 0.29527  0.29853  0.43624  Biso   1.000  C
  H63      1.0000 0.27130  0.30770  0.45867  Biso   1.000  H
  C80      1.0000 0.27125  0.24915  0.39669  Biso   1.000  C
  C81      1.0000 0.21503  0.21508  0.40195  Biso   1.000  C
  H64      1.0000 0.19440  0.22370  0.43267  Biso   1.000  H
  C82      1.0000 0.19027  0.16902  0.36187  Biso   1.000  C
  C83      1.0000 0.21932  0.15649  0.31436  Biso   1.000  C
  H65      1.0000 0.20130  0.12490  0.28637  Biso   1.000  H
  C84      1.0000 0.27404  0.19020  0.30840  Biso   1.000  C
  H66      1.0000 0.29380  0.18170  0.27587  Biso   1.000  H
  C85      1.0000 0.30163  0.23716  0.34936  Biso   1.000  C
  C86      1.0000 0.40835  0.44633  0.57617  Biso   1.000  C
  H67      1.0000 0.37360  0.44350  0.58787  Biso   1.000  H
  H68      1.0000 0.42780  0.47600  0.54307  Biso   1.000  H
  H69      1.0000 0.43000  0.45350  0.61857  Biso   1.000  H
  C87      1.0000 0.36941  0.34595  0.59407  Biso   1.000  C
  H70      1.0000 0.36420  0.31260  0.57217  Biso   1.000  H
  H71      1.0000 0.33420  0.34170  0.60627  Biso   1.000  H
  H72      1.0000 0.39130  0.35330  0.63617  Biso   1.000  H
  N20      1.0000 0.53647  0.56922  0.43571  Biso   1.000  N
  C88      1.0000 0.51762  0.54446  0.38576  Biso   1.000  C
  Mn5      1.0000 0.35425  0.92626  0.18016  Biso   1.000  Mn
  Mn6      1.0000 0.07104  0.64635  0.40932  Biso   1.000  Mn
  Fe3      1.0000 0.15719  0.84669  0.29836  Biso   1.000  Fe
  Br9      1.0000 0.43259  0.74026  0.02755  Biso   1.000  Br
  Br10     1.0000 0.54574  0.21414  0.22649  Biso   1.000  Br
  Br11     1.0000 0.25686  0.56579  0.55617  Biso   1.000  Br
  Br12     1.0000 0.78634  0.45012  0.36597  Biso   1.000  Br
  N21      1.0000 0.31235  0.87658  0.09953  Biso   1.000  N
  N22      1.0000 0.33619  0.98273  0.14889  Biso   1.000  N
  N23      1.0000 0.12034  0.68679  0.48986  Biso   1.000  N
  N24      1.0000 0.01479  0.66500  0.43975  Biso   1.000  N
  N25      1.0000 0.04375  0.82121  0.34708  Biso   1.000  N
  N26      1.0000 0.11479  0.72792  0.34850  Biso   1.000  N
  N27      1.0000 0.27372  0.88495  0.24217  Biso   1.000  N
  N28      1.0000 0.18497  0.96172  0.25444  Biso   1.000  N
  N29      1.0000 0.20886  0.90228  0.43995  Biso   1.000  N
  N30      1.0000 0.09712  0.79901  0.15794  Biso   1.000  N
  O9       1.0000 0.37761  0.87814  0.20723  Biso   1.000  O
  O10      1.0000 0.39718  0.97335  0.25273  Biso   1.000  O
  O11      1.0000 0.11796  0.62181  0.38085  Biso   1.000  O
  O12      1.0000 0.02478  0.60534  0.33521  Biso   1.000  O
  C89      1.0000 0.08694  0.83187  0.33026  Biso   1.000  C
  C90      1.0000 0.13313  0.77171  0.32918  Biso   1.000  C
  C91      1.0000 0.23013  0.86786  0.26367  Biso   1.000  C
  C92      1.0000 0.17424  0.91860  0.26958  Biso   1.000  C
  C93      1.0000 0.18917  0.87903  0.38965  Biso   1.000  C
  C94      1.0000 0.12181  0.81740  0.20776  Biso   1.000  C
  C95      1.0000 0.39275  0.85241  0.16396  Biso   1.000  C
  C96      1.0000 0.43207  0.83910  0.18509  Biso   1.000  C
  H73      1.0000 0.45000  0.85210  0.22840  Biso   1.000  H
  C97      1.0000 0.44464  0.80779  0.14420  Biso   1.000  C
  H74      1.0000 0.47180  0.79990  0.15870  Biso   1.000  H
  C98      1.0000 0.41796  0.78747  0.08135  Biso   1.000  C
  C99      1.0000 0.38082  0.80016  0.05798  Biso   1.000  C
  H75      1.0000 0.36330  0.78660  0.01460  Biso   1.000  H
  C100     1.0000 0.36843  0.83364  0.09849  Biso   1.000  C
  C101     1.0000 0.32622  0.84382  0.07290  Biso   1.000  C
  H76      1.0000 0.30700  0.82430  0.03270  Biso   1.000  H
  C102     1.0000 0.26406  0.87575  0.07025  Biso   1.000  C
  H77      1.0000 0.23450  0.85970  0.10500  Biso   1.000  H
  H78      1.0000 0.25200  0.85220  0.02860  Biso   1.000  H
  C103     1.0000 0.27380  0.93168  0.05000  Biso   1.000  C
  C104     1.0000 0.28435  0.96712  0.11396  Biso   1.000  C
  H79      1.0000 0.28400  0.00030  0.09990  Biso   1.000  H
  H80      1.0000 0.25450  0.94750  0.14770  Biso   1.000  H
  C105     1.0000 0.37015  0.03342  0.15557  Biso   1.000  C
  H81      1.0000 0.36250  0.05770  0.13100  Biso   1.000  H
  C106     1.0000 0.41902  0.05700  0.19705  Biso   1.000  C
  C107     1.0000 0.45338  0.11321  0.19263  Biso   1.000  C
  H82      1.0000 0.44590  0.13400  0.16060  Biso   1.000  H
  C108     1.0000 0.49815  0.13793  0.23531  Biso   1.000  C
  C109     1.0000 0.50898  0.10844  0.28296  Biso   1.000  C
  H83      1.0000 0.53980  0.12610  0.31230  Biso   1.000  H
  C110     1.0000 0.47519  0.05350  0.28814  Biso   1.000  C
  H84      1.0000 0.48280  0.03360  0.32150  Biso   1.000  H
  C111     1.0000 0.42958  0.02604  0.24510  Biso   1.000  C
  C112     1.0000 0.22025  0.92216  0.01770  Biso   1.000  C
  H85      1.0000 0.21240  0.90010  0.97560  Biso   1.000  H
  H86      1.0000 0.22350  0.95700  0.00570  Biso   1.000  H
  H87      1.0000 0.19080  0.90330  0.05130  Biso   1.000  H
  C113     1.0000 0.32027  0.95965  0.99800  Biso   1.000  C
  H88      1.0000 0.35330  0.96290  0.01820  Biso   1.000  H
  H89      1.0000 0.32610  0.99570  0.98730  Biso   1.000  H
  H90      1.0000 0.31120  0.93820  0.95520  Biso   1.000  H
  C114     1.0000 0.14475  0.60757  0.42361  Biso   1.000  C
  C115     1.0000 0.15739  0.56789  0.40130  Biso   1.000  C
  H91      1.0000 0.14320  0.54970  0.35840  Biso   1.000  H
  C116     1.0000 0.18954  0.55523  0.44020  Biso   1.000  C
  H92      1.0000 0.19780  0.52870  0.42420  Biso   1.000  H
  C117     1.0000 0.21023  0.58156  0.50350  Biso   1.000  C
  C118     1.0000 0.19738  0.61870  0.52850  Biso   1.000  C
  H93      1.0000 0.21130  0.63580  0.57210  Biso   1.000  H
  C119     1.0000 0.16343  0.63155  0.48934  Biso   1.000  C
  C120     1.0000 0.15367  0.67311  0.51611  Biso   1.000  C
  H94      1.0000 0.17330  0.69210  0.55640  Biso   1.000  H
  C121     1.0000 0.12160  0.73482  0.52041  Biso   1.000  C
  H95      1.0000 0.13900  0.76510  0.48690  Biso   1.000  H
  H96      1.0000 0.14430  0.74550  0.56290  Biso   1.000  H
  C122     1.0000 0.06564  0.72635  0.53956  Biso   1.000  C
  C123     1.0000 0.03075  0.71680  0.47488  Biso   1.000  C
  H97      1.0000 0.99770  0.71760  0.48860  Biso   1.000  H
  H98      1.0000 0.05100  0.74670  0.44160  Biso   1.000  H
  C124     1.0000 0.96387  0.63198  0.43075  Biso   1.000  C
  H99      1.0000 0.93930  0.64090  0.45210  Biso   1.000  H
  C125     1.0000 0.94100  0.58235  0.39083  Biso   1.000  C
  C126     1.0000 0.88491  0.54649  0.39627  Biso   1.000  C
  H100     1.0000 0.86360  0.55400  0.42740  Biso   1.000  H
  C127     1.0000 0.86140  0.50039  0.35586  Biso   1.000  C
  C128     1.0000 0.89128  0.48963  0.30843  Biso   1.000  C
  H101     1.0000 0.87410  0.45780  0.28070  Biso   1.000  H
  C129     1.0000 0.94567  0.52490  0.30154  Biso   1.000  C
  H102     1.0000 0.96580  0.51780  0.26810  Biso   1.000  H
  C130     1.0000 0.97217  0.57160  0.34351  Biso   1.000  C
  C131     1.0000 0.07555  0.77934  0.57256  Biso   1.000  C
  H103     1.0000 0.04090  0.77570  0.58690  Biso   1.000  H
  H104     1.0000 0.09310  0.80870  0.53870  Biso   1.000  H
  H105     1.0000 0.09890  0.78740  0.61340  Biso   1.000  H
  C132     1.0000 0.03673  0.67912  0.59065  Biso   1.000  C
  H106     1.0000 0.00150  0.67480  0.60320  Biso   1.000  H
  H107     1.0000 0.05880  0.68650  0.63270  Biso   1.000  H
  H108     1.0000 0.03140  0.64580  0.56880  Biso   1.000  H
  Mn7      1.0000 0.91019  0.59804  0.74600  Biso   1.000  Mn
  Br13     1.0000 0.64310  0.40916  0.88945  Biso   1.000  Br
  Br14     1.0000 0.00630  0.88553  0.70499  Biso   1.000  Br
  N31      1.0000 0.90096  0.54791  0.82607  Biso   1.000  N
  N32      1.0000 0.98507  0.65369  0.77723  Biso   1.000  N
  N33      1.0000 0.02952  0.56925  0.48689  Biso   1.000  N
  N34      1.0000 0.94766  0.55478  0.68399  Biso   1.000  N
  O13      1.0000 0.83924  0.55074  0.71709  Biso   1.000  O
  O14      1.0000 0.91489  0.64564  0.67413  Biso   1.000  O
  C133     1.0000 0.02485  0.54551  0.53779  Biso   1.000  C
  C134     1.0000 0.97277  0.53627  0.66234  Biso   1.000  C
  C135     1.0000 0.79755  0.52342  0.75897  Biso   1.000  C
  C136     1.0000 0.74541  0.50957  0.73500  Biso   1.000  C
  H109     1.0000 0.74150  0.52340  0.69180  Biso   1.000  H
  C137     1.0000 0.70027  0.47623  0.77360  Biso   1.000  C
  H110     1.0000 0.66530  0.46650  0.75660  Biso   1.000  H
  C138     1.0000 0.70597  0.45685  0.83767  Biso   1.000  C
  C139     1.0000 0.75584  0.47061  0.86320  Biso   1.000  C
  H111     1.0000 0.75900  0.45710  0.90710  Biso   1.000  H
  C140     1.0000 0.80260  0.50482  0.82468  Biso   1.000  C
  C141     1.0000 0.85408  0.51511  0.85207  Biso   1.000  C
  H112     1.0000 0.85330  0.49600  0.89290  Biso   1.000  H
  C142     1.0000 0.94743  0.54603  0.85641  Biso   1.000  C
  H113     1.0000 0.96050  0.52910  0.82240  Biso   1.000  H
  H114     1.0000 0.93510  0.52280  0.89830  Biso   1.000  H
  C143     1.0000 0.99467  0.60164  0.87656  Biso   1.000  C
  C144     1.0000 0.02067  0.63732  0.81218  Biso   1.000  C
  H115     1.0000 0.05450  0.67020  0.82640  Biso   1.000  H
  H116     1.0000 0.03040  0.61730  0.77860  Biso   1.000  H
  C145     1.0000 0.00326  0.70473  0.76957  Biso   1.000  C
  H117     1.0000 0.03640  0.72870  0.79200  Biso   1.000  H
  C146     1.0000 0.97790  0.72875  0.73002  Biso   1.000  C
  C147     1.0000 0.00005  0.78497  0.73528  Biso   1.000  C
  H118     1.0000 0.02930  0.80560  0.76600  Biso   1.000  H
  C148     1.0000 0.97875  0.80973  0.69520  Biso   1.000  C
  C149     1.0000 0.93717  0.78068  0.64769  Biso   1.000  C
  H119     1.0000 0.92360  0.79870  0.61970  Biso   1.000  H
  C150     1.0000 0.91616  0.72596  0.64173  Biso   1.000  C
  H120     1.0000 0.88790  0.70620  0.60920  Biso   1.000  H
  C151     1.0000 0.93553  0.69837  0.68269  Biso   1.000  C
  C152     1.0000 0.03798  0.59165  0.90950  Biso   1.000  C
  H121     1.0000 0.06990  0.62640  0.92120  Biso   1.000  H
  H122     1.0000 0.04820  0.57220  0.87640  Biso   1.000  H
  H123     1.0000 0.02350  0.57000  0.95190  Biso   1.000  H
  C153     1.0000 0.97654  0.63059  0.92740  Biso   1.000  C
  H124     1.0000 0.94840  0.63580  0.90550  Biso   1.000  H
  H125     1.0000 0.00750  0.66580  0.93960  Biso   1.000  H
  H126     1.0000 0.96200  0.60870  0.96950  Biso   1.000  H
  N35      1.0000 0.03275  0.46353  0.76905  Biso   1.000  N
  C154     1.0000 0.02684  0.48238  0.71910  Biso   1.000  C
  Mn8      1.0000 0.90380  0.31331  0.51678  Biso   1.000  Mn
  Fe4      1.0000 0.02285  0.51258  0.62846  Biso   1.000  Fe
  Br15     1.0000 0.64023  0.23256  0.36098  Biso   1.000  Br
  Br16     1.0000 0.99240  0.11692  0.56544  Biso   1.000  Br
  N36      1.0000 0.89619  0.35470  0.43592  Biso   1.000  N
  N37      1.0000 0.97819  0.33072  0.48609  Biso   1.000  N
  N38      1.0000 0.94329  0.39455  0.57783  Biso   1.000  N
  N39      1.0000 0.11175  0.62714  0.67315  Biso   1.000  N
  N40      1.0000 0.10880  0.48454  0.58002  Biso   1.000  N
  O15      1.0000 0.83205  0.28919  0.54365  Biso   1.000  O
  O16      1.0000 0.90836  0.27209  0.59113  Biso   1.000  O
  C155     1.0000 0.97038  0.43839  0.59729  Biso   1.000  C
  C156     1.0000 0.07911  0.58421  0.65782  Biso   1.000  C
  C157     1.0000 0.07774  0.49583  0.59715  Biso   1.000  C
  C158     1.0000 0.79123  0.27390  0.49943  Biso   1.000  C
  C159     1.0000 0.73866  0.23315  0.51943  Biso   1.000  C
  H127     1.0000 0.73370  0.21460  0.56223  Biso   1.000  H
  C160     1.0000 0.69498  0.22013  0.47783  Biso   1.000  C
  H128     1.0000 0.66000  0.19230  0.49133  Biso   1.000  H
  C161     1.0000 0.70199  0.24779  0.41583  Biso   1.000  C
  C162     1.0000 0.75189  0.28608  0.39267  Biso   1.000  C
  H129     1.0000 0.75560  0.30380  0.34953  Biso   1.000  H
  C163     1.0000 0.79773  0.29892  0.43361  Biso   1.000  C
  C164     1.0000 0.84954  0.34111  0.40864  Biso   1.000  C
  H130     1.0000 0.84940  0.36060  0.36863  Biso   1.000  H
  C165     1.0000 0.94382  0.40266  0.40631  Biso   1.000  C
  H131     1.0000 0.95730  0.43250  0.44063  Biso   1.000  H
  H132     1.0000 0.93240  0.41440  0.36423  Biso   1.000  H
  C166     1.0000 0.98990  0.39277  0.38682  Biso   1.000  C
  C167     1.0000 0.01535  0.38270  0.45118  Biso   1.000  C
  H133     1.0000 0.04870  0.38260  0.43713  Biso   1.000  H
  H134     1.0000 0.02580  0.41270  0.48463  Biso   1.000  H
  C168     1.0000 0.99471  0.29672  0.49490  Biso   1.000  C
  H135     1.0000 0.02740  0.30450  0.47233  Biso   1.000  H
  C169     1.0000 0.96830  0.24780  0.53590  Biso   1.000  C
  C170     1.0000 0.98823  0.21174  0.53111  Biso   1.000  C
  H136     1.0000 0.01590  0.21810  0.49863  Biso   1.000  H
  C171     1.0000 0.96731  0.16725  0.57369  Biso   1.000  C
  C172     1.0000 0.92716  0.15738  0.62244  Biso   1.000  C
  H137     1.0000 0.91310  0.12640  0.65153  Biso   1.000  H
  C173     1.0000 0.90817  0.19293  0.62799  Biso   1.000  C
  H138     1.0000 0.88140  0.18660  0.66183  Biso   1.000  H
  C174     1.0000 0.92764  0.23843  0.58450  Biso   1.000  C
  C175     1.0000 0.03450  0.44665  0.35493  Biso   1.000  C
  H139     1.0000 0.02100  0.45440  0.31213  Biso   1.000  H
  H140     1.0000 0.06640  0.44360  0.34413  Biso   1.000  H
  H141     1.0000 0.04440  0.47610  0.38833  Biso   1.000  H
  C176     1.0000 0.97186  0.34636  0.33463  Biso   1.000  C
  H142     1.0000 0.94140  0.31350  0.35403  Biso   1.000  H
  H143     1.0000 0.00200  0.34000  0.32523  Biso   1.000  H
  H144     1.0000 0.96070  0.35590  0.29123  Biso   1.000  H
  N41      1.0000 0.43078  0.96725  0.10238  Biso   1.000  N
  C177     1.0000 0.45554  0.97316  0.05243  Biso   1.000  C
  Mn9      1.0000 0.40951  0.09620  0.85012  Biso   1.000  Mn
  Fe5      1.0000 0.48973  0.97715  0.96180  Biso   1.000  Fe
  Br17     1.0000 0.59234  0.35977  0.69432  Biso   1.000  Br
  Br18     1.0000 0.12453  0.00760  0.89878  Biso   1.000  Br
  N42      1.0000 0.45851  0.10381  0.76926  Biso   1.000  N
  N43      1.0000 0.35253  0.02181  0.81943  Biso   1.000  N
  N44      1.0000 0.45126  0.05671  0.91117  Biso   1.000  N
  N45      1.0000 0.51539  0.88825  0.00649  Biso   1.000  N
  N46      1.0000 0.37574  0.89120  0.91336  Biso   1.000  N
  O17      1.0000 0.45714  0.16795  0.87699  Biso   1.000  O
  O18      1.0000 0.36373  0.09164  0.92447  Biso   1.000  O
  C178     1.0000 0.46801  0.02962  0.93063  Biso   1.000  C
  C179     1.0000 0.50510  0.92089  0.99116  Biso   1.000  C
  C180     1.0000 0.41809  0.92226  0.93049  Biso   1.000  C
  C181     1.0000 0.48267  0.20877  0.83277  Biso   1.000  C
  C182     1.0000 0.49449  0.26134  0.85277  Biso   1.000  C
  H145     1.0000 0.48090  0.26630  0.89557  Biso   1.000  H
  C183     1.0000 0.52515  0.30502  0.81117  Biso   1.000  C
  H146     1.0000 0.53230  0.34000  0.82467  Biso   1.000  H
  C184     1.0000 0.54580  0.29801  0.74917  Biso   1.000  C
  C185     1.0000 0.53419  0.24811  0.72601  Biso   1.000  C
  H147     1.0000 0.54820  0.24440  0.68287  Biso   1.000  H
  C186     1.0000 0.50119  0.20227  0.76695  Biso   1.000  C
  C187     1.0000 0.49157  0.15046  0.74198  Biso   1.000  C
  H148     1.0000 0.51120  0.15060  0.70197  Biso   1.000  H
  C188     1.0000 0.45884  0.05618  0.73965  Biso   1.000  C
  H149     1.0000 0.47520  0.04270  0.77397  Biso   1.000  H
  H150     1.0000 0.48200  0.06760  0.69757  Biso   1.000  H
  C189     1.0000 0.40287  0.01010  0.72016  Biso   1.000  C
  C190     1.0000 0.36735  0.98465  0.78452  Biso   1.000  C
  H151     1.0000 0.33390  0.95130  0.77047  Biso   1.000  H
  H152     1.0000 0.38690  0.97420  0.81797  Biso   1.000  H
  C191     1.0000 0.30201  0.00529  0.82824  Biso   1.000  C
  H153     1.0000 0.27710  0.97260  0.80567  Biso   1.000  H
  C192     1.0000 0.27950  0.03170  0.86924  Biso   1.000  C
  C193     1.0000 0.22351  0.01177  0.86445  Biso   1.000  C
  H154     1.0000 0.20220  0.98410  0.83197  Biso   1.000  H
  C194     1.0000 0.19994  0.03269  0.90703  Biso   1.000  C
  C195     1.0000 0.23022  0.07284  0.95578  Biso   1.000  C
  H155     1.0000 0.21330  0.08690  0.98487  Biso   1.000  H
  C196     1.0000 0.28476  0.09183  0.96133  Biso   1.000  C
  H156     1.0000 0.30520  0.11860  0.99517  Biso   1.000  H
  C197     1.0000 0.31079  0.07236  0.91784  Biso   1.000  C
  C198     1.0000 0.41215  0.96550  0.68827  Biso   1.000  C
  H157     1.0000 0.43340  0.97900  0.64547  Biso   1.000  H
  H158     1.0000 0.37720  0.93360  0.67747  Biso   1.000  H
  H159     1.0000 0.43170  0.95560  0.72167  Biso   1.000  H
  C199     1.0000 0.37450  0.02814  0.66797  Biso   1.000  C
  H160     1.0000 0.37210  0.05860  0.68737  Biso   1.000  H
  H161     1.0000 0.33800  0.99800  0.65857  Biso   1.000  H
  H162     1.0000 0.39520  0.03930  0.62457  Biso   1.000  H
  Mn10     1.0000 0.68785  0.08981  0.07933  Biso   1.000  Mn
  Br19     1.0000 0.76606  0.35690  0.22278  Biso   1.000  Br
  Br20     1.0000 0.87923  0.99370  0.03832  Biso   1.000  Br
  N47      1.0000 0.64695  0.09904  0.15940  Biso   1.000  N
  N48      1.0000 0.66862  0.01493  0.11056  Biso   1.000  N
  N49      1.0000 0.53973  0.97048  0.82022  Biso   1.000  N
  N50      1.0000 0.60712  0.05234  0.01732  Biso   1.000  N
  O19      1.0000 0.71150  0.16076  0.05042  Biso   1.000  O
  O20      1.0000 0.73075  0.08511  0.00746  Biso   1.000  O
  C200     1.0000 0.52066  0.97515  0.87112  Biso   1.000  C
  C201     1.0000 0.56350  0.02723  0.99567  Biso   1.000  C
  C202     1.0000 0.72587  0.20245  0.09230  Biso   1.000  C
  C203     1.0000 0.76416  0.25459  0.06833  Biso   1.000  C
  H163     1.0000 0.78190  0.25850  0.02513  Biso   1.000  H
  C204     1.0000 0.77596  0.29973  0.10693  Biso   1.000  C
  H164     1.0000 0.80120  0.33470  0.08993  Biso   1.000  H
  C205     1.0000 0.75088  0.29403  0.17100  Biso   1.000  C
  C206     1.0000 0.71477  0.24416  0.19653  Biso   1.000  C
  H165     1.0000 0.69810  0.24100  0.24043  Biso   1.000  H
  C207     1.0000 0.70222  0.19740  0.15801  Biso   1.000  C
  C208     1.0000 0.66103  0.14592  0.18540  Biso   1.000  C
  H166     1.0000 0.64270  0.14670  0.22623  Biso   1.000  H
  C209     1.0000 0.59860  0.05257  0.18974  Biso   1.000  C
  H167     1.0000 0.56860  0.03950  0.15573  Biso   1.000  H
  H168     1.0000 0.58770  0.06490  0.23163  Biso   1.000  H
  C210     1.0000 0.60697  0.00533  0.20989  Biso   1.000  C
  C211     1.0000 0.61665  0.97933  0.14551  Biso   1.000  C
  H169     1.0000 0.61570  0.94550  0.15973  Biso   1.000  H
  H170     1.0000 0.58690  0.96960  0.11193  Biso   1.000  H
  C212     1.0000 0.70147  0.99674  0.10290  Biso   1.000  C
  H171     1.0000 0.69230  0.96360  0.12533  Biso   1.000  H
  C213     1.0000 0.75085  0.02210  0.06335  Biso   1.000  C
  C214     1.0000 0.78492  0.99995  0.06861  Biso   1.000  C
  H172     1.0000 0.77630  0.97070  0.09933  Biso   1.000  H
  C215     1.0000 0.83098  0.02125  0.02853  Biso   1.000  C
  C216     1.0000 0.84351  0.06283  0.98102  Biso   1.000  C
  H173     1.0000 0.87510  0.07640  0.95303  Biso   1.000  H
  C217     1.0000 0.80980  0.08384  0.97506  Biso   1.000  C
  H174     1.0000 0.81830  0.11210  0.94253  Biso   1.000  H
  C218     1.0000 0.76284  0.06447  0.01602  Biso   1.000  C
  C219     1.0000 0.55367  0.96202  0.24283  Biso   1.000  C
  H175     1.0000 0.55650  0.93010  0.25453  Biso   1.000  H
  H176     1.0000 0.52400  0.95180  0.20973  Biso   1.000  H
  H177     1.0000 0.54650  0.97650  0.28523  Biso   1.000  H
  C220     1.0000 0.65405  0.02346  0.26073  Biso   1.000  C
  H178     1.0000 0.68740  0.05160  0.23883  Biso   1.000  H
  H179     1.0000 0.65830  0.99250  0.27293  Biso   1.000  H
  H180     1.0000 0.64670  0.03800  0.30283  Biso   1.000  H
  Mn11     1.0000 0.23583  0.25612  0.74744  Biso   1.000  Mn
  Mn12     1.0000 0.24484  0.97905  0.51823  Biso   1.000  Mn
  Fe6      1.0000 0.35621  0.17894  0.63217  Biso   1.000  Fe
  Br21     1.0000 0.97321  0.07306  0.90537  Biso   1.000  Br
  Br22     1.0000 0.32761  0.54227  0.69742  Biso   1.000  Br
  Br23     1.0000 0.97680  0.89987  0.37697  Biso   1.000  Br
  Br24     1.0000 0.33805  0.78580  0.55784  Biso   1.000  Br
  N51      1.0000 0.22859  0.20711  0.82834  Biso   1.000  N
  N52      1.0000 0.31024  0.31319  0.77852  Biso   1.000  N
  N53      1.0000 0.23533  0.01943  0.43800  Biso   1.000  N
  N54      1.0000 0.32017  0.99870  0.48761  Biso   1.000  N
  N55      1.0000 0.27559  0.21508  0.68600  Biso   1.000  N
  N56      1.0000 0.28213  0.06051  0.57963  Biso   1.000  N
  N57      1.0000 0.44523  0.15450  0.58521  Biso   1.000  N
  N58      1.0000 0.44192  0.29385  0.67852  Biso   1.000  N
  N59      1.0000 0.36781  0.13131  0.77302  Biso   1.000  N
  N60      1.0000 0.36126  0.23545  0.49117  Biso   1.000  N
  O21      1.0000 0.16384  0.20792  0.72133  Biso   1.000  O
  O22      1.0000 0.23986  0.30229  0.67365  Biso   1.000  O
  O23      1.0000 0.17417  0.95517  0.54800  Biso   1.000  O
  O24      1.0000 0.25026  0.93725  0.59104  Biso   1.000  O
  C221     1.0000 0.30281  0.19894  0.66510  Biso   1.000  C
  C222     1.0000 0.30650  0.10425  0.59973  Biso   1.000  C
  C223     1.0000 0.41257  0.16458  0.60194  Biso   1.000  C
  C224     1.0000 0.41022  0.25089  0.66245  Biso   1.000  C
  C225     1.0000 0.36115  0.14955  0.72295  Biso   1.000  C
  C226     1.0000 0.35726  0.21187  0.54144  Biso   1.000  C
  C227     1.0000 0.12346  0.18266  0.76608  Biso   1.000  C
  C228     1.0000 0.07147  0.17120  0.74618  Biso   1.000  C
  H181     1.0000 0.06670  0.18510  0.70347  Biso   1.000  H
  C229     1.0000 0.02729  0.14009  0.78770  Biso   1.000  C
  H182     1.0000 0.99230  0.13270  0.77397  Biso   1.000  H
  C230     1.0000 0.03454  0.11948  0.85046  Biso   1.000  C
  C231     1.0000 0.08446  0.13145  0.87279  Biso   1.000  C
  H183     1.0000 0.08860  0.11780  0.91607  Biso   1.000  H
  C232     1.0000 0.13027  0.16435  0.83145  Biso   1.000  C
  C233     1.0000 0.18216  0.17427  0.85552  Biso   1.000  C
  H184     1.0000 0.18230  0.15470  0.89547  Biso   1.000  H
  C234     1.0000 0.27619  0.20670  0.85776  Biso   1.000  C
  H185     1.0000 0.28970  0.19050  0.82327  Biso   1.000  H
  H186     1.0000 0.26480  0.18340  0.89957  Biso   1.000  H
  C235     1.0000 0.32277  0.26296  0.87788  Biso   1.000  C
  C236     1.0000 0.34718  0.29838  0.81281  Biso   1.000  C
  H187     1.0000 0.38060  0.33180  0.82627  Biso   1.000  H
  H188     1.0000 0.35730  0.27870  0.77907  Biso   1.000  H
  C237     1.0000 0.32612  0.36382  0.77132  Biso   1.000  C
  H189     1.0000 0.35780  0.38870  0.79597  Biso   1.000  H
  C238     1.0000 0.30026  0.38633  0.72929  Biso   1.000  C
  C239     1.0000 0.32107  0.44252  0.73297  Biso   1.000  C
  H190     1.0000 0.34910  0.46390  0.76507  Biso   1.000  H
  C240     1.0000 0.30060  0.46631  0.68987  Biso   1.000  C
  C241     1.0000 0.26137  0.43661  0.64085  Biso   1.000  C
  H191     1.0000 0.24840  0.45400  0.61067  Biso   1.000  H
  C242     1.0000 0.24126  0.38163  0.63615  Biso   1.000  C
  H192     1.0000 0.21450  0.36130  0.60217  Biso   1.000  H
  C243     1.0000 0.25959  0.35495  0.68068  Biso   1.000  C
  C244     1.0000 0.36682  0.25381  0.90947  Biso   1.000  C
  H193     1.0000 0.39930  0.28880  0.91817  Biso   1.000  H
  H194     1.0000 0.37550  0.23280  0.87697  Biso   1.000  H
  H195     1.0000 0.35380  0.23400  0.95337  Biso   1.000  H
  C245     1.0000 0.30375  0.29051  0.92963  Biso   1.000  C
  H196     1.0000 0.27270  0.29180  0.91027  Biso   1.000  H
  H197     1.0000 0.33320  0.32740  0.93857  Biso   1.000  H
  H198     1.0000 0.29320  0.27010  0.97327  Biso   1.000  H
  C246     1.0000 0.13227  0.94066  0.50536  Biso   1.000  C
  C247     1.0000 0.08015  0.90262  0.53089  Biso   1.000  C
  H199     1.0000 0.07670  0.88580  0.57467  Biso   1.000  H
  C248     1.0000 0.03457  0.89011  0.49237  Biso   1.000  C
  H200     1.0000 0.99980  0.86440  0.50927  Biso   1.000  H
  C249     1.0000 0.03986  0.91538  0.42870  Biso   1.000  C
  C250     1.0000 0.08958  0.95136  0.40299  Biso   1.000  C
  H201     1.0000 0.09240  0.96790  0.35917  Biso   1.000  H
  C251     1.0000 0.13679  0.96427  0.44057  Biso   1.000  C
  C252     1.0000 0.18839  0.00565  0.41268  Biso   1.000  C
  H202     1.0000 0.18740  0.02420  0.37217  Biso   1.000  H
  C253     1.0000 0.28181  0.06762  0.40767  Biso   1.000  C
  H203     1.0000 0.29460  0.09770  0.44147  Biso   1.000  H
  H204     1.0000 0.26960  0.07840  0.36547  Biso   1.000  H
  C254     1.0000 0.32926  0.05961  0.38802  Biso   1.000  C
  C255     1.0000 0.35513  0.05047  0.45227  Biso   1.000  C
  H205     1.0000 0.38910  0.05170  0.43827  Biso   1.000  H
  H206     1.0000 0.36460  0.08040  0.48557  Biso   1.000  H
  C256     1.0000 0.33872  0.96645  0.49623  Biso   1.000  C
  H207     1.0000 0.37260  0.97630  0.47537  Biso   1.000  H
  C257     1.0000 0.31255  0.91650  0.53500  Biso   1.000  C
  C258     1.0000 0.33332  0.88088  0.52963  Biso   1.000  C
  H208     1.0000 0.36240  0.88900  0.49877  Biso   1.000  H
  C259     1.0000 0.31149  0.83470  0.56909  Biso   1.000  C
  C260     1.0000 0.26982  0.82235  0.61531  Biso   1.000  C
  H209     1.0000 0.25520  0.79010  0.64217  Biso   1.000  H
  C261     1.0000 0.24944  0.85692  0.62230  Biso   1.000  C
  H210     1.0000 0.22120  0.84860  0.65467  Biso   1.000  H
  C262     1.0000 0.26992  0.90399  0.58212  Biso   1.000  C
  C263     1.0000 0.37236  0.11291  0.35437  Biso   1.000  C
  H211     1.0000 0.35750  0.11980  0.31217  Biso   1.000  H
  H212     1.0000 0.40420  0.11010  0.34227  Biso   1.000  H
  H213     1.0000 0.38280  0.14270  0.38727  Biso   1.000  H
  C264     1.0000 0.31097  0.01200  0.33714  Biso   1.000  C
  H214     1.0000 0.28340  0.97860  0.35947  Biso   1.000  H
  H215     1.0000 0.34210  0.00820  0.32427  Biso   1.000  H
  H216     1.0000 0.29570  0.01880  0.29527  Biso   1.000  H
  Mn13     1.0000 0.07374  0.42799  0.84683  Biso   1.000  Mn
  Mn14     1.0000 0.35365  0.42469  0.07599  Biso   1.000  Mn
  Fe7      1.0000 0.15331  0.31050  0.96503  Biso   1.000  Fe
  Br25     1.0000 0.25974  0.69233  0.69422  Biso   1.000  Br
  Br26     1.0000 0.78586  0.33160  0.89316  Biso   1.000  Br
  Br27     1.0000 0.43421  0.69107  0.22284  Biso   1.000  Br
  Br28     1.0000 0.54988  0.33622  0.03264  Biso   1.000  Br
  N61      1.0000 0.12342  0.43577  0.76620  Biso   1.000  N
  N62      1.0000 0.01727  0.35346  0.81556  Biso   1.000  N
  N63      1.0000 0.31321  0.43355  0.15653  Biso   1.000  N
  N64      1.0000 0.33500  0.34979  0.10642  Biso   1.000  N
  N65      1.0000 0.17879  0.22254  0.01375  Biso   1.000  N
  N66      1.0000 0.27208  0.38687  0.01517  Biso   1.000  N
  N67      1.0000 0.11505  0.38877  0.90884  Biso   1.000  N
  N68      1.0000 0.03828  0.22325  0.92111  Biso   1.000  N
  N69      1.0000 0.09772  0.30658  0.10662  Biso   1.000  N
  N70      1.0000 0.20099  0.29811  0.82461  Biso   1.000  N
  O25      1.0000 0.12186  0.49947  0.87390  Biso   1.000  O
  O26      1.0000 0.02665  0.42383  0.91940  Biso   1.000  O
  O27      1.0000 0.37819  0.49615  0.04752  Biso   1.000  O
  O28      1.0000 0.39466  0.41944  0.00188  Biso   1.000  O
  C265     1.0000 0.16813  0.25507  0.99693  Biso   1.000  C
  C266     1.0000 0.22829  0.36142  0.99585  Biso   1.000  C
  C267     1.0000 0.13214  0.36227  0.93034  Biso   1.000  C
  C268     1.0000 0.08140  0.25564  0.93625  Biso   1.000  C
  C269     1.0000 0.12097  0.31014  0.05632  Biso   1.000  C
  C270     1.0000 0.18260  0.30441  0.87443  Biso   1.000  C
  C271     1.0000 0.14759  0.54034  0.83063  Biso   1.000  C
  C272     1.0000 0.16090  0.59297  0.85176  Biso   1.000  C
  H217     1.0000 0.14790  0.59790  0.89507  Biso   1.000  H
  C273     1.0000 0.19221  0.63685  0.81087  Biso   1.000  C
  H218     1.0000 0.20010  0.67190  0.82537  Biso   1.000  H
  C274     1.0000 0.21253  0.63049  0.74802  Biso   1.000  C
  C275     1.0000 0.19984  0.58066  0.72465  Biso   1.000  C
  H219     1.0000 0.21340  0.57670  0.68127  Biso   1.000  H
  C276     1.0000 0.16636  0.53479  0.76516  Biso   1.000  C
  C277     1.0000 0.15618  0.48240  0.73957  Biso   1.000  C
  H220     1.0000 0.17570  0.48270  0.69937  Biso   1.000  H
  C278     1.0000 0.12425  0.38831  0.73692  Biso   1.000  C
  H221     1.0000 0.14030  0.37480  0.77167  Biso   1.000  H
  H222     1.0000 0.14780  0.39980  0.69527  Biso   1.000  H
  C279     1.0000 0.06832  0.34212  0.71667  Biso   1.000  C
  C280     1.0000 0.03288  0.31723  0.78063  Biso   1.000  C
  H223     1.0000 0.99970  0.28370  0.76657  Biso   1.000  H
  H224     1.0000 0.05250  0.30700  0.81437  Biso   1.000  H
  C281     1.0000 0.96658  0.33673  0.82224  Biso   1.000  C
  H225     1.0000 0.94230  0.30480  0.79767  Biso   1.000  H
  C282     1.0000 0.94300  0.36202  0.86372  Biso   1.000  C
  C283     1.0000 0.88679  0.34017  0.85930  Biso   1.000  C
  H226     1.0000 0.86600  0.31190  0.82727  Biso   1.000  H
  C284     1.0000 0.86207  0.36022  0.90198  Biso   1.000  C
  C285     1.0000 0.89156  0.40054  0.94963  Biso   1.000  C
  H227     1.0000 0.87390  0.41370  0.97897  Biso   1.000  H
  C286     1.0000 0.94650  0.42169  0.95481  Biso   1.000  C
  H228     1.0000 0.96640  0.44920  0.98817  Biso   1.000  H
  C287     1.0000 0.97396  0.40354  0.91177  Biso   1.000  C
  C288     1.0000 0.07784  0.29809  0.68437  Biso   1.000  C
  H229     1.0000 0.09990  0.31230  0.64227  Biso   1.000  H
  H230     1.0000 0.04300  0.26650  0.67237  Biso   1.000  H
  H231     1.0000 0.09670  0.28750  0.71797  Biso   1.000  H
  C289     1.0000 0.04035  0.36062  0.66467  Biso   1.000  C
  H232     1.0000 0.03710  0.39040  0.68487  Biso   1.000  H
  H233     1.0000 0.00430  0.33040  0.65397  Biso   1.000  H
  H234     1.0000 0.06180  0.37300  0.62187  Biso   1.000  H
  C290     1.0000 0.39243  0.53718  0.09028  Biso   1.000  C
  C291     1.0000 0.43211  0.58950  0.06797  Biso   1.000  C
  H235     1.0000 0.45030  0.59350  0.02507  Biso   1.000  H
  C292     1.0000 0.44477  0.63431  0.10687  Biso   1.000  C
  H236     1.0000 0.47130  0.66910  0.09087  Biso   1.000  H
  C293     1.0000 0.41844  0.62867  0.17017  Biso   1.000  C
  C294     1.0000 0.38130  0.57868  0.19517  Biso   1.000  C
  H237     1.0000 0.36420  0.57550  0.23877  Biso   1.000  H
  C295     1.0000 0.36845  0.53188  0.15601  Biso   1.000  C
  C296     1.0000 0.32689  0.48056  0.18278  Biso   1.000  C
  H238     1.0000 0.30790  0.48120  0.22307  Biso   1.000  H
  C297     1.0000 0.26518  0.38678  0.18708  Biso   1.000  C
  H239     1.0000 0.23490  0.37390  0.15357  Biso   1.000  H
  H240     1.0000 0.25450  0.39880  0.22957  Biso   1.000  H
  C298     1.0000 0.27365  0.33929  0.20623  Biso   1.000  C
  C299     1.0000 0.28320  0.31395  0.14155  Biso   1.000  C
  H241     1.0000 0.28240  0.28010  0.15527  Biso   1.000  H
  H242     1.0000 0.25330  0.30430  0.10827  Biso   1.000  H
  C300     1.0000 0.36802  0.33189  0.09742  Biso   1.000  C
  H243     1.0000 0.35910  0.29840  0.11877  Biso   1.000  H
  C301     1.0000 0.41765  0.35865  0.05750  Biso   1.000  C
  C302     1.0000 0.45351  0.33842  0.06294  Biso   1.000  C
  H244     1.0000 0.44600  0.30960  0.09407  Biso   1.000  H
  C303     1.0000 0.49961  0.36101  0.02253  Biso   1.000  C
  C304     1.0000 0.51037  0.40165  0.97510  Biso   1.000  C
  H245     1.0000 0.54220  0.41630  0.94737  Biso   1.000  H
  C305     1.0000 0.47510  0.42077  0.96821  Biso   1.000  C
  H246     1.0000 0.48220  0.44800  0.93477  Biso   1.000  H
  C306     1.0000 0.42840  0.40057  0.01018  Biso   1.000  C
  C307     1.0000 0.22066  0.29621  0.23923  Biso   1.000  C
  H247     1.0000 0.22430  0.26520  0.25357  Biso   1.000  H
  H248     1.0000 0.19130  0.28440  0.20537  Biso   1.000  H
  H249     1.0000 0.21260  0.31150  0.28007  Biso   1.000  H
  C308     1.0000 0.32088  0.35761  0.25732  Biso   1.000  C
  H250     1.0000 0.32520  0.32670  0.26987  Biso   1.000  H
  H251     1.0000 0.31350  0.37230  0.29937  Biso   1.000  H
  H252     1.0000 0.35420  0.38560  0.23547  Biso   1.000  H
  Mn15     1.0000 0.74388  0.97971  0.41410  Biso   1.000  Mn
  Mn16     1.0000 0.02095  0.26579  0.18489  Biso   1.000  Mn
  Fe8      1.0000 0.82106  0.17727  0.29883  Biso   1.000  Fe
  Br29     1.0000 0.92694  0.90015  0.57204  Biso   1.000  Br
  Br30     1.0000 0.45773  0.78534  0.36409  Biso   1.000  Br
  Br31     1.0000 0.10013  0.07693  0.04363  Biso   1.000  Br
  Br32     1.0000 0.21420  0.55224  0.22451  Biso   1.000  Br
  N71      1.0000 0.79289  0.02148  0.49500  Biso   1.000  N
  N72      1.0000 0.68681  0.99705  0.44518  Biso   1.000  N
  N73      1.0000 0.98057  0.21590  0.10466  Biso   1.000  N
  N74      1.0000 0.00130  0.32147  0.15427  Biso   1.000  N
  N75      1.0000 0.78492  0.06051  0.35266  Biso   1.000  N
  N76      1.0000 0.93949  0.22162  0.24629  Biso   1.000  N
  N77      1.0000 0.84550  0.29073  0.25187  Biso   1.000  N
  N78      1.0000 0.70615  0.14807  0.34518  Biso   1.000  N
  N79      1.0000 0.86869  0.23650  0.43968  Biso   1.000  N
  N80      1.0000 0.76455  0.12581  0.15783  Biso   1.000  N
  O29      1.0000 0.79208  0.95592  0.38799  Biso   1.000  O
  O30      1.0000 0.69771  0.93757  0.34031  Biso   1.000  O
  O31      1.0000 0.04483  0.21900  0.21466  Biso   1.000  O
  O32      1.0000 0.06275  0.31301  0.25770  Biso   1.000  O
  C309     1.0000 0.80106  0.10387  0.33176  Biso   1.000  C
  C310     1.0000 0.89575  0.20225  0.26639  Biso   1.000  C
  C311     1.0000 0.83542  0.24799  0.26860  Biso   1.000  C
  C312     1.0000 0.74911  0.15933  0.32911  Biso   1.000  C
  C313     1.0000 0.85045  0.21160  0.38961  Biso   1.000  C
  C314     1.0000 0.78813  0.14539  0.20810  Biso   1.000  C
  C315     1.0000 0.81734  0.94080  0.43274  Biso   1.000  C
  C316     1.0000 0.82880  0.90027  0.41284  Biso   1.000  C
  H253     1.0000 0.81490  0.88160  0.37013  Biso   1.000  H
  C317     1.0000 0.85991  0.88720  0.45436  Biso   1.000  C
  H254     1.0000 0.86730  0.85960  0.44063  Biso   1.000  H
  C318     1.0000 0.88052  0.91506  0.51712  Biso   1.000  C
  C319     1.0000 0.86855  0.95301  0.53945  Biso   1.000  C
  H255     1.0000 0.88220  0.97080  0.58273  Biso   1.000  H
  C320     1.0000 0.83565  0.96592  0.49811  Biso   1.000  C
  C321     1.0000 0.82573  0.00789  0.52218  Biso   1.000  C
  H256     1.0000 0.84530  0.02760  0.56213  Biso   1.000  H
  C322     1.0000 0.79330  0.06949  0.52442  Biso   1.000  C
  H257     1.0000 0.80950  0.09920  0.48993  Biso   1.000  H
  H258     1.0000 0.81660  0.08140  0.56623  Biso   1.000  H
  C323     1.0000 0.73704  0.05981  0.54454  Biso   1.000  C
  C324     1.0000 0.70162  0.04880  0.47947  Biso   1.000  C
  H259     1.0000 0.66820  0.04880  0.49293  Biso   1.000  H
  H260     1.0000 0.72130  0.07860  0.44573  Biso   1.000  H
  C325     1.0000 0.63618  0.96230  0.43798  Biso   1.000  C
  H261     1.0000 0.61130  0.96910  0.46263  Biso   1.000  H
  C326     1.0000 0.61367  0.91393  0.39595  Biso   1.000  C
  C327     1.0000 0.55748  0.87855  0.39963  Biso   1.000  C
  H262     1.0000 0.53610  0.88520  0.43173  Biso   1.000  H
  C328     1.0000 0.53369  0.83429  0.35653  Biso   1.000  C
  C329     1.0000 0.56339  0.82476  0.30751  Biso   1.000  C
  H263     1.0000 0.54600  0.79440  0.27733  Biso   1.000  H
  C330     1.0000 0.61837  0.85963  0.30281  Biso   1.000  C
  H264     1.0000 0.63870  0.85320  0.26883  Biso   1.000  H
  C331     1.0000 0.64505  0.90464  0.34734  Biso   1.000  C
  C332     1.0000 0.74619  0.11301  0.57613  Biso   1.000  C
  H265     1.0000 0.71120  0.11050  0.58483  Biso   1.000  H
  H266     1.0000 0.76720  0.14270  0.54363  Biso   1.000  H
  H267     1.0000 0.76600  0.11980  0.62003  Biso   1.000  H
  C333     1.0000 0.70949  0.01324  0.59629  Biso   1.000  C
  H268     1.0000 0.70820  0.98090  0.57693  Biso   1.000  H
  H269     1.0000 0.67260  0.00580  0.60523  Biso   1.000  H
  H270     1.0000 0.72990  0.02310  0.63993  Biso   1.000  H
  C334     1.0000 0.05934  0.19161  0.17202  Biso   1.000  C
  C335     1.0000 0.09738  0.17753  0.19755  Biso   1.000  C
  H271     1.0000 0.11420  0.19090  0.24133  Biso   1.000  H
  C336     1.0000 0.10989  0.14446  0.15903  Biso   1.000  C
  H272     1.0000 0.13560  0.13540  0.17593  Biso   1.000  H
  C337     1.0000 0.08462  0.12448  0.09536  Biso   1.000  C
  C338     1.0000 0.04864  0.13822  0.06965  Biso   1.000  C
  H273     1.0000 0.03210  0.12450  0.02583  Biso   1.000  H
  C339     1.0000 0.03573  0.17252  0.10723  Biso   1.000  C
  C340     1.0000 0.99435  0.18274  0.07934  Biso   1.000  C
  H274     1.0000 0.97580  0.16320  0.03883  Biso   1.000  H
  C341     1.0000 0.93238  0.21419  0.07433  Biso   1.000  C
  H275     1.0000 0.90230  0.19690  0.10813  Biso   1.000  H
  H276     1.0000 0.92160  0.19120  0.03213  Biso   1.000  H
  C342     1.0000 0.94039  0.26965  0.05468  Biso   1.000  C
  C343     1.0000 0.94953  0.30466  0.11893  Biso   1.000  C
  H277     1.0000 0.94830  0.33740  0.10493  Biso   1.000  H
  H278     1.0000 0.91960  0.28420  0.15223  Biso   1.000  H
  C344     1.0000 0.03355  0.37227  0.16289  Biso   1.000  C
  H279     1.0000 0.02370  0.39630  0.14203  Biso   1.000  H
  C345     1.0000 0.08350  0.39605  0.20166  Biso   1.000  C
  C346     1.0000 0.11912  0.45244  0.19629  Biso   1.000  C
  H280     1.0000 0.11100  0.47340  0.16543  Biso   1.000  H
  C347     1.0000 0.16530  0.47679  0.23575  Biso   1.000  C
  C348     1.0000 0.17765  0.44747  0.28197  Biso   1.000  C
  H281     1.0000 0.20990  0.46510  0.30883  Biso   1.000  H
  C349     1.0000 0.14308  0.39252  0.28896  Biso   1.000  C
  H282     1.0000 0.15140  0.37260  0.32133  Biso   1.000  H
  C350     1.0000 0.09601  0.36593  0.24878  Biso   1.000  C
  C351     1.0000 0.88709  0.25945  0.02103  Biso   1.000  C
  H283     1.0000 0.88020  0.23770  0.97883  Biso   1.000  H
  H284     1.0000 0.88990  0.29410  0.00893  Biso   1.000  H
  H285     1.0000 0.85730  0.24010  0.05393  Biso   1.000  H
  C352     1.0000 0.98800  0.29897  0.00380  Biso   1.000  C
  H286     1.0000 0.02140  0.30480  0.02613  Biso   1.000  H
  H287     1.0000 0.99180  0.33390  0.99093  Biso   1.000  H
  H288     1.0000 0.98120  0.27690  0.96193  Biso   1.000  H
  Mn17     1.0000 0.57201  0.64575  0.51349  Biso   1.000  Mn
  Mn18     1.0000 0.57531  0.92896  0.74265  Biso   1.000  Mn
  Fe9      1.0000 0.68950  0.84281  0.63169  Biso   1.000  Fe
  Br33     1.0000 0.30767  0.56741  0.36088  Biso   1.000  Br
  Br34     1.0000 0.66840  0.45426  0.55982  Biso   1.000  Br
  Br35     1.0000 0.30893  0.74314  0.88950  Biso   1.000  Br
  Br36     1.0000 0.66378  0.21366  0.69930  Biso   1.000  Br
  N81      1.0000 0.56423  0.68765  0.43286  Biso   1.000  N
  N82      1.0000 0.64654  0.66381  0.48222  Biso   1.000  N
  N83      1.0000 0.56645  0.87966  0.82319  Biso   1.000  N
  N84      1.0000 0.65021  0.98521  0.77308  Biso   1.000  N
  N85      1.0000 0.77746  0.95625  0.68041  Biso   1.000  N
  N86      1.0000 0.61313  0.88521  0.68183  Biso   1.000  N
  N87      1.0000 0.61123  0.72628  0.57550  Biso   1.000  N
  N88      1.0000 0.77675  0.81503  0.58777  Biso   1.000  N
  N89      1.0000 0.69342  0.79114  0.77328  Biso   1.000  N
  N90      1.0000 0.70189  0.90288  0.49127  Biso   1.000  N
  O33      1.0000 0.50053  0.62239  0.54056  Biso   1.000  O
  O34      1.0000 0.57617  0.60282  0.58606  Biso   1.000  O
  O35      1.0000 0.50385  0.88204  0.71418  Biso   1.000  O
  O36      1.0000 0.58056  0.97522  0.66854  Biso   1.000  O
  C353     1.0000 0.74493  0.91306  0.66359  Biso   1.000  C
  C354     1.0000 0.63858  0.86687  0.66251  Biso   1.000  C
  C355     1.0000 0.63773  0.76987  0.59700  Biso   1.000  C
  C356     1.0000 0.74436  0.82576  0.60291  Biso   1.000  C
  C357     1.0000 0.68986  0.81083  0.72298  Biso   1.000  C
  C358     1.0000 0.69559  0.87819  0.54109  Biso   1.000  C
  C359     1.0000 0.45966  0.60725  0.49729  Biso   1.000  C
  C360     1.0000 0.40703  0.56793  0.51842  Biso   1.000  C
  H289     1.0000 0.40210  0.55000  0.56173  Biso   1.000  H
  C361     1.0000 0.36315  0.55536  0.47753  Biso   1.000  C
  H290     1.0000 0.32810  0.52820  0.49203  Biso   1.000  H
  C362     1.0000 0.36951  0.58204  0.41468  Biso   1.000  C
  C363     1.0000 0.41934  0.61918  0.39131  Biso   1.000  C
  H291     1.0000 0.42330  0.63670  0.34793  Biso   1.000  H
  C364     1.0000 0.46521  0.63157  0.43182  Biso   1.000  C
  C365     1.0000 0.51760  0.67378  0.40623  Biso   1.000  C
  H292     1.0000 0.51730  0.69300  0.36603  Biso   1.000  H
  C366     1.0000 0.61169  0.73594  0.40358  Biso   1.000  C
  H293     1.0000 0.62520  0.76550  0.43833  Biso   1.000  H
  H294     1.0000 0.60020  0.74800  0.36193  Biso   1.000  H
  C367     1.0000 0.65788  0.72620  0.38333  Biso   1.000  C
  C368     1.0000 0.68277  0.71565  0.44729  Biso   1.000  C
  H295     1.0000 0.71630  0.71600  0.43323  Biso   1.000  H
  H296     1.0000 0.69300  0.74550  0.48103  Biso   1.000  H
  C369     1.0000 0.66327  0.62985  0.48890  Biso   1.000  C
  H297     1.0000 0.69520  0.63750  0.46433  Biso   1.000  H
  C370     1.0000 0.63798  0.58098  0.53038  Biso   1.000  C
  C371     1.0000 0.65983  0.54662  0.52596  Biso   1.000  C
  H298     1.0000 0.68810  0.55410  0.49393  Biso   1.000  H
  C372     1.0000 0.63978  0.50185  0.56864  Biso   1.000  C
  C373     1.0000 0.59946  0.49102  0.61629  Biso   1.000  C
  H299     1.0000 0.58630  0.46020  0.64563  Biso   1.000  H
  C374     1.0000 0.57831  0.52481  0.62147  Biso   1.000  C
  H300     1.0000 0.55080  0.51720  0.65483  Biso   1.000  H
  C375     1.0000 0.59646  0.57042  0.57843  Biso   1.000  C
  C376     1.0000 0.70191  0.77975  0.35103  Biso   1.000  C
  H301     1.0000 0.68770  0.78760  0.30893  Biso   1.000  H
  H302     1.0000 0.73350  0.77650  0.33903  Biso   1.000  H
  H303     1.0000 0.71250  0.80920  0.38463  Biso   1.000  H
  C377     1.0000 0.63938  0.67973  0.33133  Biso   1.000  C
  H304     1.0000 0.60960  0.64670  0.35153  Biso   1.000  H
  H305     1.0000 0.66960  0.67390  0.32063  Biso   1.000  H
  H306     1.0000 0.62700  0.68880  0.28853  Biso   1.000  H
  C378     1.0000 0.46282  0.85525  0.75694  Biso   1.000  C
  C379     1.0000 0.41050  0.84261  0.73463  Biso   1.000  C
  H307     1.0000 0.40650  0.85680  0.69173  Biso   1.000  H
  C380     1.0000 0.36569  0.81046  0.77353  Biso   1.000  C
  H308     1.0000 0.33090  0.80220  0.75753  Biso   1.000  H
  C381     1.0000 0.37133  0.78977  0.83683  Biso   1.000  C
  C382     1.0000 0.42132  0.80262  0.86183  Biso   1.000  C
  H309     1.0000 0.42450  0.78870  0.90543  Biso   1.000  H
  C383     1.0000 0.46812  0.83657  0.82267  Biso   1.000  C
  C384     1.0000 0.51944  0.84633  0.84944  Biso   1.000  C
  H310     1.0000 0.51880  0.82670  0.88973  Biso   1.000  H
  C385     1.0000 0.61322  0.87840  0.85374  Biso   1.000  C
  H311     1.0000 0.62610  0.86100  0.82023  Biso   1.000  H
  H312     1.0000 0.60120  0.85570  0.89623  Biso   1.000  H
  C386     1.0000 0.66071  0.93436  0.87289  Biso   1.000  C
  C387     1.0000 0.68605  0.96925  0.80821  Biso   1.000  C
  H313     1.0000 0.71990  0.00230  0.82193  Biso   1.000  H
  H314     1.0000 0.69570  0.94900  0.77493  Biso   1.000  H
  C388     1.0000 0.66811  0.03613  0.76408  Biso   1.000  C
  H315     1.0000 0.70160  0.06070  0.78543  Biso   1.000  H
  C389     1.0000 0.64135  0.05900  0.72416  Biso   1.000  C
  C390     1.0000 0.66158  0.11509  0.72960  Biso   1.000  C
  H316     1.0000 0.69040  0.13640  0.76073  Biso   1.000  H
  C391     1.0000 0.63899  0.13860  0.68919  Biso   1.000  C
  C392     1.0000 0.59835  0.10872  0.64176  Biso   1.000  C
  H317     1.0000 0.58370  0.12590  0.61403  Biso   1.000  H
  C393     1.0000 0.57923  0.05433  0.63487  Biso   1.000  C
  H318     1.0000 0.55200  0.03420  0.60143  Biso   1.000  H
  C394     1.0000 0.59943  0.02783  0.67684  Biso   1.000  C
  C395     1.0000 0.70379  0.92445  0.90589  Biso   1.000  C
  H319     1.0000 0.73480  0.95910  0.92023  Biso   1.000  H
  H320     1.0000 0.71560  0.90690  0.87203  Biso   1.000  H
  H321     1.0000 0.68850  0.90110  0.94673  Biso   1.000  H
  C396     1.0000 0.64239  0.96327  0.92398  Biso   1.000  C
  H322     1.0000 0.67330  0.99850  0.93653  Biso   1.000  H
  H323     1.0000 0.62770  0.94120  0.96603  Biso   1.000  H
  H324     1.0000 0.61440  0.96860  0.90213  Biso   1.000  H
