data_image0
_cell_length_a       33.41
_cell_length_b       26.932
_cell_length_c       12.365
_cell_angle_alpha    90
_cell_angle_beta     91.533
_cell_angle_gamma    90

_symmetry_space_group_name_H-M    "P 1"
_symmetry_int_tables_number       1

loop_
  _symmetry_equiv_pos_as_xyz
  'x, y, z'

loop_
  _atom_site_label
  _atom_site_occupancy
  _atom_site_fract_x
  _atom_site_fract_y
  _atom_site_fract_z
  _atom_site_thermal_displace_type
  _atom_site_B_iso_or_equiv
  _atom_site_type_symbol
  Ag1      1.0000 0.63857  0.28053  0.22189  Biso   1.000  Ag
  Ag2      1.0000 0.14268  0.27752  0.74792  Biso   1.000  Ag
  Co1      1.0000 0.38671  0.43014  0.46820  Biso   1.000  Co
  Co2      1.0000 0.88616  0.43224  0.51814  Biso   1.000  Co
  C1       1.0000 0.45542  0.46950  0.59360  Biso   1.000  C
  H1       1.0000 0.43900  0.49190  0.63180  Biso   1.000  H
  C2       1.0000 0.49633  0.46540  0.60980  Biso   1.000  C
  H2       1.0000 0.51230  0.48390  0.66020  Biso   1.000  H
  C3       1.0000 0.50974  0.42990  0.53990  Biso   1.000  C
  H3       1.0000 0.53650  0.41880  0.53280  Biso   1.000  H
  C4       1.0000 0.47491  0.41300  0.47970  Biso   1.000  C
  C5       1.0000 0.47230  0.37380  0.40490  Biso   1.000  C
  C6       1.0000 0.43742  0.35390  0.35930  Biso   1.000  C
  C7       1.0000 0.43300  0.31280  0.28770  Biso   1.000  C
  H4       1.0000 0.45400  0.29400  0.25710  Biso   1.000  H
  C8       1.0000 0.39330  0.30570  0.27150  Biso   1.000  C
  H5       1.0000 0.38070  0.28050  0.22910  Biso   1.000  H
  C9       1.0000 0.37380  0.34420  0.33190  Biso   1.000  C
  H6       1.0000 0.34560  0.34850  0.33370  Biso   1.000  H
  C10      1.0000 0.51070  0.35320  0.36500  Biso   1.000  C
  C11      1.0000 0.52202  0.30380  0.38770  Biso   1.000  C
  H7       1.0000 0.50580  0.28320  0.43090  Biso   1.000  H
  C12      1.0000 0.55729  0.28590  0.34560  Biso   1.000  C
  H8       1.0000 0.56480  0.25250  0.36060  Biso   1.000  H
  C13      1.0000 0.53667  0.38180  0.30430  Biso   1.000  C
  H9       1.0000 0.53070  0.41560  0.28840  Biso   1.000  H
  C14      1.0000 0.57100  0.36020  0.26790  Biso   1.000  C
  H10      1.0000 0.58880  0.38000  0.22750  Biso   1.000  H
  C15      1.0000 0.64330  0.98340  0.84210  Biso   1.000  C
  H11      1.0000 0.64420  0.95370  0.80090  Biso   1.000  H
  C16      1.0000 0.65640  0.03010  0.80340  Biso   1.000  C
  H12      1.0000 0.66560  0.03750  0.73320  Biso   1.000  H
  C17      1.0000 0.65270  0.06240  0.88880  Biso   1.000  C
  H13      1.0000 0.65980  0.09650  0.89010  Biso   1.000  H
  C18      1.0000 0.63600  0.03430  0.97610  Biso   1.000  C
  C19      1.0000 0.62550  0.05150  0.07700  Biso   1.000  C
  C20      1.0000 0.60867  0.02480  0.15670  Biso   1.000  C
  C21      1.0000 0.59770  0.04140  0.26410  Biso   1.000  C
  H14      1.0000 0.60070  0.07390  0.29290  Biso   1.000  H
  C22      1.0000 0.58220  0.00020  0.31590  Biso   1.000  C
  H15      1.0000 0.57150  0.99930  0.38630  Biso   1.000  H
  C23      1.0000 0.58530  0.96110  0.24550  Biso   1.000  C
  H16      1.0000 0.57710  0.92840  0.26280  Biso   1.000  H
  C24      1.0000 0.63350  0.10530  0.10160  Biso   1.000  C
  C25      1.0000 0.66170  0.12080  0.17640  Biso   1.000  C
  H17      1.0000 0.67810  0.09680  0.21220  Biso   1.000  H
  C26      1.0000 0.66700  0.17020  0.20130  Biso   1.000  C
  H18      1.0000 0.68650  0.17930  0.25470  Biso   1.000  H
  C27      1.0000 0.61260  0.14290  0.04440  Biso   1.000  C
  H19      1.0000 0.59470  0.13450  0.98630  Biso   1.000  H
  C28      1.0000 0.61820  0.19180  0.07240  Biso   1.000  C
  H20      1.0000 0.60300  0.21660  0.03560  Biso   1.000  H
  C29      1.0000 0.31650  0.44850  0.32560  Biso   1.000  C
  H21      1.0000 0.33200  0.46530  0.27380  Biso   1.000  H
  C30      1.0000 0.27410  0.44230  0.31620  Biso   1.000  C
  H22      1.0000 0.25690  0.45390  0.25940  Biso   1.000  H
  C31      1.0000 0.26320  0.41540  0.40820  Biso   1.000  C
  H23      1.0000 0.23700  0.40560  0.42700  Biso   1.000  H
  C32      1.0000 0.29985  0.40580  0.46770  Biso   1.000  C
  C33      1.0000 0.30385  0.37740  0.56100  Biso   1.000  C
  C34      1.0000 0.34062  0.36580  0.61300  Biso   1.000  C
  C35      1.0000 0.34680  0.33500  0.70660  Biso   1.000  C
  H24      1.0000 0.32680  0.31860  0.74630  Biso   1.000  H
  C36      1.0000 0.38680  0.33380  0.72730  Biso   1.000  C
  H25      1.0000 0.40040  0.31550  0.78270  Biso   1.000  H
  C37      1.0000 0.40448  0.36510  0.65100  Biso   1.000  C
  H26      1.0000 0.43240  0.37140  0.64720  Biso   1.000  H
  C38      1.0000 0.26684  0.35410  0.60530  Biso   1.000  C
  C39      1.0000 0.25390  0.36790  0.70490  Biso   1.000  C
  H27      1.0000 0.26770  0.39240  0.74680  Biso   1.000  H
  C40      1.0000 0.21960  0.34470  0.74240  Biso   1.000  C
  H28      1.0000 0.21090  0.35340  0.81240  Biso   1.000  H
  C41      1.0000 0.24510  0.31920  0.54380  Biso   1.000  C
  H29      1.0000 0.25290  0.31050  0.47290  Biso   1.000  H
  C42      1.0000 0.21187  0.29760  0.58960  Biso   1.000  C
  H30      1.0000 0.19830  0.27200  0.55030  Biso   1.000  H
  C43      1.0000 0.91898  0.45540  0.73750  Biso   1.000  C
  H31      1.0000 0.92770  0.42230  0.74940  Biso   1.000  H
  C44      1.0000 0.92240  0.49330  0.81280  Biso   1.000  C
  H32      1.0000 0.93400  0.49080  0.88350  Biso   1.000  H
  C45      1.0000 0.90590  0.53540  0.76590  Biso   1.000  C
  H33      1.0000 0.90330  0.56710  0.79880  Biso   1.000  H
  C46      1.0000 0.89332  0.52190  0.65810  Biso   1.000  C
  C47      1.0000 0.87500  0.55230  0.58160  Biso   1.000  C
  C48      1.0000 0.86339  0.53800  0.47670  Biso   1.000  C
  C49      1.0000 0.84553  0.56820  0.39450  Biso   1.000  C
  H34      1.0000 0.83920  0.60250  0.39960  Biso   1.000  H
  C50      1.0000 0.83934  0.53840  0.30730  Biso   1.000  C
  H35      1.0000 0.82710  0.54770  0.24010  Biso   1.000  H
  C51      1.0000 0.85427  0.49170  0.33450  Biso   1.000  C
  H36      1.0000 0.85420  0.46410  0.28680  Biso   1.000  H
  C52      1.0000 0.86706  0.60460  0.61460  Biso   1.000  C
  C53      1.0000 0.84020  0.61650  0.69090  Biso   1.000  C
  H37      1.0000 0.82480  0.59170  0.72530  Biso   1.000  H
  C54      1.0000 0.83602  0.66700  0.71710  Biso   1.000  C
  H38      1.0000 0.81750  0.67500  0.77130  Biso   1.000  H
  C55      1.0000 0.88860  0.64340  0.56400  Biso   1.000  C
  H39      1.0000 0.90750  0.63660  0.51000  Biso   1.000  H
  C56      1.0000 0.88059  0.69170  0.59730  Biso   1.000  C
  H40      1.0000 0.89420  0.71820  0.56330  Biso   1.000  H
  C57      1.0000 0.89815  0.37050  0.32720  Biso   1.000  C
  H41      1.0000 0.92630  0.37540  0.33030  Biso   1.000  H
  C58      1.0000 0.87720  0.34100  0.24850  Biso   1.000  C
  H42      1.0000 0.88860  0.32310  0.19060  Biso   1.000  H
  C59      1.0000 0.83770  0.34370  0.27290  Biso   1.000  C
  H43      1.0000 0.81640  0.32700  0.23610  Biso   1.000  H
  C60      1.0000 0.83414  0.37510  0.36070  Biso   1.000  C
  C61      1.0000 0.79965  0.38730  0.41800  Biso   1.000  C
  C62      1.0000 0.79808  0.41150  0.51440  Biso   1.000  C
  C63      1.0000 0.76380  0.42210  0.57840  Biso   1.000  C
  H44      1.0000 0.73670  0.41550  0.55860  Biso   1.000  H
  C64      1.0000 0.77730  0.44350  0.67310  Biso   1.000  C
  H45      1.0000 0.76160  0.45390  0.73180  Biso   1.000  H
  C65      1.0000 0.81916  0.44690  0.66600  Biso   1.000  C
  H46      1.0000 0.83620  0.46000  0.72180  Biso   1.000  H
  C66      1.0000 0.76139  0.36740  0.37080  Biso   1.000  C
  C67      1.0000 0.74080  0.33080  0.42700  Biso   1.000  C
  H47      1.0000 0.75050  0.31960  0.49570  Biso   1.000  H
  C68      1.0000 0.70591  0.31090  0.38080  Biso   1.000  C
  H48      1.0000 0.69170  0.28680  0.42060  Biso   1.000  H
  C69      1.0000 0.74589  0.38270  0.27050  Biso   1.000  C
  H49      1.0000 0.75880  0.40760  0.22990  Biso   1.000  H
  C70      1.0000 0.71092  0.36020  0.23160  Biso   1.000  C
  H50      1.0000 0.70000  0.37090  0.16380  Biso   1.000  H
  C71      1.0000 0.95265  0.47230  0.39500  Biso   1.000  C
  H51      1.0000 0.93550  0.49500  0.35740  Biso   1.000  H
  C72      1.0000 0.99447  0.46860  0.37880  Biso   1.000  C
  H52      1.0000 0.00980  0.48720  0.32920  Biso   1.000  H
  C73      1.0000 0.00794  0.43360  0.44770  Biso   1.000  C
  H53      1.0000 0.03500  0.42330  0.45730  Biso   1.000  H
  C74      1.0000 0.97424  0.41450  0.50470  Biso   1.000  C
  C75      1.0000 0.97292  0.37410  0.57400  Biso   1.000  C
  C76      1.0000 0.93865  0.35280  0.61520  Biso   1.000  C
  C77      1.0000 0.93470  0.30940  0.68100  Biso   1.000  C
  H54      1.0000 0.95590  0.28910  0.70820  Biso   1.000  H
  C78      1.0000 0.89550  0.30270  0.69740  Biso   1.000  C
  H55      1.0000 0.88380  0.27640  0.73660  Biso   1.000  H
  C79      1.0000 0.87490  0.34250  0.64490  Biso   1.000  C
  H56      1.0000 0.84670  0.34760  0.64550  Biso   1.000  H
  C80      1.0000 0.01194  0.35100  0.61410  Biso   1.000  C
  C81      1.0000 0.03889  0.37940  0.67580  Biso   1.000  C
  H57      1.0000 0.03330  0.41310  0.69220  Biso   1.000  H
  C82      1.0000 0.07433  0.35700  0.71290  Biso   1.000  C
  H58      1.0000 0.09240  0.37610  0.75660  Biso   1.000  H
  C83      1.0000 0.02269  0.30310  0.58410  Biso   1.000  C
  H59      1.0000 0.00610  0.28380  0.53660  Biso   1.000  H
  C84      1.0000 0.05832  0.28460  0.62610  Biso   1.000  C
  H60      1.0000 0.06520  0.25140  0.60860  Biso   1.000  H
  N1       1.0000 0.44178  0.43805  0.51770  Biso   1.000  N
  N2       1.0000 0.39932  0.37201  0.38310  Biso   1.000  N
  N3       1.0000 0.58077  0.31298  0.28600  Biso   1.000  N
  N4       1.0000 0.62976  0.98561  0.94270  Biso   1.000  N
  N5       1.0000 0.60098  0.97309  0.15040  Biso   1.000  N
  N6       1.0000 0.64514  0.20574  0.15180  Biso   1.000  N
  N7       1.0000 0.33188  0.42754  0.41730  Biso   1.000  N
  N8       1.0000 0.37661  0.38450  0.58460  Biso   1.000  N
  N9       1.0000 0.19802  0.31060  0.68530  Biso   1.000  N
  N10      1.0000 0.90142  0.47210  0.64460  Biso   1.000  N
  N11      1.0000 0.86862  0.49070  0.43590  Biso   1.000  N
  N12      1.0000 0.85470  0.70295  0.67500  Biso   1.000  N
  N13      1.0000 0.87263  0.39013  0.39560  Biso   1.000  N
  N14      1.0000 0.83204  0.42990  0.57300  Biso   1.000  N
  N15      1.0000 0.69155  0.32393  0.28480  Biso   1.000  N
  N16      1.0000 0.94018  0.44034  0.46860  Biso   1.000  N
  N17      1.0000 0.90054  0.37131  0.59520  Biso   1.000  N
  N18      1.0000 0.08414  0.31072  0.69050  Biso   1.000  N
  Ag3      1.0000 0.36143  0.78053  0.27811  Biso   1.000  Ag
  Ag4      1.0000 0.85732  0.77752  0.75208  Biso   1.000  Ag
  Co3      1.0000 0.61329  0.93014  0.03180  Biso   1.000  Co
  Co4      1.0000 0.11384  0.93224  0.98186  Biso   1.000  Co
  C85      1.0000 0.54458  0.96950  0.90640  Biso   1.000  C
  H61      1.0000 0.56100  0.99190  0.86820  Biso   1.000  H
  C86      1.0000 0.50367  0.96540  0.89020  Biso   1.000  C
  H62      1.0000 0.48770  0.98390  0.83980  Biso   1.000  H
  C87      1.0000 0.49026  0.92990  0.96010  Biso   1.000  C
  H63      1.0000 0.46350  0.91880  0.96720  Biso   1.000  H
  C88      1.0000 0.52509  0.91300  0.02030  Biso   1.000  C
  C89      1.0000 0.52770  0.87380  0.09510  Biso   1.000  C
  C90      1.0000 0.56258  0.85390  0.14070  Biso   1.000  C
  C91      1.0000 0.56700  0.81280  0.21230  Biso   1.000  C
  H64      1.0000 0.54600  0.79400  0.24290  Biso   1.000  H
  C92      1.0000 0.60670  0.80570  0.22850  Biso   1.000  C
  H65      1.0000 0.61930  0.78050  0.27090  Biso   1.000  H
  C93      1.0000 0.62620  0.84420  0.16810  Biso   1.000  C
  H66      1.0000 0.65440  0.84850  0.16630  Biso   1.000  H
  C94      1.0000 0.48930  0.85320  0.13500  Biso   1.000  C
  C95      1.0000 0.47798  0.80380  0.11230  Biso   1.000  C
  H67      1.0000 0.49420  0.78320  0.06910  Biso   1.000  H
  C96      1.0000 0.44271  0.78590  0.15440  Biso   1.000  C
  H68      1.0000 0.43520  0.75250  0.13940  Biso   1.000  H
  C97      1.0000 0.46333  0.88180  0.19570  Biso   1.000  C
  H69      1.0000 0.46930  0.91560  0.21160  Biso   1.000  H
  C98      1.0000 0.42900  0.86020  0.23210  Biso   1.000  C
  H70      1.0000 0.41120  0.88000  0.27250  Biso   1.000  H
  C99      1.0000 0.35670  0.48340  0.65790  Biso   1.000  C
  H71      1.0000 0.35580  0.45370  0.69910  Biso   1.000  H
  C100     1.0000 0.34360  0.53010  0.69660  Biso   1.000  C
  H72      1.0000 0.33440  0.53750  0.76680  Biso   1.000  H
  C101     1.0000 0.34730  0.56240  0.61120  Biso   1.000  C
  H73      1.0000 0.34020  0.59650  0.60990  Biso   1.000  H
  C102     1.0000 0.36400  0.53430  0.52390  Biso   1.000  C
  C103     1.0000 0.37450  0.55150  0.42300  Biso   1.000  C
  C104     1.0000 0.39133  0.52480  0.34330  Biso   1.000  C
  C105     1.0000 0.40230  0.54140  0.23590  Biso   1.000  C
  H74      1.0000 0.39930  0.57390  0.20710  Biso   1.000  H
  C106     1.0000 0.41780  0.50020  0.18410  Biso   1.000  C
  H75      1.0000 0.42850  0.49930  0.11370  Biso   1.000  H
  C107     1.0000 0.41470  0.46110  0.25450  Biso   1.000  C
  H76      1.0000 0.42290  0.42840  0.23720  Biso   1.000  H
  C108     1.0000 0.36650  0.60530  0.39840  Biso   1.000  C
  C109     1.0000 0.33830  0.62080  0.32360  Biso   1.000  C
  H77      1.0000 0.32190  0.59680  0.28780  Biso   1.000  H
  C110     1.0000 0.33300  0.67020  0.29870  Biso   1.000  C
  H78      1.0000 0.31350  0.67930  0.24530  Biso   1.000  H
  C111     1.0000 0.38740  0.64290  0.45560  Biso   1.000  C
  H79      1.0000 0.40530  0.63450  0.51370  Biso   1.000  H
  C112     1.0000 0.38180  0.69180  0.42760  Biso   1.000  C
  H80      1.0000 0.39700  0.71660  0.46440  Biso   1.000  H
  C113     1.0000 0.68350  0.94850  0.17440  Biso   1.000  C
  H81      1.0000 0.66800  0.96530  0.22620  Biso   1.000  H
  C114     1.0000 0.72590  0.94230  0.18380  Biso   1.000  C
  H82      1.0000 0.74310  0.95390  0.24060  Biso   1.000  H
  C115     1.0000 0.73680  0.91540  0.09180  Biso   1.000  C
  H83      1.0000 0.76300  0.90560  0.07300  Biso   1.000  H
  C116     1.0000 0.70015  0.90580  0.03230  Biso   1.000  C
  C117     1.0000 0.69615  0.87740  0.93900  Biso   1.000  C
  C118     1.0000 0.65938  0.86580  0.88700  Biso   1.000  C
  C119     1.0000 0.65320  0.83500  0.79340  Biso   1.000  C
  H84      1.0000 0.67320  0.81860  0.75370  Biso   1.000  H
  C120     1.0000 0.61320  0.83380  0.77270  Biso   1.000  C
  H85      1.0000 0.59960  0.81550  0.71730  Biso   1.000  H
  C121     1.0000 0.59552  0.86510  0.84900  Biso   1.000  C
  H86      1.0000 0.56760  0.87140  0.85280  Biso   1.000  H
  C122     1.0000 0.73316  0.85410  0.89470  Biso   1.000  C
  C123     1.0000 0.74610  0.86790  0.79510  Biso   1.000  C
  H87      1.0000 0.73230  0.89240  0.75320  Biso   1.000  H
  C124     1.0000 0.78040  0.84470  0.75760  Biso   1.000  C
  H88      1.0000 0.78910  0.85340  0.68760  Biso   1.000  H
  C125     1.0000 0.75490  0.81920  0.95620  Biso   1.000  C
  H89      1.0000 0.74710  0.81050  0.02710  Biso   1.000  H
  C126     1.0000 0.78813  0.79760  0.91040  Biso   1.000  C
  H90      1.0000 0.80170  0.77200  0.94970  Biso   1.000  H
  C127     1.0000 0.08102  0.95540  0.76250  Biso   1.000  C
  H91      1.0000 0.07230  0.92230  0.75060  Biso   1.000  H
  C128     1.0000 0.07760  0.99330  0.68720  Biso   1.000  C
  H92      1.0000 0.06600  0.99080  0.61650  Biso   1.000  H
  C129     1.0000 0.09410  0.03540  0.73410  Biso   1.000  C
  H93      1.0000 0.09670  0.06710  0.70120  Biso   1.000  H
  C130     1.0000 0.10668  0.02190  0.84190  Biso   1.000  C
  C131     1.0000 0.12500  0.05230  0.91840  Biso   1.000  C
  C132     1.0000 0.13661  0.03800  0.02330  Biso   1.000  C
  C133     1.0000 0.15447  0.06820  0.10550  Biso   1.000  C
  H94      1.0000 0.16080  0.10250  0.10040  Biso   1.000  H
  C134     1.0000 0.16066  0.03840  0.19270  Biso   1.000  C
  H95      1.0000 0.17290  0.04770  0.25990  Biso   1.000  H
  C135     1.0000 0.14573  0.99170  0.16550  Biso   1.000  C
  H96      1.0000 0.14580  0.96410  0.21320  Biso   1.000  H
  C136     1.0000 0.13294  0.10460  0.88540  Biso   1.000  C
  C137     1.0000 0.15980  0.11650  0.80910  Biso   1.000  C
  H97      1.0000 0.17520  0.09170  0.77470  Biso   1.000  H
  C138     1.0000 0.16398  0.16700  0.78290  Biso   1.000  C
  H98      1.0000 0.18250  0.17500  0.72870  Biso   1.000  H
  C139     1.0000 0.11140  0.14340  0.93600  Biso   1.000  C
  H99      1.0000 0.09250  0.13660  0.99000  Biso   1.000  H
  C140     1.0000 0.11941  0.19170  0.90270  Biso   1.000  C
  H100     1.0000 0.10580  0.21820  0.93670  Biso   1.000  H
  C141     1.0000 0.10185  0.87050  0.17280  Biso   1.000  C
  H101     1.0000 0.07370  0.87540  0.16970  Biso   1.000  H
  C142     1.0000 0.12280  0.84100  0.25150  Biso   1.000  C
  H102     1.0000 0.11140  0.82310  0.30940  Biso   1.000  H
  C143     1.0000 0.16230  0.84370  0.22710  Biso   1.000  C
  H103     1.0000 0.18360  0.82700  0.26390  Biso   1.000  H
  C144     1.0000 0.16586  0.87510  0.13930  Biso   1.000  C
  C145     1.0000 0.20035  0.88730  0.08200  Biso   1.000  C
  C146     1.0000 0.20192  0.91150  0.98560  Biso   1.000  C
  C147     1.0000 0.23620  0.92210  0.92160  Biso   1.000  C
  H104     1.0000 0.26330  0.91550  0.94140  Biso   1.000  H
  C148     1.0000 0.22270  0.94350  0.82690  Biso   1.000  C
  H105     1.0000 0.23840  0.95390  0.76820  Biso   1.000  H
  C149     1.0000 0.18084  0.94690  0.83400  Biso   1.000  C
  H106     1.0000 0.16380  0.96000  0.77820  Biso   1.000  H
  C150     1.0000 0.23861  0.86740  0.12920  Biso   1.000  C
  C151     1.0000 0.25920  0.83080  0.07300  Biso   1.000  C
  H107     1.0000 0.24950  0.81960  0.00430  Biso   1.000  H
  C152     1.0000 0.29409  0.81090  0.11920  Biso   1.000  C
  H108     1.0000 0.30830  0.78680  0.07940  Biso   1.000  H
  C153     1.0000 0.25411  0.88270  0.22950  Biso   1.000  C
  H109     1.0000 0.24120  0.90760  0.27010  Biso   1.000  H
  C154     1.0000 0.28908  0.86020  0.26840  Biso   1.000  C
  H110     1.0000 0.30000  0.87090  0.33620  Biso   1.000  H
  C155     1.0000 0.04735  0.97230  0.10500  Biso   1.000  C
  H111     1.0000 0.06450  0.99500  0.14260  Biso   1.000  H
  C156     1.0000 0.00553  0.96860  0.12120  Biso   1.000  C
  H112     1.0000 0.99020  0.98720  0.17080  Biso   1.000  H
  C157     1.0000 0.99206  0.93360  0.05230  Biso   1.000  C
  H113     1.0000 0.96500  0.92330  0.04270  Biso   1.000  H
  C158     1.0000 0.02576  0.91450  0.99530  Biso   1.000  C
  C159     1.0000 0.02708  0.87410  0.92600  Biso   1.000  C
  C160     1.0000 0.06135  0.85280  0.88480  Biso   1.000  C
  C161     1.0000 0.06530  0.80940  0.81900  Biso   1.000  C
  H114     1.0000 0.04410  0.78910  0.79180  Biso   1.000  H
  C162     1.0000 0.10450  0.80270  0.80260  Biso   1.000  C
  H115     1.0000 0.11620  0.77640  0.76340  Biso   1.000  H
  C163     1.0000 0.12510  0.84250  0.85510  Biso   1.000  C
  H116     1.0000 0.15330  0.84760  0.85450  Biso   1.000  H
  C164     1.0000 0.98806  0.85100  0.88590  Biso   1.000  C
  C165     1.0000 0.96111  0.87940  0.82420  Biso   1.000  C
  H117     1.0000 0.96670  0.91310  0.80780  Biso   1.000  H
  C166     1.0000 0.92567  0.85700  0.78710  Biso   1.000  C
  H118     1.0000 0.90760  0.87610  0.74340  Biso   1.000  H
  C167     1.0000 0.97731  0.80310  0.91590  Biso   1.000  C
  H119     1.0000 0.99390  0.78380  0.96340  Biso   1.000  H
  C168     1.0000 0.94168  0.78460  0.87390  Biso   1.000  C
  H120     1.0000 0.93480  0.75140  0.89140  Biso   1.000  H
  N19      1.0000 0.55822  0.93805  0.98230  Biso   1.000  N
  N20      1.0000 0.60068  0.87201  0.11690  Biso   1.000  N
  N21      1.0000 0.41923  0.81298  0.21400  Biso   1.000  N
  N22      1.0000 0.37024  0.48561  0.55730  Biso   1.000  N
  N23      1.0000 0.39902  0.47309  0.34960  Biso   1.000  N
  N24      1.0000 0.35486  0.70574  0.34820  Biso   1.000  N
  N25      1.0000 0.66812  0.92754  0.08270  Biso   1.000  N
  N26      1.0000 0.62339  0.88450  0.91540  Biso   1.000  N
  N27      1.0000 0.80198  0.81060  0.81470  Biso   1.000  N
  N28      1.0000 0.09858  0.97210  0.85540  Biso   1.000  N
  N29      1.0000 0.13138  0.99070  0.06410  Biso   1.000  N
  N30      1.0000 0.14530  0.20295  0.82500  Biso   1.000  N
  N31      1.0000 0.12737  0.89013  0.10440  Biso   1.000  N
  N32      1.0000 0.16796  0.92990  0.92700  Biso   1.000  N
  N33      1.0000 0.30845  0.82393  0.21520  Biso   1.000  N
  N34      1.0000 0.05982  0.94034  0.03140  Biso   1.000  N
  N35      1.0000 0.09946  0.87131  0.90480  Biso   1.000  N
  N36      1.0000 0.91586  0.81072  0.80950  Biso   1.000  N
  Ag5      1.0000 0.36143  0.71947  0.77811  Biso   1.000  Ag
  Ag6      1.0000 0.85732  0.72248  0.25208  Biso   1.000  Ag
  Co5      1.0000 0.61329  0.56986  0.53180  Biso   1.000  Co
  Co6      1.0000 0.11384  0.56776  0.48186  Biso   1.000  Co
  C169     1.0000 0.54458  0.53050  0.40640  Biso   1.000  C
  H121     1.0000 0.56100  0.50810  0.36820  Biso   1.000  H
  C170     1.0000 0.50367  0.53460  0.39020  Biso   1.000  C
  H122     1.0000 0.48770  0.51610  0.33980  Biso   1.000  H
  C171     1.0000 0.49026  0.57010  0.46010  Biso   1.000  C
  H123     1.0000 0.46350  0.58120  0.46720  Biso   1.000  H
  C172     1.0000 0.52509  0.58700  0.52030  Biso   1.000  C
  C173     1.0000 0.52770  0.62620  0.59510  Biso   1.000  C
  C174     1.0000 0.56258  0.64610  0.64070  Biso   1.000  C
  C175     1.0000 0.56700  0.68720  0.71230  Biso   1.000  C
  H124     1.0000 0.54600  0.70600  0.74290  Biso   1.000  H
  C176     1.0000 0.60670  0.69430  0.72850  Biso   1.000  C
  H125     1.0000 0.61930  0.71950  0.77090  Biso   1.000  H
  C177     1.0000 0.62620  0.65580  0.66810  Biso   1.000  C
  H126     1.0000 0.65440  0.65150  0.66630  Biso   1.000  H
  C178     1.0000 0.48930  0.64680  0.63500  Biso   1.000  C
  C179     1.0000 0.47798  0.69620  0.61230  Biso   1.000  C
  H127     1.0000 0.49420  0.71680  0.56910  Biso   1.000  H
  C180     1.0000 0.44271  0.71410  0.65440  Biso   1.000  C
  H128     1.0000 0.43520  0.74750  0.63940  Biso   1.000  H
  C181     1.0000 0.46333  0.61820  0.69570  Biso   1.000  C
  H129     1.0000 0.46930  0.58440  0.71160  Biso   1.000  H
  C182     1.0000 0.42900  0.63980  0.73210  Biso   1.000  C
  H130     1.0000 0.41120  0.62000  0.77250  Biso   1.000  H
  C183     1.0000 0.35670  0.01660  0.15790  Biso   1.000  C
  H131     1.0000 0.35580  0.04630  0.19910  Biso   1.000  H
  C184     1.0000 0.34360  0.96990  0.19660  Biso   1.000  C
  H132     1.0000 0.33440  0.96250  0.26680  Biso   1.000  H
  C185     1.0000 0.34730  0.93760  0.11120  Biso   1.000  C
  H133     1.0000 0.34020  0.90350  0.10990  Biso   1.000  H
  C186     1.0000 0.36400  0.96570  0.02390  Biso   1.000  C
  C187     1.0000 0.37450  0.94850  0.92300  Biso   1.000  C
  C188     1.0000 0.39133  0.97520  0.84330  Biso   1.000  C
  C189     1.0000 0.40230  0.95860  0.73590  Biso   1.000  C
  H134     1.0000 0.39930  0.92610  0.70710  Biso   1.000  H
  C190     1.0000 0.41780  0.99980  0.68410  Biso   1.000  C
  H135     1.0000 0.42850  0.00070  0.61370  Biso   1.000  H
  C191     1.0000 0.41470  0.03890  0.75450  Biso   1.000  C
  H136     1.0000 0.42290  0.07160  0.73720  Biso   1.000  H
  C192     1.0000 0.36650  0.89470  0.89840  Biso   1.000  C
  C193     1.0000 0.33830  0.87920  0.82360  Biso   1.000  C
  H137     1.0000 0.32190  0.90320  0.78780  Biso   1.000  H
  C194     1.0000 0.33300  0.82980  0.79870  Biso   1.000  C
  H138     1.0000 0.31350  0.82070  0.74530  Biso   1.000  H
  C195     1.0000 0.38740  0.85710  0.95560  Biso   1.000  C
  H139     1.0000 0.40530  0.86550  0.01370  Biso   1.000  H
  C196     1.0000 0.38180  0.80820  0.92760  Biso   1.000  C
  H140     1.0000 0.39700  0.78340  0.96440  Biso   1.000  H
  C197     1.0000 0.68350  0.55150  0.67440  Biso   1.000  C
  H141     1.0000 0.66800  0.53470  0.72620  Biso   1.000  H
  C198     1.0000 0.72590  0.55770  0.68380  Biso   1.000  C
  H142     1.0000 0.74310  0.54610  0.74060  Biso   1.000  H
  C199     1.0000 0.73680  0.58460  0.59180  Biso   1.000  C
  H143     1.0000 0.76300  0.59440  0.57300  Biso   1.000  H
  C200     1.0000 0.70015  0.59420  0.53230  Biso   1.000  C
  C201     1.0000 0.69615  0.62260  0.43900  Biso   1.000  C
  C202     1.0000 0.65938  0.63420  0.38700  Biso   1.000  C
  C203     1.0000 0.65320  0.66500  0.29340  Biso   1.000  C
  H144     1.0000 0.67320  0.68140  0.25370  Biso   1.000  H
  C204     1.0000 0.61320  0.66620  0.27270  Biso   1.000  C
  H145     1.0000 0.59960  0.68450  0.21730  Biso   1.000  H
  C205     1.0000 0.59552  0.63490  0.34900  Biso   1.000  C
  H146     1.0000 0.56760  0.62860  0.35280  Biso   1.000  H
  C206     1.0000 0.73316  0.64590  0.39470  Biso   1.000  C
  C207     1.0000 0.74610  0.63210  0.29510  Biso   1.000  C
  H147     1.0000 0.73230  0.60760  0.25320  Biso   1.000  H
  C208     1.0000 0.78040  0.65530  0.25760  Biso   1.000  C
  H148     1.0000 0.78910  0.64660  0.18760  Biso   1.000  H
  C209     1.0000 0.75490  0.68080  0.45620  Biso   1.000  C
  H149     1.0000 0.74710  0.68950  0.52710  Biso   1.000  H
  C210     1.0000 0.78813  0.70240  0.41040  Biso   1.000  C
  H150     1.0000 0.80170  0.72800  0.44970  Biso   1.000  H
  C211     1.0000 0.08102  0.54460  0.26250  Biso   1.000  C
  H151     1.0000 0.07230  0.57770  0.25060  Biso   1.000  H
  C212     1.0000 0.07760  0.50670  0.18720  Biso   1.000  C
  H152     1.0000 0.06600  0.50920  0.11650  Biso   1.000  H
  C213     1.0000 0.09410  0.46460  0.23410  Biso   1.000  C
  H153     1.0000 0.09670  0.43290  0.20120  Biso   1.000  H
  C214     1.0000 0.10668  0.47810  0.34190  Biso   1.000  C
  C215     1.0000 0.12500  0.44770  0.41840  Biso   1.000  C
  C216     1.0000 0.13661  0.46200  0.52330  Biso   1.000  C
  C217     1.0000 0.15447  0.43180  0.60550  Biso   1.000  C
  H154     1.0000 0.16080  0.39750  0.60040  Biso   1.000  H
  C218     1.0000 0.16066  0.46160  0.69270  Biso   1.000  C
  H155     1.0000 0.17290  0.45230  0.75990  Biso   1.000  H
  C219     1.0000 0.14573  0.50830  0.66550  Biso   1.000  C
  H156     1.0000 0.14580  0.53590  0.71320  Biso   1.000  H
  C220     1.0000 0.13294  0.39540  0.38540  Biso   1.000  C
  C221     1.0000 0.15980  0.38350  0.30910  Biso   1.000  C
  H157     1.0000 0.17520  0.40830  0.27470  Biso   1.000  H
  C222     1.0000 0.16398  0.33300  0.28290  Biso   1.000  C
  H158     1.0000 0.18250  0.32500  0.22870  Biso   1.000  H
  C223     1.0000 0.11140  0.35660  0.43600  Biso   1.000  C
  H159     1.0000 0.09250  0.36340  0.49000  Biso   1.000  H
  C224     1.0000 0.11941  0.30830  0.40270  Biso   1.000  C
  H160     1.0000 0.10580  0.28180  0.43670  Biso   1.000  H
  C225     1.0000 0.10185  0.62950  0.67280  Biso   1.000  C
  H161     1.0000 0.07370  0.62460  0.66970  Biso   1.000  H
  C226     1.0000 0.12280  0.65900  0.75150  Biso   1.000  C
  H162     1.0000 0.11140  0.67690  0.80940  Biso   1.000  H
  C227     1.0000 0.16230  0.65630  0.72710  Biso   1.000  C
  H163     1.0000 0.18360  0.67300  0.76390  Biso   1.000  H
  C228     1.0000 0.16586  0.62490  0.63930  Biso   1.000  C
  C229     1.0000 0.20035  0.61270  0.58200  Biso   1.000  C
  C230     1.0000 0.20192  0.58850  0.48560  Biso   1.000  C
  C231     1.0000 0.23620  0.57790  0.42160  Biso   1.000  C
  H164     1.0000 0.26330  0.58450  0.44140  Biso   1.000  H
  C232     1.0000 0.22270  0.55650  0.32690  Biso   1.000  C
  H165     1.0000 0.23840  0.54610  0.26820  Biso   1.000  H
  C233     1.0000 0.18084  0.55310  0.33400  Biso   1.000  C
  H166     1.0000 0.16380  0.54000  0.27820  Biso   1.000  H
  C234     1.0000 0.23861  0.63260  0.62920  Biso   1.000  C
  C235     1.0000 0.25920  0.66920  0.57300  Biso   1.000  C
  H167     1.0000 0.24950  0.68040  0.50430  Biso   1.000  H
  C236     1.0000 0.29409  0.68910  0.61920  Biso   1.000  C
  H168     1.0000 0.30830  0.71320  0.57940  Biso   1.000  H
  C237     1.0000 0.25411  0.61730  0.72950  Biso   1.000  C
  H169     1.0000 0.24120  0.59240  0.77010  Biso   1.000  H
  C238     1.0000 0.28908  0.63980  0.76840  Biso   1.000  C
  H170     1.0000 0.30000  0.62910  0.83620  Biso   1.000  H
  C239     1.0000 0.04735  0.52770  0.60500  Biso   1.000  C
  H171     1.0000 0.06450  0.50500  0.64260  Biso   1.000  H
  C240     1.0000 0.00553  0.53140  0.62120  Biso   1.000  C
  H172     1.0000 0.99020  0.51280  0.67080  Biso   1.000  H
  C241     1.0000 0.99206  0.56640  0.55230  Biso   1.000  C
  H173     1.0000 0.96500  0.57670  0.54270  Biso   1.000  H
  C242     1.0000 0.02576  0.58550  0.49530  Biso   1.000  C
  C243     1.0000 0.02708  0.62590  0.42600  Biso   1.000  C
  C244     1.0000 0.06135  0.64720  0.38480  Biso   1.000  C
  C245     1.0000 0.06530  0.69060  0.31900  Biso   1.000  C
  H174     1.0000 0.04410  0.71090  0.29180  Biso   1.000  H
  C246     1.0000 0.10450  0.69730  0.30260  Biso   1.000  C
  H175     1.0000 0.11620  0.72360  0.26340  Biso   1.000  H
  C247     1.0000 0.12510  0.65750  0.35510  Biso   1.000  C
  H176     1.0000 0.15330  0.65240  0.35450  Biso   1.000  H
  C248     1.0000 0.98806  0.64900  0.38590  Biso   1.000  C
  C249     1.0000 0.96111  0.62060  0.32420  Biso   1.000  C
  H177     1.0000 0.96670  0.58690  0.30780  Biso   1.000  H
  C250     1.0000 0.92567  0.64300  0.28710  Biso   1.000  C
  H178     1.0000 0.90760  0.62390  0.24340  Biso   1.000  H
  C251     1.0000 0.97731  0.69690  0.41590  Biso   1.000  C
  H179     1.0000 0.99390  0.71620  0.46340  Biso   1.000  H
  C252     1.0000 0.94168  0.71540  0.37390  Biso   1.000  C
  H180     1.0000 0.93480  0.74860  0.39140  Biso   1.000  H
  N37      1.0000 0.55822  0.56195  0.48230  Biso   1.000  N
  N38      1.0000 0.60068  0.62799  0.61690  Biso   1.000  N
  N39      1.0000 0.41923  0.68702  0.71400  Biso   1.000  N
  N40      1.0000 0.37024  0.01439  0.05730  Biso   1.000  N
  N41      1.0000 0.39902  0.02691  0.84960  Biso   1.000  N
  N42      1.0000 0.35486  0.79426  0.84820  Biso   1.000  N
  N43      1.0000 0.66812  0.57246  0.58270  Biso   1.000  N
  N44      1.0000 0.62339  0.61550  0.41540  Biso   1.000  N
  N45      1.0000 0.80198  0.68940  0.31470  Biso   1.000  N
  N46      1.0000 0.09858  0.52790  0.35540  Biso   1.000  N
  N47      1.0000 0.13138  0.50930  0.56410  Biso   1.000  N
  N48      1.0000 0.14530  0.29705  0.32500  Biso   1.000  N
  N49      1.0000 0.12737  0.60987  0.60440  Biso   1.000  N
  N50      1.0000 0.16796  0.57010  0.42700  Biso   1.000  N
  N51      1.0000 0.30845  0.67607  0.71520  Biso   1.000  N
  N52      1.0000 0.05982  0.55966  0.53140  Biso   1.000  N
  N53      1.0000 0.09946  0.62869  0.40480  Biso   1.000  N
  N54      1.0000 0.91586  0.68928  0.30950  Biso   1.000  N
  Ag7      1.0000 0.63857  0.21947  0.72189  Biso   1.000  Ag
  Ag8      1.0000 0.14268  0.22248  0.24792  Biso   1.000  Ag
  Co7      1.0000 0.38671  0.06986  0.96820  Biso   1.000  Co
  Co8      1.0000 0.88616  0.06776  0.01814  Biso   1.000  Co
  C253     1.0000 0.45542  0.03050  0.09360  Biso   1.000  C
  H181     1.0000 0.43900  0.00810  0.13180  Biso   1.000  H
  C254     1.0000 0.49633  0.03460  0.10980  Biso   1.000  C
  H182     1.0000 0.51230  0.01610  0.16020  Biso   1.000  H
  C255     1.0000 0.50974  0.07010  0.03990  Biso   1.000  C
  H183     1.0000 0.53650  0.08120  0.03280  Biso   1.000  H
  C256     1.0000 0.47491  0.08700  0.97970  Biso   1.000  C
  C257     1.0000 0.47230  0.12620  0.90490  Biso   1.000  C
  C258     1.0000 0.43742  0.14610  0.85930  Biso   1.000  C
  C259     1.0000 0.43300  0.18720  0.78770  Biso   1.000  C
  H184     1.0000 0.45400  0.20600  0.75710  Biso   1.000  H
  C260     1.0000 0.39330  0.19430  0.77150  Biso   1.000  C
  H185     1.0000 0.38070  0.21950  0.72910  Biso   1.000  H
  C261     1.0000 0.37380  0.15580  0.83190  Biso   1.000  C
  H186     1.0000 0.34560  0.15150  0.83370  Biso   1.000  H
  C262     1.0000 0.51070  0.14680  0.86500  Biso   1.000  C
  C263     1.0000 0.52202  0.19620  0.88770  Biso   1.000  C
  H187     1.0000 0.50580  0.21680  0.93090  Biso   1.000  H
  C264     1.0000 0.55729  0.21410  0.84560  Biso   1.000  C
  H188     1.0000 0.56480  0.24750  0.86060  Biso   1.000  H
  C265     1.0000 0.53667  0.11820  0.80430  Biso   1.000  C
  H189     1.0000 0.53070  0.08440  0.78840  Biso   1.000  H
  C266     1.0000 0.57100  0.13980  0.76790  Biso   1.000  C
  H190     1.0000 0.58880  0.12000  0.72750  Biso   1.000  H
  C267     1.0000 0.64330  0.51660  0.34210  Biso   1.000  C
  H191     1.0000 0.64420  0.54630  0.30090  Biso   1.000  H
  C268     1.0000 0.65640  0.46990  0.30340  Biso   1.000  C
  H192     1.0000 0.66560  0.46250  0.23320  Biso   1.000  H
  C269     1.0000 0.65270  0.43760  0.38880  Biso   1.000  C
  H193     1.0000 0.65980  0.40350  0.39010  Biso   1.000  H
  C270     1.0000 0.63600  0.46570  0.47610  Biso   1.000  C
  C271     1.0000 0.62550  0.44850  0.57700  Biso   1.000  C
  C272     1.0000 0.60867  0.47520  0.65670  Biso   1.000  C
  C273     1.0000 0.59770  0.45860  0.76410  Biso   1.000  C
  H194     1.0000 0.60070  0.42610  0.79290  Biso   1.000  H
  C274     1.0000 0.58220  0.49980  0.81590  Biso   1.000  C
  H195     1.0000 0.57150  0.50070  0.88630  Biso   1.000  H
  C275     1.0000 0.58530  0.53890  0.74550  Biso   1.000  C
  H196     1.0000 0.57710  0.57160  0.76280  Biso   1.000  H
  C276     1.0000 0.63350  0.39470  0.60160  Biso   1.000  C
  C277     1.0000 0.66170  0.37920  0.67640  Biso   1.000  C
  H197     1.0000 0.67810  0.40320  0.71220  Biso   1.000  H
  C278     1.0000 0.66700  0.32980  0.70130  Biso   1.000  C
  H198     1.0000 0.68650  0.32070  0.75470  Biso   1.000  H
  C279     1.0000 0.61260  0.35710  0.54440  Biso   1.000  C
  H199     1.0000 0.59470  0.36550  0.48630  Biso   1.000  H
  C280     1.0000 0.61820  0.30820  0.57240  Biso   1.000  C
  H200     1.0000 0.60300  0.28340  0.53560  Biso   1.000  H
  C281     1.0000 0.31650  0.05150  0.82560  Biso   1.000  C
  H201     1.0000 0.33200  0.03470  0.77380  Biso   1.000  H
  C282     1.0000 0.27410  0.05770  0.81620  Biso   1.000  C
  H202     1.0000 0.25690  0.04610  0.75940  Biso   1.000  H
  C283     1.0000 0.26320  0.08460  0.90820  Biso   1.000  C
  H203     1.0000 0.23700  0.09440  0.92700  Biso   1.000  H
  C284     1.0000 0.29985  0.09420  0.96770  Biso   1.000  C
  C285     1.0000 0.30385  0.12260  0.06100  Biso   1.000  C
  C286     1.0000 0.34062  0.13420  0.11300  Biso   1.000  C
  C287     1.0000 0.34680  0.16500  0.20660  Biso   1.000  C
  H204     1.0000 0.32680  0.18140  0.24630  Biso   1.000  H
  C288     1.0000 0.38680  0.16620  0.22730  Biso   1.000  C
  H205     1.0000 0.40040  0.18450  0.28270  Biso   1.000  H
  C289     1.0000 0.40448  0.13490  0.15100  Biso   1.000  C
  H206     1.0000 0.43240  0.12860  0.14720  Biso   1.000  H
  C290     1.0000 0.26684  0.14590  0.10530  Biso   1.000  C
  C291     1.0000 0.25390  0.13210  0.20490  Biso   1.000  C
  H207     1.0000 0.26770  0.10760  0.24680  Biso   1.000  H
  C292     1.0000 0.21960  0.15530  0.24240  Biso   1.000  C
  H208     1.0000 0.21090  0.14660  0.31240  Biso   1.000  H
  C293     1.0000 0.24510  0.18080  0.04380  Biso   1.000  C
  H209     1.0000 0.25290  0.18950  0.97290  Biso   1.000  H
  C294     1.0000 0.21187  0.20240  0.08960  Biso   1.000  C
  H210     1.0000 0.19830  0.22800  0.05030  Biso   1.000  H
  C295     1.0000 0.91898  0.04460  0.23750  Biso   1.000  C
  H211     1.0000 0.92770  0.07770  0.24940  Biso   1.000  H
  C296     1.0000 0.92240  0.00670  0.31280  Biso   1.000  C
  H212     1.0000 0.93400  0.00920  0.38350  Biso   1.000  H
  C297     1.0000 0.90590  0.96460  0.26590  Biso   1.000  C
  H213     1.0000 0.90330  0.93290  0.29880  Biso   1.000  H
  C298     1.0000 0.89332  0.97810  0.15810  Biso   1.000  C
  C299     1.0000 0.87500  0.94770  0.08160  Biso   1.000  C
  C300     1.0000 0.86339  0.96200  0.97670  Biso   1.000  C
  C301     1.0000 0.84553  0.93180  0.89450  Biso   1.000  C
  H214     1.0000 0.83920  0.89750  0.89960  Biso   1.000  H
  C302     1.0000 0.83934  0.96160  0.80730  Biso   1.000  C
  H215     1.0000 0.82710  0.95230  0.74010  Biso   1.000  H
  C303     1.0000 0.85427  0.00830  0.83450  Biso   1.000  C
  H216     1.0000 0.85420  0.03590  0.78680  Biso   1.000  H
  C304     1.0000 0.86706  0.89540  0.11460  Biso   1.000  C
  C305     1.0000 0.84020  0.88350  0.19090  Biso   1.000  C
  H217     1.0000 0.82480  0.90830  0.22530  Biso   1.000  H
  C306     1.0000 0.83602  0.83300  0.21710  Biso   1.000  C
  H218     1.0000 0.81750  0.82500  0.27130  Biso   1.000  H
  C307     1.0000 0.88860  0.85660  0.06400  Biso   1.000  C
  H219     1.0000 0.90750  0.86340  0.01000  Biso   1.000  H
  C308     1.0000 0.88059  0.80830  0.09730  Biso   1.000  C
  H220     1.0000 0.89420  0.78180  0.06330  Biso   1.000  H
  C309     1.0000 0.89815  0.12950  0.82720  Biso   1.000  C
  H221     1.0000 0.92630  0.12460  0.83030  Biso   1.000  H
  C310     1.0000 0.87720  0.15900  0.74850  Biso   1.000  C
  H222     1.0000 0.88860  0.17690  0.69060  Biso   1.000  H
  C311     1.0000 0.83770  0.15630  0.77290  Biso   1.000  C
  H223     1.0000 0.81640  0.17300  0.73610  Biso   1.000  H
  C312     1.0000 0.83414  0.12490  0.86070  Biso   1.000  C
  C313     1.0000 0.79965  0.11270  0.91800  Biso   1.000  C
  C314     1.0000 0.79808  0.08850  0.01440  Biso   1.000  C
  C315     1.0000 0.76380  0.07790  0.07840  Biso   1.000  C
  H224     1.0000 0.73670  0.08450  0.05860  Biso   1.000  H
  C316     1.0000 0.77730  0.05650  0.17310  Biso   1.000  C
  H225     1.0000 0.76160  0.04610  0.23180  Biso   1.000  H
  C317     1.0000 0.81916  0.05310  0.16600  Biso   1.000  C
  H226     1.0000 0.83620  0.04000  0.22180  Biso   1.000  H
  C318     1.0000 0.76139  0.13260  0.87080  Biso   1.000  C
  C319     1.0000 0.74080  0.16920  0.92700  Biso   1.000  C
  H227     1.0000 0.75050  0.18040  0.99570  Biso   1.000  H
  C320     1.0000 0.70591  0.18910  0.88080  Biso   1.000  C
  H228     1.0000 0.69170  0.21320  0.92060  Biso   1.000  H
  C321     1.0000 0.74589  0.11730  0.77050  Biso   1.000  C
  H229     1.0000 0.75880  0.09240  0.72990  Biso   1.000  H
  C322     1.0000 0.71092  0.13980  0.73160  Biso   1.000  C
  H230     1.0000 0.70000  0.12910  0.66380  Biso   1.000  H
  C323     1.0000 0.95265  0.02770  0.89500  Biso   1.000  C
  H231     1.0000 0.93550  0.00500  0.85740  Biso   1.000  H
  C324     1.0000 0.99447  0.03140  0.87880  Biso   1.000  C
  H232     1.0000 0.00980  0.01280  0.82920  Biso   1.000  H
  C325     1.0000 0.00794  0.06640  0.94770  Biso   1.000  C
  H233     1.0000 0.03500  0.07670  0.95730  Biso   1.000  H
  C326     1.0000 0.97424  0.08550  0.00470  Biso   1.000  C
  C327     1.0000 0.97292  0.12590  0.07400  Biso   1.000  C
  C328     1.0000 0.93865  0.14720  0.11520  Biso   1.000  C
  C329     1.0000 0.93470  0.19060  0.18100  Biso   1.000  C
  H234     1.0000 0.95590  0.21090  0.20820  Biso   1.000  H
  C330     1.0000 0.89550  0.19730  0.19740  Biso   1.000  C
  H235     1.0000 0.88380  0.22360  0.23660  Biso   1.000  H
  C331     1.0000 0.87490  0.15750  0.14490  Biso   1.000  C
  H236     1.0000 0.84670  0.15240  0.14550  Biso   1.000  H
  C332     1.0000 0.01194  0.14900  0.11410  Biso   1.000  C
  C333     1.0000 0.03889  0.12060  0.17580  Biso   1.000  C
  H237     1.0000 0.03330  0.08690  0.19220  Biso   1.000  H
  C334     1.0000 0.07433  0.14300  0.21290  Biso   1.000  C
  H238     1.0000 0.09240  0.12390  0.25660  Biso   1.000  H
  C335     1.0000 0.02269  0.19690  0.08410  Biso   1.000  C
  H239     1.0000 0.00610  0.21620  0.03660  Biso   1.000  H
  C336     1.0000 0.05832  0.21540  0.12610  Biso   1.000  C
  H240     1.0000 0.06520  0.24860  0.10860  Biso   1.000  H
  N55      1.0000 0.44178  0.06195  0.01770  Biso   1.000  N
  N56      1.0000 0.39932  0.12799  0.88310  Biso   1.000  N
  N57      1.0000 0.58077  0.18702  0.78600  Biso   1.000  N
  N58      1.0000 0.62976  0.51439  0.44270  Biso   1.000  N
  N59      1.0000 0.60098  0.52691  0.65040  Biso   1.000  N
  N60      1.0000 0.64514  0.29426  0.65180  Biso   1.000  N
  N61      1.0000 0.33188  0.07246  0.91730  Biso   1.000  N
  N62      1.0000 0.37661  0.11550  0.08460  Biso   1.000  N
  N63      1.0000 0.19802  0.18940  0.18530  Biso   1.000  N
  N64      1.0000 0.90142  0.02790  0.14460  Biso   1.000  N
  N65      1.0000 0.86862  0.00930  0.93590  Biso   1.000  N
  N66      1.0000 0.85470  0.79705  0.17500  Biso   1.000  N
  N67      1.0000 0.87263  0.10987  0.89560  Biso   1.000  N
  N68      1.0000 0.83204  0.07010  0.07300  Biso   1.000  N
  N69      1.0000 0.69155  0.17607  0.78480  Biso   1.000  N
  N70      1.0000 0.94018  0.05966  0.96860  Biso   1.000  N
  N71      1.0000 0.90054  0.12869  0.09520  Biso   1.000  N
  N72      1.0000 0.08414  0.18928  0.19050  Biso   1.000  N
