data_image0
_cell_length_a       32.4039
_cell_length_b       32.4039
_cell_length_c       32.4039
_cell_angle_alpha    60
_cell_angle_beta     60
_cell_angle_gamma    60

_symmetry_space_group_name_H-M    "P 1"
_symmetry_int_tables_number       1

loop_
  _symmetry_equiv_pos_as_xyz
  'x, y, z'

loop_
  _atom_site_label
  _atom_site_occupancy
  _atom_site_fract_x
  _atom_site_fract_y
  _atom_site_fract_z
  _atom_site_thermal_displace_type
  _atom_site_B_iso_or_equiv
  _atom_site_type_symbol
  N1       1.0000 0.90992  0.62642  0.29224  Biso   1.000  N
  H1       1.0000 0.87490  0.44270  0.31650  Biso   1.000  H
  H2       1.0000 0.89920  0.50940  0.32040  Biso   1.000  H
  C1       1.0000 0.95567  0.58053  0.29391  Biso   1.000  C
  H3       1.0000 0.97900  0.58160  0.25920  Biso   1.000  H
  H4       1.0000 0.94590  0.54990  0.31030  Biso   1.000  H
  C2       1.0000 0.75532  0.70838  0.30612  Biso   1.000  C
  H5       1.0000 0.74510  0.67790  0.32690  Biso   1.000  H
  H6       1.0000 0.77530  0.70810  0.32150  Biso   1.000  H
  H7       1.0000 0.82150  0.75450  0.18730  Biso   1.000  H
  C3       1.0000 0.92571  0.67231  0.26709  Biso   1.000  C
  H8       1.0000 0.89520  0.70300  0.26740  Biso   1.000  H
  H9       1.0000 0.94680  0.67520  0.23140  Biso   1.000  H
  C4       1.0000 0.87704  0.62676  0.34484  Biso   1.000  C
  H10      1.0000 0.86410  0.59810  0.36350  Biso   1.000  H
  H11      1.0000 0.84760  0.65840  0.34360  Biso   1.000  H
  H12      1.0000 0.59660  0.47620  0.52560  Biso   1.000  H
  C5       1.0000 0.78634  0.50956  0.31404  Biso   1.000  C
  H13      1.0000 0.74880  0.52180  0.32600  Biso   1.000  H
  H14      1.0000 0.79890  0.48850  0.29350  Biso   1.000  H
  H15      1.0000 0.67880  0.49840  0.44900  Biso   1.000  H
  C6       1.0000 0.80577  0.55561  0.28079  Biso   1.000  C
  H16      1.0000 0.82790  0.55310  0.24670  Biso   1.000  H
  H17      1.0000 0.77650  0.58730  0.27710  Biso   1.000  H
  N2       1.0000 0.62642  0.90992  0.17142  Biso   1.000  N
  H18      1.0000 0.44270  0.87490  0.36590  Biso   1.000  H
  H19      1.0000 0.50940  0.89920  0.27100  Biso   1.000  H
  C7       1.0000 0.58053  0.95567  0.16989  Biso   1.000  C
  H20      1.0000 0.58160  0.97900  0.18020  Biso   1.000  H
  H21      1.0000 0.54990  0.94590  0.19390  Biso   1.000  H
  C8       1.0000 0.70838  0.75532  0.23018  Biso   1.000  C
  H22      1.0000 0.67790  0.74510  0.25010  Biso   1.000  H
  H23      1.0000 0.70810  0.77530  0.19510  Biso   1.000  H
  H24      1.0000 0.75450  0.82150  0.23670  Biso   1.000  H
  C9       1.0000 0.67231  0.92571  0.13489  Biso   1.000  C
  H25      1.0000 0.70300  0.89520  0.13440  Biso   1.000  H
  H26      1.0000 0.67520  0.94680  0.14660  Biso   1.000  H
  C10      1.0000 0.62676  0.87704  0.15136  Biso   1.000  C
  H27      1.0000 0.59810  0.86410  0.17430  Biso   1.000  H
  H28      1.0000 0.65840  0.84760  0.15040  Biso   1.000  H
  H29      1.0000 0.47620  0.59660  0.40160  Biso   1.000  H
  C11      1.0000 0.50956  0.78634  0.39006  Biso   1.000  C
  H30      1.0000 0.52180  0.74880  0.40340  Biso   1.000  H
  H31      1.0000 0.48850  0.79890  0.41910  Biso   1.000  H
  H32      1.0000 0.49840  0.67880  0.37380  Biso   1.000  H
  C12      1.0000 0.55561  0.80577  0.35783  Biso   1.000  C
  H33      1.0000 0.55310  0.82790  0.37230  Biso   1.000  H
  H34      1.0000 0.58730  0.77650  0.35910  Biso   1.000  H
  N3       1.0000 0.29224  0.17142  0.90992  Biso   1.000  N
  H35      1.0000 0.31650  0.36590  0.87490  Biso   1.000  H
  H36      1.0000 0.32040  0.27100  0.89920  Biso   1.000  H
  C13      1.0000 0.29391  0.16989  0.95567  Biso   1.000  C
  H37      1.0000 0.25920  0.18020  0.97900  Biso   1.000  H
  H38      1.0000 0.31030  0.19390  0.94590  Biso   1.000  H
  C14      1.0000 0.30612  0.23018  0.75532  Biso   1.000  C
  H39      1.0000 0.32690  0.25010  0.74510  Biso   1.000  H
  H40      1.0000 0.32150  0.19510  0.77530  Biso   1.000  H
  H41      1.0000 0.18730  0.23670  0.82150  Biso   1.000  H
  C15      1.0000 0.26709  0.13489  0.92571  Biso   1.000  C
  H42      1.0000 0.26740  0.13440  0.89520  Biso   1.000  H
  H43      1.0000 0.23140  0.14660  0.94680  Biso   1.000  H
  C16      1.0000 0.34484  0.15136  0.87704  Biso   1.000  C
  H44      1.0000 0.36350  0.17430  0.86410  Biso   1.000  H
  H45      1.0000 0.34360  0.15040  0.84760  Biso   1.000  H
  H46      1.0000 0.52560  0.40160  0.59660  Biso   1.000  H
  C17      1.0000 0.31404  0.39006  0.78634  Biso   1.000  C
  H47      1.0000 0.32600  0.40340  0.74880  Biso   1.000  H
  H48      1.0000 0.29350  0.41910  0.79890  Biso   1.000  H
  H49      1.0000 0.44900  0.37380  0.67880  Biso   1.000  H
  C18      1.0000 0.28079  0.35783  0.80577  Biso   1.000  C
  H50      1.0000 0.24670  0.37230  0.82790  Biso   1.000  H
  H51      1.0000 0.27710  0.35910  0.77650  Biso   1.000  H
  N4       1.0000 0.17142  0.29224  0.62642  Biso   1.000  N
  H52      1.0000 0.36590  0.31650  0.44270  Biso   1.000  H
  H53      1.0000 0.27100  0.32040  0.50940  Biso   1.000  H
  C19      1.0000 0.16989  0.29391  0.58053  Biso   1.000  C
  H54      1.0000 0.18020  0.25920  0.58160  Biso   1.000  H
  H55      1.0000 0.19390  0.31030  0.54990  Biso   1.000  H
  C20      1.0000 0.23018  0.30612  0.70838  Biso   1.000  C
  H56      1.0000 0.25010  0.32690  0.67790  Biso   1.000  H
  H57      1.0000 0.19510  0.32150  0.70810  Biso   1.000  H
  H58      1.0000 0.23670  0.18730  0.75450  Biso   1.000  H
  C21      1.0000 0.13489  0.26709  0.67231  Biso   1.000  C
  H59      1.0000 0.13440  0.26740  0.70300  Biso   1.000  H
  H60      1.0000 0.14660  0.23140  0.67520  Biso   1.000  H
  C22      1.0000 0.15136  0.34484  0.62676  Biso   1.000  C
  H61      1.0000 0.17430  0.36350  0.59810  Biso   1.000  H
  H62      1.0000 0.15040  0.34360  0.65840  Biso   1.000  H
  H63      1.0000 0.40160  0.52560  0.47620  Biso   1.000  H
  C23      1.0000 0.39006  0.31404  0.50956  Biso   1.000  C
  H64      1.0000 0.40340  0.32600  0.52180  Biso   1.000  H
  H65      1.0000 0.41910  0.29350  0.48850  Biso   1.000  H
  H66      1.0000 0.37380  0.44900  0.49840  Biso   1.000  H
  C24      1.0000 0.35783  0.28079  0.55561  Biso   1.000  C
  H67      1.0000 0.37230  0.24670  0.55310  Biso   1.000  H
  H68      1.0000 0.35910  0.27710  0.58730  Biso   1.000  H
  N5       1.0000 0.29224  0.90992  0.62642  Biso   1.000  N
  H69      1.0000 0.31650  0.87490  0.44270  Biso   1.000  H
  H70      1.0000 0.32040  0.89920  0.50940  Biso   1.000  H
  C25      1.0000 0.29391  0.95567  0.58053  Biso   1.000  C
  H71      1.0000 0.25920  0.97900  0.58160  Biso   1.000  H
  H72      1.0000 0.31030  0.94590  0.54990  Biso   1.000  H
  C26      1.0000 0.30612  0.75532  0.70838  Biso   1.000  C
  H73      1.0000 0.32690  0.74510  0.67790  Biso   1.000  H
  H74      1.0000 0.32150  0.77530  0.70810  Biso   1.000  H
  H75      1.0000 0.18730  0.82150  0.75450  Biso   1.000  H
  C27      1.0000 0.26709  0.92571  0.67231  Biso   1.000  C
  H76      1.0000 0.26740  0.89520  0.70300  Biso   1.000  H
  H77      1.0000 0.23140  0.94680  0.67520  Biso   1.000  H
  C28      1.0000 0.34484  0.87704  0.62676  Biso   1.000  C
  H78      1.0000 0.36350  0.86410  0.59810  Biso   1.000  H
  H79      1.0000 0.34360  0.84760  0.65840  Biso   1.000  H
  H80      1.0000 0.52560  0.59660  0.47620  Biso   1.000  H
  C29      1.0000 0.31404  0.78634  0.50956  Biso   1.000  C
  H81      1.0000 0.32600  0.74880  0.52180  Biso   1.000  H
  H82      1.0000 0.29350  0.79890  0.48850  Biso   1.000  H
  H83      1.0000 0.44900  0.67880  0.49840  Biso   1.000  H
  C30      1.0000 0.28079  0.80577  0.55561  Biso   1.000  C
  H84      1.0000 0.24670  0.82790  0.55310  Biso   1.000  H
  H85      1.0000 0.27710  0.77650  0.58730  Biso   1.000  H
  N6       1.0000 0.17142  0.62642  0.90992  Biso   1.000  N
  H86      1.0000 0.36590  0.44270  0.87490  Biso   1.000  H
  H87      1.0000 0.27100  0.50940  0.89920  Biso   1.000  H
  C31      1.0000 0.16989  0.58053  0.95567  Biso   1.000  C
  H88      1.0000 0.18020  0.58160  0.97900  Biso   1.000  H
  H89      1.0000 0.19390  0.54990  0.94590  Biso   1.000  H
  C32      1.0000 0.23018  0.70838  0.75532  Biso   1.000  C
  H90      1.0000 0.25010  0.67790  0.74510  Biso   1.000  H
  H91      1.0000 0.19510  0.70810  0.77530  Biso   1.000  H
  H92      1.0000 0.23670  0.75450  0.82150  Biso   1.000  H
  C33      1.0000 0.13489  0.67231  0.92571  Biso   1.000  C
  H93      1.0000 0.13440  0.70300  0.89520  Biso   1.000  H
  H94      1.0000 0.14660  0.67520  0.94680  Biso   1.000  H
  C34      1.0000 0.15136  0.62676  0.87704  Biso   1.000  C
  H95      1.0000 0.17430  0.59810  0.86410  Biso   1.000  H
  H96      1.0000 0.15040  0.65840  0.84760  Biso   1.000  H
  H97      1.0000 0.40160  0.47620  0.59660  Biso   1.000  H
  C35      1.0000 0.39006  0.50956  0.78634  Biso   1.000  C
  H98      1.0000 0.40340  0.52180  0.74880  Biso   1.000  H
  H99      1.0000 0.41910  0.48850  0.79890  Biso   1.000  H
  H100     1.0000 0.37380  0.49840  0.67880  Biso   1.000  H
  C36      1.0000 0.35783  0.55561  0.80577  Biso   1.000  C
  H101     1.0000 0.37230  0.55310  0.82790  Biso   1.000  H
  H102     1.0000 0.35910  0.58730  0.77650  Biso   1.000  H
  N7       1.0000 0.90992  0.29224  0.17142  Biso   1.000  N
  H103     1.0000 0.87490  0.31650  0.36590  Biso   1.000  H
  H104     1.0000 0.89920  0.32040  0.27100  Biso   1.000  H
  C37      1.0000 0.95567  0.29391  0.16989  Biso   1.000  C
  H105     1.0000 0.97900  0.25920  0.18020  Biso   1.000  H
  H106     1.0000 0.94590  0.31030  0.19390  Biso   1.000  H
  C38      1.0000 0.75532  0.30612  0.23018  Biso   1.000  C
  H107     1.0000 0.74510  0.32690  0.25010  Biso   1.000  H
  H108     1.0000 0.77530  0.32150  0.19510  Biso   1.000  H
  H109     1.0000 0.82150  0.18730  0.23670  Biso   1.000  H
  C39      1.0000 0.92571  0.26709  0.13489  Biso   1.000  C
  H110     1.0000 0.89520  0.26740  0.13440  Biso   1.000  H
  H111     1.0000 0.94680  0.23140  0.14660  Biso   1.000  H
  C40      1.0000 0.87704  0.34484  0.15136  Biso   1.000  C
  H112     1.0000 0.86410  0.36350  0.17430  Biso   1.000  H
  H113     1.0000 0.84760  0.34360  0.15040  Biso   1.000  H
  H114     1.0000 0.59660  0.52560  0.40160  Biso   1.000  H
  C41      1.0000 0.78634  0.31404  0.39006  Biso   1.000  C
  H115     1.0000 0.74880  0.32600  0.40340  Biso   1.000  H
  H116     1.0000 0.79890  0.29350  0.41910  Biso   1.000  H
  H117     1.0000 0.67880  0.44900  0.37380  Biso   1.000  H
  C42      1.0000 0.80577  0.28079  0.35783  Biso   1.000  C
  H118     1.0000 0.82790  0.24670  0.37230  Biso   1.000  H
  H119     1.0000 0.77650  0.27710  0.35910  Biso   1.000  H
  N8       1.0000 0.62642  0.17142  0.29224  Biso   1.000  N
  H120     1.0000 0.44270  0.36590  0.31650  Biso   1.000  H
  H121     1.0000 0.50940  0.27100  0.32040  Biso   1.000  H
  C43      1.0000 0.58053  0.16989  0.29391  Biso   1.000  C
  H122     1.0000 0.58160  0.18020  0.25920  Biso   1.000  H
  H123     1.0000 0.54990  0.19390  0.31030  Biso   1.000  H
  C44      1.0000 0.70838  0.23018  0.30612  Biso   1.000  C
  H124     1.0000 0.67790  0.25010  0.32690  Biso   1.000  H
  H125     1.0000 0.70810  0.19510  0.32150  Biso   1.000  H
  H126     1.0000 0.75450  0.23670  0.18730  Biso   1.000  H
  C45      1.0000 0.67231  0.13489  0.26709  Biso   1.000  C
  H127     1.0000 0.70300  0.13440  0.26740  Biso   1.000  H
  H128     1.0000 0.67520  0.14660  0.23140  Biso   1.000  H
  C46      1.0000 0.62676  0.15136  0.34484  Biso   1.000  C
  H129     1.0000 0.59810  0.17430  0.36350  Biso   1.000  H
  H130     1.0000 0.65840  0.15040  0.34360  Biso   1.000  H
  H131     1.0000 0.47620  0.40160  0.52560  Biso   1.000  H
  C47      1.0000 0.50956  0.39006  0.31404  Biso   1.000  C
  H132     1.0000 0.52180  0.40340  0.32600  Biso   1.000  H
  H133     1.0000 0.48850  0.41910  0.29350  Biso   1.000  H
  H134     1.0000 0.49840  0.37380  0.44900  Biso   1.000  H
  C48      1.0000 0.55561  0.35783  0.28079  Biso   1.000  C
  H135     1.0000 0.55310  0.37230  0.24670  Biso   1.000  H
  H136     1.0000 0.58730  0.35910  0.27710  Biso   1.000  H
  N9       1.0000 0.62642  0.29224  0.90992  Biso   1.000  N
  H137     1.0000 0.44270  0.31650  0.87490  Biso   1.000  H
  H138     1.0000 0.50940  0.32040  0.89920  Biso   1.000  H
  C49      1.0000 0.58053  0.29391  0.95567  Biso   1.000  C
  H139     1.0000 0.58160  0.25920  0.97900  Biso   1.000  H
  H140     1.0000 0.54990  0.31030  0.94590  Biso   1.000  H
  C50      1.0000 0.70838  0.30612  0.75532  Biso   1.000  C
  H141     1.0000 0.67790  0.32690  0.74510  Biso   1.000  H
  H142     1.0000 0.70810  0.32150  0.77530  Biso   1.000  H
  H143     1.0000 0.75450  0.18730  0.82150  Biso   1.000  H
  C51      1.0000 0.67231  0.26709  0.92571  Biso   1.000  C
  H144     1.0000 0.70300  0.26740  0.89520  Biso   1.000  H
  H145     1.0000 0.67520  0.23140  0.94680  Biso   1.000  H
  C52      1.0000 0.62676  0.34484  0.87704  Biso   1.000  C
  H146     1.0000 0.59810  0.36350  0.86410  Biso   1.000  H
  H147     1.0000 0.65840  0.34360  0.84760  Biso   1.000  H
  H148     1.0000 0.47620  0.52560  0.59660  Biso   1.000  H
  C53      1.0000 0.50956  0.31404  0.78634  Biso   1.000  C
  H149     1.0000 0.52180  0.32600  0.74880  Biso   1.000  H
  H150     1.0000 0.48850  0.29350  0.79890  Biso   1.000  H
  H151     1.0000 0.49840  0.44900  0.67880  Biso   1.000  H
  C54      1.0000 0.55561  0.28079  0.80577  Biso   1.000  C
  H152     1.0000 0.55310  0.24670  0.82790  Biso   1.000  H
  H153     1.0000 0.58730  0.27710  0.77650  Biso   1.000  H
  N10      1.0000 0.90992  0.17142  0.62642  Biso   1.000  N
  H154     1.0000 0.87490  0.36590  0.44270  Biso   1.000  H
  H155     1.0000 0.89920  0.27100  0.50940  Biso   1.000  H
  C55      1.0000 0.95567  0.16989  0.58053  Biso   1.000  C
  H156     1.0000 0.97900  0.18020  0.58160  Biso   1.000  H
  H157     1.0000 0.94590  0.19390  0.54990  Biso   1.000  H
  C56      1.0000 0.75532  0.23018  0.70838  Biso   1.000  C
  H158     1.0000 0.74510  0.25010  0.67790  Biso   1.000  H
  H159     1.0000 0.77530  0.19510  0.70810  Biso   1.000  H
  H160     1.0000 0.82150  0.23670  0.75450  Biso   1.000  H
  C57      1.0000 0.92571  0.13489  0.67231  Biso   1.000  C
  H161     1.0000 0.89520  0.13440  0.70300  Biso   1.000  H
  H162     1.0000 0.94680  0.14660  0.67520  Biso   1.000  H
  C58      1.0000 0.87704  0.15136  0.62676  Biso   1.000  C
  H163     1.0000 0.86410  0.17430  0.59810  Biso   1.000  H
  H164     1.0000 0.84760  0.15040  0.65840  Biso   1.000  H
  H165     1.0000 0.59660  0.40160  0.47620  Biso   1.000  H
  C59      1.0000 0.78634  0.39006  0.50956  Biso   1.000  C
  H166     1.0000 0.74880  0.40340  0.52180  Biso   1.000  H
  H167     1.0000 0.79890  0.41910  0.48850  Biso   1.000  H
  H168     1.0000 0.67880  0.37380  0.49840  Biso   1.000  H
  C60      1.0000 0.80577  0.35783  0.55561  Biso   1.000  C
  H169     1.0000 0.82790  0.37230  0.55310  Biso   1.000  H
  H170     1.0000 0.77650  0.35910  0.58730  Biso   1.000  H
  N11      1.0000 0.17142  0.90992  0.29224  Biso   1.000  N
  H171     1.0000 0.36590  0.87490  0.31650  Biso   1.000  H
  H172     1.0000 0.27100  0.89920  0.32040  Biso   1.000  H
  C61      1.0000 0.16989  0.95567  0.29391  Biso   1.000  C
  H173     1.0000 0.18020  0.97900  0.25920  Biso   1.000  H
  H174     1.0000 0.19390  0.94590  0.31030  Biso   1.000  H
  C62      1.0000 0.23018  0.75532  0.30612  Biso   1.000  C
  H175     1.0000 0.25010  0.74510  0.32690  Biso   1.000  H
  H176     1.0000 0.19510  0.77530  0.32150  Biso   1.000  H
  H177     1.0000 0.23670  0.82150  0.18730  Biso   1.000  H
  C63      1.0000 0.13489  0.92571  0.26709  Biso   1.000  C
  H178     1.0000 0.13440  0.89520  0.26740  Biso   1.000  H
  H179     1.0000 0.14660  0.94680  0.23140  Biso   1.000  H
  C64      1.0000 0.15136  0.87704  0.34484  Biso   1.000  C
  H180     1.0000 0.17430  0.86410  0.36350  Biso   1.000  H
  H181     1.0000 0.15040  0.84760  0.34360  Biso   1.000  H
  H182     1.0000 0.40160  0.59660  0.52560  Biso   1.000  H
  C65      1.0000 0.39006  0.78634  0.31404  Biso   1.000  C
  H183     1.0000 0.40340  0.74880  0.32600  Biso   1.000  H
  H184     1.0000 0.41910  0.79890  0.29350  Biso   1.000  H
  H185     1.0000 0.37380  0.67880  0.44900  Biso   1.000  H
  C66      1.0000 0.35783  0.80577  0.28079  Biso   1.000  C
  H186     1.0000 0.37230  0.82790  0.24670  Biso   1.000  H
  H187     1.0000 0.35910  0.77650  0.27710  Biso   1.000  H
  N12      1.0000 0.29224  0.62642  0.17142  Biso   1.000  N
  H188     1.0000 0.31650  0.44270  0.36590  Biso   1.000  H
  H189     1.0000 0.32040  0.50940  0.27100  Biso   1.000  H
  C67      1.0000 0.29391  0.58053  0.16989  Biso   1.000  C
  H190     1.0000 0.25920  0.58160  0.18020  Biso   1.000  H
  H191     1.0000 0.31030  0.54990  0.19390  Biso   1.000  H
  C68      1.0000 0.30612  0.70838  0.23018  Biso   1.000  C
  H192     1.0000 0.32690  0.67790  0.25010  Biso   1.000  H
  H193     1.0000 0.32150  0.70810  0.19510  Biso   1.000  H
  H194     1.0000 0.18730  0.75450  0.23670  Biso   1.000  H
  C69      1.0000 0.26709  0.67231  0.13489  Biso   1.000  C
  H195     1.0000 0.26740  0.70300  0.13440  Biso   1.000  H
  H196     1.0000 0.23140  0.67520  0.14660  Biso   1.000  H
  C70      1.0000 0.34484  0.62676  0.15136  Biso   1.000  C
  H197     1.0000 0.36350  0.59810  0.17430  Biso   1.000  H
  H198     1.0000 0.34360  0.65840  0.15040  Biso   1.000  H
  H199     1.0000 0.52560  0.47620  0.40160  Biso   1.000  H
  C71      1.0000 0.31404  0.50956  0.39006  Biso   1.000  C
  H200     1.0000 0.32600  0.52180  0.40340  Biso   1.000  H
  H201     1.0000 0.29350  0.48850  0.41910  Biso   1.000  H
  H202     1.0000 0.44900  0.49840  0.37380  Biso   1.000  H
  C72      1.0000 0.28079  0.55561  0.35783  Biso   1.000  C
  H203     1.0000 0.24670  0.55310  0.37230  Biso   1.000  H
  H204     1.0000 0.27710  0.58730  0.35910  Biso   1.000  H
  N13      1.0000 0.34008  0.62358  0.07858  Biso   1.000  N
  H205     1.0000 0.37510  0.80730  0.88410  Biso   1.000  H
  H206     1.0000 0.35080  0.74060  0.97900  Biso   1.000  H
  C73      1.0000 0.29433  0.66947  0.08011  Biso   1.000  C
  H207     1.0000 0.27100  0.66840  0.06980  Biso   1.000  H
  H208     1.0000 0.30410  0.70010  0.05610  Biso   1.000  H
  C74      1.0000 0.49468  0.54162  0.01982  Biso   1.000  C
  H209     1.0000 0.50490  0.57210  0.99990  Biso   1.000  H
  H210     1.0000 0.47470  0.54190  0.05490  Biso   1.000  H
  H211     1.0000 0.42850  0.49550  0.01330  Biso   1.000  H
  C75      1.0000 0.32429  0.57769  0.11511  Biso   1.000  C
  H212     1.0000 0.35480  0.54700  0.11560  Biso   1.000  H
  H213     1.0000 0.30320  0.57480  0.10340  Biso   1.000  H
  C76      1.0000 0.37296  0.62324  0.09864  Biso   1.000  C
  H214     1.0000 0.38590  0.65190  0.07570  Biso   1.000  H
  H215     1.0000 0.40240  0.59160  0.09960  Biso   1.000  H
  H216     1.0000 0.65340  0.77380  0.84840  Biso   1.000  H
  C77      1.0000 0.46366  0.74044  0.85994  Biso   1.000  C
  H217     1.0000 0.50120  0.72820  0.84660  Biso   1.000  H
  H218     1.0000 0.45110  0.76150  0.83090  Biso   1.000  H
  H219     1.0000 0.57120  0.75160  0.87620  Biso   1.000  H
  C78      1.0000 0.44423  0.69439  0.89217  Biso   1.000  C
  H220     1.0000 0.42210  0.69690  0.87770  Biso   1.000  H
  H221     1.0000 0.47350  0.66270  0.89090  Biso   1.000  H
  N14      1.0000 0.62358  0.34008  0.95776  Biso   1.000  N
  H222     1.0000 0.80730  0.37510  0.93350  Biso   1.000  H
  H223     1.0000 0.74060  0.35080  0.92960  Biso   1.000  H
  C79      1.0000 0.66947  0.29433  0.95609  Biso   1.000  C
  H224     1.0000 0.66840  0.27100  0.99080  Biso   1.000  H
  H225     1.0000 0.70010  0.30410  0.93970  Biso   1.000  H
  C80      1.0000 0.54162  0.49468  0.94388  Biso   1.000  C
  H226     1.0000 0.57210  0.50490  0.92310  Biso   1.000  H
  H227     1.0000 0.54190  0.47470  0.92850  Biso   1.000  H
  H228     1.0000 0.49550  0.42850  0.06270  Biso   1.000  H
  C81      1.0000 0.57769  0.32429  0.98291  Biso   1.000  C
  H229     1.0000 0.54700  0.35480  0.98260  Biso   1.000  H
  H230     1.0000 0.57480  0.30320  0.01860  Biso   1.000  H
  C82      1.0000 0.62324  0.37296  0.90516  Biso   1.000  C
  H231     1.0000 0.65190  0.38590  0.88650  Biso   1.000  H
  H232     1.0000 0.59160  0.40240  0.90640  Biso   1.000  H
  H233     1.0000 0.77380  0.65340  0.72440  Biso   1.000  H
  C83      1.0000 0.74044  0.46366  0.93596  Biso   1.000  C
  H234     1.0000 0.72820  0.50120  0.92400  Biso   1.000  H
  H235     1.0000 0.76150  0.45110  0.95650  Biso   1.000  H
  H236     1.0000 0.75160  0.57120  0.80100  Biso   1.000  H
  C84      1.0000 0.69439  0.44423  0.96921  Biso   1.000  C
  H237     1.0000 0.69690  0.42210  0.00330  Biso   1.000  H
  H238     1.0000 0.66270  0.47350  0.97290  Biso   1.000  H
  N15      1.0000 0.95776  0.07858  0.62358  Biso   1.000  N
  H239     1.0000 0.93350  0.88410  0.80730  Biso   1.000  H
  H240     1.0000 0.92960  0.97900  0.74060  Biso   1.000  H
  C85      1.0000 0.95609  0.08011  0.66947  Biso   1.000  C
  H241     1.0000 0.99080  0.06980  0.66840  Biso   1.000  H
  H242     1.0000 0.93970  0.05610  0.70010  Biso   1.000  H
  C86      1.0000 0.94388  0.01982  0.54162  Biso   1.000  C
  H243     1.0000 0.92310  0.99990  0.57210  Biso   1.000  H
  H244     1.0000 0.92850  0.05490  0.54190  Biso   1.000  H
  H245     1.0000 0.06270  0.01330  0.49550  Biso   1.000  H
  C87      1.0000 0.98291  0.11511  0.57769  Biso   1.000  C
  H246     1.0000 0.98260  0.11560  0.54700  Biso   1.000  H
  H247     1.0000 0.01860  0.10340  0.57480  Biso   1.000  H
  C88      1.0000 0.90516  0.09864  0.62324  Biso   1.000  C
  H248     1.0000 0.88650  0.07570  0.65190  Biso   1.000  H
  H249     1.0000 0.90640  0.09960  0.59160  Biso   1.000  H
  H250     1.0000 0.72440  0.84840  0.77380  Biso   1.000  H
  C89      1.0000 0.93596  0.85994  0.74044  Biso   1.000  C
  H251     1.0000 0.92400  0.84660  0.72820  Biso   1.000  H
  H252     1.0000 0.95650  0.83090  0.76150  Biso   1.000  H
  H253     1.0000 0.80100  0.87620  0.75160  Biso   1.000  H
  C90      1.0000 0.96921  0.89217  0.69439  Biso   1.000  C
  H254     1.0000 0.00330  0.87770  0.69690  Biso   1.000  H
  H255     1.0000 0.97290  0.89090  0.66270  Biso   1.000  H
  N16      1.0000 0.07858  0.95776  0.34008  Biso   1.000  N
  H256     1.0000 0.88410  0.93350  0.37510  Biso   1.000  H
  H257     1.0000 0.97900  0.92960  0.35080  Biso   1.000  H
  C91      1.0000 0.08011  0.95609  0.29433  Biso   1.000  C
  H258     1.0000 0.06980  0.99080  0.27100  Biso   1.000  H
  H259     1.0000 0.05610  0.93970  0.30410  Biso   1.000  H
  C92      1.0000 0.01982  0.94388  0.49468  Biso   1.000  C
  H260     1.0000 0.99990  0.92310  0.50490  Biso   1.000  H
  H261     1.0000 0.05490  0.92850  0.47470  Biso   1.000  H
  H262     1.0000 0.01330  0.06270  0.42850  Biso   1.000  H
  C93      1.0000 0.11511  0.98291  0.32429  Biso   1.000  C
  H263     1.0000 0.11560  0.98260  0.35480  Biso   1.000  H
  H264     1.0000 0.10340  0.01860  0.30320  Biso   1.000  H
  C94      1.0000 0.09864  0.90516  0.37296  Biso   1.000  C
  H265     1.0000 0.07570  0.88650  0.38590  Biso   1.000  H
  H266     1.0000 0.09960  0.90640  0.40240  Biso   1.000  H
  H267     1.0000 0.84840  0.72440  0.65340  Biso   1.000  H
  C95      1.0000 0.85994  0.93596  0.46366  Biso   1.000  C
  H268     1.0000 0.84660  0.92400  0.50120  Biso   1.000  H
  H269     1.0000 0.83090  0.95650  0.45110  Biso   1.000  H
  H270     1.0000 0.87620  0.80100  0.57120  Biso   1.000  H
  C96      1.0000 0.89217  0.96921  0.44423  Biso   1.000  C
  H271     1.0000 0.87770  0.00330  0.42210  Biso   1.000  H
  H272     1.0000 0.89090  0.97290  0.47350  Biso   1.000  H
  N17      1.0000 0.95776  0.34008  0.07858  Biso   1.000  N
  H273     1.0000 0.93350  0.37510  0.88410  Biso   1.000  H
  H274     1.0000 0.92960  0.35080  0.97900  Biso   1.000  H
  C97      1.0000 0.95609  0.29433  0.08011  Biso   1.000  C
  H275     1.0000 0.99080  0.27100  0.06980  Biso   1.000  H
  H276     1.0000 0.93970  0.30410  0.05610  Biso   1.000  H
  C98      1.0000 0.94388  0.49468  0.01982  Biso   1.000  C
  H277     1.0000 0.92310  0.50490  0.99990  Biso   1.000  H
  H278     1.0000 0.92850  0.47470  0.05490  Biso   1.000  H
  H279     1.0000 0.06270  0.42850  0.01330  Biso   1.000  H
  C99      1.0000 0.98291  0.32429  0.11511  Biso   1.000  C
  H280     1.0000 0.98260  0.35480  0.11560  Biso   1.000  H
  H281     1.0000 0.01860  0.30320  0.10340  Biso   1.000  H
  C100     1.0000 0.90516  0.37296  0.09864  Biso   1.000  C
  H282     1.0000 0.88650  0.38590  0.07570  Biso   1.000  H
  H283     1.0000 0.90640  0.40240  0.09960  Biso   1.000  H
  H284     1.0000 0.72440  0.65340  0.84840  Biso   1.000  H
  C101     1.0000 0.93596  0.46366  0.85994  Biso   1.000  C
  H285     1.0000 0.92400  0.50120  0.84660  Biso   1.000  H
  H286     1.0000 0.95650  0.45110  0.83090  Biso   1.000  H
  H287     1.0000 0.80100  0.57120  0.87620  Biso   1.000  H
  C102     1.0000 0.96921  0.44423  0.89217  Biso   1.000  C
  H288     1.0000 0.00330  0.42210  0.87770  Biso   1.000  H
  H289     1.0000 0.97290  0.47350  0.89090  Biso   1.000  H
  N18      1.0000 0.07858  0.62358  0.95776  Biso   1.000  N
  H290     1.0000 0.88410  0.80730  0.93350  Biso   1.000  H
  H291     1.0000 0.97900  0.74060  0.92960  Biso   1.000  H
  C103     1.0000 0.08011  0.66947  0.95609  Biso   1.000  C
  H292     1.0000 0.06980  0.66840  0.99080  Biso   1.000  H
  H293     1.0000 0.05610  0.70010  0.93970  Biso   1.000  H
  C104     1.0000 0.01982  0.54162  0.94388  Biso   1.000  C
  H294     1.0000 0.99990  0.57210  0.92310  Biso   1.000  H
  H295     1.0000 0.05490  0.54190  0.92850  Biso   1.000  H
  H296     1.0000 0.01330  0.49550  0.06270  Biso   1.000  H
  C105     1.0000 0.11511  0.57769  0.98291  Biso   1.000  C
  H297     1.0000 0.11560  0.54700  0.98260  Biso   1.000  H
  H298     1.0000 0.10340  0.57480  0.01860  Biso   1.000  H
  C106     1.0000 0.09864  0.62324  0.90516  Biso   1.000  C
  H299     1.0000 0.07570  0.65190  0.88650  Biso   1.000  H
  H300     1.0000 0.09960  0.59160  0.90640  Biso   1.000  H
  H301     1.0000 0.84840  0.77380  0.72440  Biso   1.000  H
  C107     1.0000 0.85994  0.74044  0.93596  Biso   1.000  C
  H302     1.0000 0.84660  0.72820  0.92400  Biso   1.000  H
  H303     1.0000 0.83090  0.76150  0.95650  Biso   1.000  H
  H304     1.0000 0.87620  0.75160  0.80100  Biso   1.000  H
  C108     1.0000 0.89217  0.69439  0.96921  Biso   1.000  C
  H305     1.0000 0.87770  0.69690  0.00330  Biso   1.000  H
  H306     1.0000 0.89090  0.66270  0.97290  Biso   1.000  H
  N19      1.0000 0.34008  0.95776  0.62358  Biso   1.000  N
  H307     1.0000 0.37510  0.93350  0.80730  Biso   1.000  H
  H308     1.0000 0.35080  0.92960  0.74060  Biso   1.000  H
  C109     1.0000 0.29433  0.95609  0.66947  Biso   1.000  C
  H309     1.0000 0.27100  0.99080  0.66840  Biso   1.000  H
  H310     1.0000 0.30410  0.93970  0.70010  Biso   1.000  H
  C110     1.0000 0.49468  0.94388  0.54162  Biso   1.000  C
  H311     1.0000 0.50490  0.92310  0.57210  Biso   1.000  H
  H312     1.0000 0.47470  0.92850  0.54190  Biso   1.000  H
  H313     1.0000 0.42850  0.06270  0.49550  Biso   1.000  H
  C111     1.0000 0.32429  0.98291  0.57769  Biso   1.000  C
  H314     1.0000 0.35480  0.98260  0.54700  Biso   1.000  H
  H315     1.0000 0.30320  0.01860  0.57480  Biso   1.000  H
  C112     1.0000 0.37296  0.90516  0.62324  Biso   1.000  C
  H316     1.0000 0.38590  0.88650  0.65190  Biso   1.000  H
  H317     1.0000 0.40240  0.90640  0.59160  Biso   1.000  H
  H318     1.0000 0.65340  0.72440  0.77380  Biso   1.000  H
  C113     1.0000 0.46366  0.93596  0.74044  Biso   1.000  C
  H319     1.0000 0.50120  0.92400  0.72820  Biso   1.000  H
  H320     1.0000 0.45110  0.95650  0.76150  Biso   1.000  H
  H321     1.0000 0.57120  0.80100  0.75160  Biso   1.000  H
  C114     1.0000 0.44423  0.96921  0.69439  Biso   1.000  C
  H322     1.0000 0.42210  0.00330  0.69690  Biso   1.000  H
  H323     1.0000 0.47350  0.97290  0.66270  Biso   1.000  H
  N20      1.0000 0.62358  0.07858  0.34008  Biso   1.000  N
  H324     1.0000 0.80730  0.88410  0.37510  Biso   1.000  H
  H325     1.0000 0.74060  0.97900  0.35080  Biso   1.000  H
  C115     1.0000 0.66947  0.08011  0.29433  Biso   1.000  C
  H326     1.0000 0.66840  0.06980  0.27100  Biso   1.000  H
  H327     1.0000 0.70010  0.05610  0.30410  Biso   1.000  H
  C116     1.0000 0.54162  0.01982  0.49468  Biso   1.000  C
  H328     1.0000 0.57210  0.99990  0.50490  Biso   1.000  H
  H329     1.0000 0.54190  0.05490  0.47470  Biso   1.000  H
  H330     1.0000 0.49550  0.01330  0.42850  Biso   1.000  H
  C117     1.0000 0.57769  0.11511  0.32429  Biso   1.000  C
  H331     1.0000 0.54700  0.11560  0.35480  Biso   1.000  H
  H332     1.0000 0.57480  0.10340  0.30320  Biso   1.000  H
  C118     1.0000 0.62324  0.09864  0.37296  Biso   1.000  C
  H333     1.0000 0.65190  0.07570  0.38590  Biso   1.000  H
  H334     1.0000 0.59160  0.09960  0.40240  Biso   1.000  H
  H335     1.0000 0.77380  0.84840  0.65340  Biso   1.000  H
  C119     1.0000 0.74044  0.85994  0.46366  Biso   1.000  C
  H336     1.0000 0.72820  0.84660  0.50120  Biso   1.000  H
  H337     1.0000 0.76150  0.83090  0.45110  Biso   1.000  H
  H338     1.0000 0.75160  0.87620  0.57120  Biso   1.000  H
  C120     1.0000 0.69439  0.89217  0.44423  Biso   1.000  C
  H339     1.0000 0.69690  0.87770  0.42210  Biso   1.000  H
  H340     1.0000 0.66270  0.89090  0.47350  Biso   1.000  H
  N21      1.0000 0.62358  0.95776  0.07858  Biso   1.000  N
  H341     1.0000 0.80730  0.93350  0.88410  Biso   1.000  H
  H342     1.0000 0.74060  0.92960  0.97900  Biso   1.000  H
  C121     1.0000 0.66947  0.95609  0.08011  Biso   1.000  C
  H343     1.0000 0.66840  0.99080  0.06980  Biso   1.000  H
  H344     1.0000 0.70010  0.93970  0.05610  Biso   1.000  H
  C122     1.0000 0.54162  0.94388  0.01982  Biso   1.000  C
  H345     1.0000 0.57210  0.92310  0.99990  Biso   1.000  H
  H346     1.0000 0.54190  0.92850  0.05490  Biso   1.000  H
  H347     1.0000 0.49550  0.06270  0.01330  Biso   1.000  H
  C123     1.0000 0.57769  0.98291  0.11511  Biso   1.000  C
  H348     1.0000 0.54700  0.98260  0.11560  Biso   1.000  H
  H349     1.0000 0.57480  0.01860  0.10340  Biso   1.000  H
  C124     1.0000 0.62324  0.90516  0.09864  Biso   1.000  C
  H350     1.0000 0.65190  0.88650  0.07570  Biso   1.000  H
  H351     1.0000 0.59160  0.90640  0.09960  Biso   1.000  H
  H352     1.0000 0.77380  0.72440  0.84840  Biso   1.000  H
  C125     1.0000 0.74044  0.93596  0.85994  Biso   1.000  C
  H353     1.0000 0.72820  0.92400  0.84660  Biso   1.000  H
  H354     1.0000 0.76150  0.95650  0.83090  Biso   1.000  H
  H355     1.0000 0.75160  0.80100  0.87620  Biso   1.000  H
  C126     1.0000 0.69439  0.96921  0.89217  Biso   1.000  C
  H356     1.0000 0.69690  0.00330  0.87770  Biso   1.000  H
  H357     1.0000 0.66270  0.97290  0.89090  Biso   1.000  H
  N22      1.0000 0.34008  0.07858  0.95776  Biso   1.000  N
  H358     1.0000 0.37510  0.88410  0.93350  Biso   1.000  H
  H359     1.0000 0.35080  0.97900  0.92960  Biso   1.000  H
  C127     1.0000 0.29433  0.08011  0.95609  Biso   1.000  C
  H360     1.0000 0.27100  0.06980  0.99080  Biso   1.000  H
  H361     1.0000 0.30410  0.05610  0.93970  Biso   1.000  H
  C128     1.0000 0.49468  0.01982  0.94388  Biso   1.000  C
  H362     1.0000 0.50490  0.99990  0.92310  Biso   1.000  H
  H363     1.0000 0.47470  0.05490  0.92850  Biso   1.000  H
  H364     1.0000 0.42850  0.01330  0.06270  Biso   1.000  H
  C129     1.0000 0.32429  0.11511  0.98291  Biso   1.000  C
  H365     1.0000 0.35480  0.11560  0.98260  Biso   1.000  H
  H366     1.0000 0.30320  0.10340  0.01860  Biso   1.000  H
  C130     1.0000 0.37296  0.09864  0.90516  Biso   1.000  C
  H367     1.0000 0.38590  0.07570  0.88650  Biso   1.000  H
  H368     1.0000 0.40240  0.09960  0.90640  Biso   1.000  H
  H369     1.0000 0.65340  0.84840  0.72440  Biso   1.000  H
  C131     1.0000 0.46366  0.85994  0.93596  Biso   1.000  C
  H370     1.0000 0.50120  0.84660  0.92400  Biso   1.000  H
  H371     1.0000 0.45110  0.83090  0.95650  Biso   1.000  H
  H372     1.0000 0.57120  0.87620  0.80100  Biso   1.000  H
  C132     1.0000 0.44423  0.89217  0.96921  Biso   1.000  C
  H373     1.0000 0.42210  0.87770  0.00330  Biso   1.000  H
  H374     1.0000 0.47350  0.89090  0.97290  Biso   1.000  H
  N23      1.0000 0.07858  0.34008  0.62358  Biso   1.000  N
  H375     1.0000 0.88410  0.37510  0.80730  Biso   1.000  H
  H376     1.0000 0.97900  0.35080  0.74060  Biso   1.000  H
  C133     1.0000 0.08011  0.29433  0.66947  Biso   1.000  C
  H377     1.0000 0.06980  0.27100  0.66840  Biso   1.000  H
  H378     1.0000 0.05610  0.30410  0.70010  Biso   1.000  H
  C134     1.0000 0.01982  0.49468  0.54162  Biso   1.000  C
  H379     1.0000 0.99990  0.50490  0.57210  Biso   1.000  H
  H380     1.0000 0.05490  0.47470  0.54190  Biso   1.000  H
  H381     1.0000 0.01330  0.42850  0.49550  Biso   1.000  H
  C135     1.0000 0.11511  0.32429  0.57769  Biso   1.000  C
  H382     1.0000 0.11560  0.35480  0.54700  Biso   1.000  H
  H383     1.0000 0.10340  0.30320  0.57480  Biso   1.000  H
  C136     1.0000 0.09864  0.37296  0.62324  Biso   1.000  C
  H384     1.0000 0.07570  0.38590  0.65190  Biso   1.000  H
  H385     1.0000 0.09960  0.40240  0.59160  Biso   1.000  H
  H386     1.0000 0.84840  0.65340  0.77380  Biso   1.000  H
  C137     1.0000 0.85994  0.46366  0.74044  Biso   1.000  C
  H387     1.0000 0.84660  0.50120  0.72820  Biso   1.000  H
  H388     1.0000 0.83090  0.45110  0.76150  Biso   1.000  H
  H389     1.0000 0.87620  0.57120  0.75160  Biso   1.000  H
  C138     1.0000 0.89217  0.44423  0.69439  Biso   1.000  C
  H390     1.0000 0.87770  0.42210  0.69690  Biso   1.000  H
  H391     1.0000 0.89090  0.47350  0.66270  Biso   1.000  H
  N24      1.0000 0.95776  0.62358  0.34008  Biso   1.000  N
  H392     1.0000 0.93350  0.80730  0.37510  Biso   1.000  H
  H393     1.0000 0.92960  0.74060  0.35080  Biso   1.000  H
  C139     1.0000 0.95609  0.66947  0.29433  Biso   1.000  C
  H394     1.0000 0.99080  0.66840  0.27100  Biso   1.000  H
  H395     1.0000 0.93970  0.70010  0.30410  Biso   1.000  H
  C140     1.0000 0.94388  0.54162  0.49468  Biso   1.000  C
  H396     1.0000 0.92310  0.57210  0.50490  Biso   1.000  H
  H397     1.0000 0.92850  0.54190  0.47470  Biso   1.000  H
  H398     1.0000 0.06270  0.49550  0.42850  Biso   1.000  H
  C141     1.0000 0.98291  0.57769  0.32429  Biso   1.000  C
  H399     1.0000 0.98260  0.54700  0.35480  Biso   1.000  H
  H400     1.0000 0.01860  0.57480  0.30320  Biso   1.000  H
  C142     1.0000 0.90516  0.62324  0.37296  Biso   1.000  C
  H401     1.0000 0.88650  0.65190  0.38590  Biso   1.000  H
  H402     1.0000 0.90640  0.59160  0.40240  Biso   1.000  H
  H403     1.0000 0.72440  0.77380  0.65340  Biso   1.000  H
  C143     1.0000 0.93596  0.74044  0.46366  Biso   1.000  C
  H404     1.0000 0.92400  0.72820  0.50120  Biso   1.000  H
  H405     1.0000 0.95650  0.76150  0.45110  Biso   1.000  H
  H406     1.0000 0.80100  0.75160  0.57120  Biso   1.000  H
  C144     1.0000 0.96921  0.69439  0.44423  Biso   1.000  C
  H407     1.0000 0.00330  0.69690  0.42210  Biso   1.000  H
  H408     1.0000 0.97290  0.66270  0.47350  Biso   1.000  H
  N25      1.0000 0.34008  0.62358  0.95776  Biso   1.000  N
  H409     1.0000 0.37510  0.80730  0.93350  Biso   1.000  H
  H410     1.0000 0.35080  0.74060  0.92960  Biso   1.000  H
  C145     1.0000 0.29433  0.66947  0.95609  Biso   1.000  C
  H411     1.0000 0.27100  0.66840  0.99080  Biso   1.000  H
  H412     1.0000 0.30410  0.70010  0.93970  Biso   1.000  H
  C146     1.0000 0.49468  0.54162  0.94388  Biso   1.000  C
  H413     1.0000 0.50490  0.57210  0.92310  Biso   1.000  H
  H414     1.0000 0.47470  0.54190  0.92850  Biso   1.000  H
  H415     1.0000 0.42850  0.49550  0.06270  Biso   1.000  H
  C147     1.0000 0.32429  0.57769  0.98291  Biso   1.000  C
  H416     1.0000 0.35480  0.54700  0.98260  Biso   1.000  H
  H417     1.0000 0.30320  0.57480  0.01860  Biso   1.000  H
  C148     1.0000 0.37296  0.62324  0.90516  Biso   1.000  C
  H418     1.0000 0.38590  0.65190  0.88650  Biso   1.000  H
  H419     1.0000 0.40240  0.59160  0.90640  Biso   1.000  H
  H420     1.0000 0.65340  0.77380  0.72440  Biso   1.000  H
  C149     1.0000 0.46366  0.74044  0.93596  Biso   1.000  C
  H421     1.0000 0.50120  0.72820  0.92400  Biso   1.000  H
  H422     1.0000 0.45110  0.76150  0.95650  Biso   1.000  H
  H423     1.0000 0.57120  0.75160  0.80100  Biso   1.000  H
  C150     1.0000 0.44423  0.69439  0.96921  Biso   1.000  C
  H424     1.0000 0.42210  0.69690  0.00330  Biso   1.000  H
  H425     1.0000 0.47350  0.66270  0.97290  Biso   1.000  H
  N26      1.0000 0.62358  0.34008  0.07858  Biso   1.000  N
  H426     1.0000 0.80730  0.37510  0.88410  Biso   1.000  H
  H427     1.0000 0.74060  0.35080  0.97900  Biso   1.000  H
  C151     1.0000 0.66947  0.29433  0.08011  Biso   1.000  C
  H428     1.0000 0.66840  0.27100  0.06980  Biso   1.000  H
  H429     1.0000 0.70010  0.30410  0.05610  Biso   1.000  H
  C152     1.0000 0.54162  0.49468  0.01982  Biso   1.000  C
  H430     1.0000 0.57210  0.50490  0.99990  Biso   1.000  H
  H431     1.0000 0.54190  0.47470  0.05490  Biso   1.000  H
  H432     1.0000 0.49550  0.42850  0.01330  Biso   1.000  H
  C153     1.0000 0.57769  0.32429  0.11511  Biso   1.000  C
  H433     1.0000 0.54700  0.35480  0.11560  Biso   1.000  H
  H434     1.0000 0.57480  0.30320  0.10340  Biso   1.000  H
  C154     1.0000 0.62324  0.37296  0.09864  Biso   1.000  C
  H435     1.0000 0.65190  0.38590  0.07570  Biso   1.000  H
  H436     1.0000 0.59160  0.40240  0.09960  Biso   1.000  H
  H437     1.0000 0.77380  0.65340  0.84840  Biso   1.000  H
  C155     1.0000 0.74044  0.46366  0.85994  Biso   1.000  C
  H438     1.0000 0.72820  0.50120  0.84660  Biso   1.000  H
  H439     1.0000 0.76150  0.45110  0.83090  Biso   1.000  H
  H440     1.0000 0.75160  0.57120  0.87620  Biso   1.000  H
  C156     1.0000 0.69439  0.44423  0.89217  Biso   1.000  C
  H441     1.0000 0.69690  0.42210  0.87770  Biso   1.000  H
  H442     1.0000 0.66270  0.47350  0.89090  Biso   1.000  H
  N27      1.0000 0.95776  0.07858  0.34008  Biso   1.000  N
  H443     1.0000 0.93350  0.88410  0.37510  Biso   1.000  H
  H444     1.0000 0.92960  0.97900  0.35080  Biso   1.000  H
  C157     1.0000 0.95609  0.08011  0.29433  Biso   1.000  C
  H445     1.0000 0.99080  0.06980  0.27100  Biso   1.000  H
  H446     1.0000 0.93970  0.05610  0.30410  Biso   1.000  H
  C158     1.0000 0.94388  0.01982  0.49468  Biso   1.000  C
  H447     1.0000 0.92310  0.99990  0.50490  Biso   1.000  H
  H448     1.0000 0.92850  0.05490  0.47470  Biso   1.000  H
  H449     1.0000 0.06270  0.01330  0.42850  Biso   1.000  H
  C159     1.0000 0.98291  0.11511  0.32429  Biso   1.000  C
  H450     1.0000 0.98260  0.11560  0.35480  Biso   1.000  H
  H451     1.0000 0.01860  0.10340  0.30320  Biso   1.000  H
  C160     1.0000 0.90516  0.09864  0.37296  Biso   1.000  C
  H452     1.0000 0.88650  0.07570  0.38590  Biso   1.000  H
  H453     1.0000 0.90640  0.09960  0.40240  Biso   1.000  H
  H454     1.0000 0.72440  0.84840  0.65340  Biso   1.000  H
  C161     1.0000 0.93596  0.85994  0.46366  Biso   1.000  C
  H455     1.0000 0.92400  0.84660  0.50120  Biso   1.000  H
  H456     1.0000 0.95650  0.83090  0.45110  Biso   1.000  H
  H457     1.0000 0.80100  0.87620  0.57120  Biso   1.000  H
  C162     1.0000 0.96921  0.89217  0.44423  Biso   1.000  C
  H458     1.0000 0.00330  0.87770  0.42210  Biso   1.000  H
  H459     1.0000 0.97290  0.89090  0.47350  Biso   1.000  H
  N28      1.0000 0.07858  0.95776  0.62358  Biso   1.000  N
  H460     1.0000 0.88410  0.93350  0.80730  Biso   1.000  H
  H461     1.0000 0.97900  0.92960  0.74060  Biso   1.000  H
  C163     1.0000 0.08011  0.95609  0.66947  Biso   1.000  C
  H462     1.0000 0.06980  0.99080  0.66840  Biso   1.000  H
  H463     1.0000 0.05610  0.93970  0.70010  Biso   1.000  H
  C164     1.0000 0.01982  0.94388  0.54162  Biso   1.000  C
  H464     1.0000 0.99990  0.92310  0.57210  Biso   1.000  H
  H465     1.0000 0.05490  0.92850  0.54190  Biso   1.000  H
  H466     1.0000 0.01330  0.06270  0.49550  Biso   1.000  H
  C165     1.0000 0.11511  0.98291  0.57769  Biso   1.000  C
  H467     1.0000 0.11560  0.98260  0.54700  Biso   1.000  H
  H468     1.0000 0.10340  0.01860  0.57480  Biso   1.000  H
  C166     1.0000 0.09864  0.90516  0.62324  Biso   1.000  C
  H469     1.0000 0.07570  0.88650  0.65190  Biso   1.000  H
  H470     1.0000 0.09960  0.90640  0.59160  Biso   1.000  H
  H471     1.0000 0.84840  0.72440  0.77380  Biso   1.000  H
  C167     1.0000 0.85994  0.93596  0.74044  Biso   1.000  C
  H472     1.0000 0.84660  0.92400  0.72820  Biso   1.000  H
  H473     1.0000 0.83090  0.95650  0.76150  Biso   1.000  H
  H474     1.0000 0.87620  0.80100  0.75160  Biso   1.000  H
  C168     1.0000 0.89217  0.96921  0.69439  Biso   1.000  C
  H475     1.0000 0.87770  0.00330  0.69690  Biso   1.000  H
  H476     1.0000 0.89090  0.97290  0.66270  Biso   1.000  H
  N29      1.0000 0.95776  0.34008  0.62358  Biso   1.000  N
  H477     1.0000 0.93350  0.37510  0.80730  Biso   1.000  H
  H478     1.0000 0.92960  0.35080  0.74060  Biso   1.000  H
  C169     1.0000 0.95609  0.29433  0.66947  Biso   1.000  C
  H479     1.0000 0.99080  0.27100  0.66840  Biso   1.000  H
  H480     1.0000 0.93970  0.30410  0.70010  Biso   1.000  H
  C170     1.0000 0.94388  0.49468  0.54162  Biso   1.000  C
  H481     1.0000 0.92310  0.50490  0.57210  Biso   1.000  H
  H482     1.0000 0.92850  0.47470  0.54190  Biso   1.000  H
  H483     1.0000 0.06270  0.42850  0.49550  Biso   1.000  H
  C171     1.0000 0.98291  0.32429  0.57769  Biso   1.000  C
  H484     1.0000 0.98260  0.35480  0.54700  Biso   1.000  H
  H485     1.0000 0.01860  0.30320  0.57480  Biso   1.000  H
  C172     1.0000 0.90516  0.37296  0.62324  Biso   1.000  C
  H486     1.0000 0.88650  0.38590  0.65190  Biso   1.000  H
  H487     1.0000 0.90640  0.40240  0.59160  Biso   1.000  H
  H488     1.0000 0.72440  0.65340  0.77380  Biso   1.000  H
  C173     1.0000 0.93596  0.46366  0.74044  Biso   1.000  C
  H489     1.0000 0.92400  0.50120  0.72820  Biso   1.000  H
  H490     1.0000 0.95650  0.45110  0.76150  Biso   1.000  H
  H491     1.0000 0.80100  0.57120  0.75160  Biso   1.000  H
  C174     1.0000 0.96921  0.44423  0.69439  Biso   1.000  C
  H492     1.0000 0.00330  0.42210  0.69690  Biso   1.000  H
  H493     1.0000 0.97290  0.47350  0.66270  Biso   1.000  H
  N30      1.0000 0.07858  0.62358  0.34008  Biso   1.000  N
  H494     1.0000 0.88410  0.80730  0.37510  Biso   1.000  H
  H495     1.0000 0.97900  0.74060  0.35080  Biso   1.000  H
  C175     1.0000 0.08011  0.66947  0.29433  Biso   1.000  C
  H496     1.0000 0.06980  0.66840  0.27100  Biso   1.000  H
  H497     1.0000 0.05610  0.70010  0.30410  Biso   1.000  H
  C176     1.0000 0.01982  0.54162  0.49468  Biso   1.000  C
  H498     1.0000 0.99990  0.57210  0.50490  Biso   1.000  H
  H499     1.0000 0.05490  0.54190  0.47470  Biso   1.000  H
  H500     1.0000 0.01330  0.49550  0.42850  Biso   1.000  H
  C177     1.0000 0.11511  0.57769  0.32429  Biso   1.000  C
  H501     1.0000 0.11560  0.54700  0.35480  Biso   1.000  H
  H502     1.0000 0.10340  0.57480  0.30320  Biso   1.000  H
  C178     1.0000 0.09864  0.62324  0.37296  Biso   1.000  C
  H503     1.0000 0.07570  0.65190  0.38590  Biso   1.000  H
  H504     1.0000 0.09960  0.59160  0.40240  Biso   1.000  H
  H505     1.0000 0.84840  0.77380  0.65340  Biso   1.000  H
  C179     1.0000 0.85994  0.74044  0.46366  Biso   1.000  C
  H506     1.0000 0.84660  0.72820  0.50120  Biso   1.000  H
  H507     1.0000 0.83090  0.76150  0.45110  Biso   1.000  H
  H508     1.0000 0.87620  0.75160  0.57120  Biso   1.000  H
  C180     1.0000 0.89217  0.69439  0.44423  Biso   1.000  C
  H509     1.0000 0.87770  0.69690  0.42210  Biso   1.000  H
  H510     1.0000 0.89090  0.66270  0.47350  Biso   1.000  H
  N31      1.0000 0.34008  0.95776  0.07858  Biso   1.000  N
  H511     1.0000 0.37510  0.93350  0.88410  Biso   1.000  H
  H512     1.0000 0.35080  0.92960  0.97900  Biso   1.000  H
  C181     1.0000 0.29433  0.95609  0.08011  Biso   1.000  C
  H513     1.0000 0.27100  0.99080  0.06980  Biso   1.000  H
  H514     1.0000 0.30410  0.93970  0.05610  Biso   1.000  H
  C182     1.0000 0.49468  0.94388  0.01982  Biso   1.000  C
  H515     1.0000 0.50490  0.92310  0.99990  Biso   1.000  H
  H516     1.0000 0.47470  0.92850  0.05490  Biso   1.000  H
  H517     1.0000 0.42850  0.06270  0.01330  Biso   1.000  H
  C183     1.0000 0.32429  0.98291  0.11511  Biso   1.000  C
  H518     1.0000 0.35480  0.98260  0.11560  Biso   1.000  H
  H519     1.0000 0.30320  0.01860  0.10340  Biso   1.000  H
  C184     1.0000 0.37296  0.90516  0.09864  Biso   1.000  C
  H520     1.0000 0.38590  0.88650  0.07570  Biso   1.000  H
  H521     1.0000 0.40240  0.90640  0.09960  Biso   1.000  H
  H522     1.0000 0.65340  0.72440  0.84840  Biso   1.000  H
  C185     1.0000 0.46366  0.93596  0.85994  Biso   1.000  C
  H523     1.0000 0.50120  0.92400  0.84660  Biso   1.000  H
  H524     1.0000 0.45110  0.95650  0.83090  Biso   1.000  H
  H525     1.0000 0.57120  0.80100  0.87620  Biso   1.000  H
  C186     1.0000 0.44423  0.96921  0.89217  Biso   1.000  C
  H526     1.0000 0.42210  0.00330  0.87770  Biso   1.000  H
  H527     1.0000 0.47350  0.97290  0.89090  Biso   1.000  H
  N32      1.0000 0.62358  0.07858  0.95776  Biso   1.000  N
  H528     1.0000 0.80730  0.88410  0.93350  Biso   1.000  H
  H529     1.0000 0.74060  0.97900  0.92960  Biso   1.000  H
  C187     1.0000 0.66947  0.08011  0.95609  Biso   1.000  C
  H530     1.0000 0.66840  0.06980  0.99080  Biso   1.000  H
  H531     1.0000 0.70010  0.05610  0.93970  Biso   1.000  H
  C188     1.0000 0.54162  0.01982  0.94388  Biso   1.000  C
  H532     1.0000 0.57210  0.99990  0.92310  Biso   1.000  H
  H533     1.0000 0.54190  0.05490  0.92850  Biso   1.000  H
  H534     1.0000 0.49550  0.01330  0.06270  Biso   1.000  H
  C189     1.0000 0.57769  0.11511  0.98291  Biso   1.000  C
  H535     1.0000 0.54700  0.11560  0.98260  Biso   1.000  H
  H536     1.0000 0.57480  0.10340  0.01860  Biso   1.000  H
  C190     1.0000 0.62324  0.09864  0.90516  Biso   1.000  C
  H537     1.0000 0.65190  0.07570  0.88650  Biso   1.000  H
  H538     1.0000 0.59160  0.09960  0.90640  Biso   1.000  H
  H539     1.0000 0.77380  0.84840  0.72440  Biso   1.000  H
  C191     1.0000 0.74044  0.85994  0.93596  Biso   1.000  C
  H540     1.0000 0.72820  0.84660  0.92400  Biso   1.000  H
  H541     1.0000 0.76150  0.83090  0.95650  Biso   1.000  H
  H542     1.0000 0.75160  0.87620  0.80100  Biso   1.000  H
  C192     1.0000 0.69439  0.89217  0.96921  Biso   1.000  C
  H543     1.0000 0.69690  0.87770  0.00330  Biso   1.000  H
  H544     1.0000 0.66270  0.89090  0.97290  Biso   1.000  H
  N33      1.0000 0.62358  0.95776  0.34008  Biso   1.000  N
  H545     1.0000 0.80730  0.93350  0.37510  Biso   1.000  H
  H546     1.0000 0.74060  0.92960  0.35080  Biso   1.000  H
  C193     1.0000 0.66947  0.95609  0.29433  Biso   1.000  C
  H547     1.0000 0.66840  0.99080  0.27100  Biso   1.000  H
  H548     1.0000 0.70010  0.93970  0.30410  Biso   1.000  H
  C194     1.0000 0.54162  0.94388  0.49468  Biso   1.000  C
  H549     1.0000 0.57210  0.92310  0.50490  Biso   1.000  H
  H550     1.0000 0.54190  0.92850  0.47470  Biso   1.000  H
  H551     1.0000 0.49550  0.06270  0.42850  Biso   1.000  H
  C195     1.0000 0.57769  0.98291  0.32429  Biso   1.000  C
  H552     1.0000 0.54700  0.98260  0.35480  Biso   1.000  H
  H553     1.0000 0.57480  0.01860  0.30320  Biso   1.000  H
  C196     1.0000 0.62324  0.90516  0.37296  Biso   1.000  C
  H554     1.0000 0.65190  0.88650  0.38590  Biso   1.000  H
  H555     1.0000 0.59160  0.90640  0.40240  Biso   1.000  H
  H556     1.0000 0.77380  0.72440  0.65340  Biso   1.000  H
  C197     1.0000 0.74044  0.93596  0.46366  Biso   1.000  C
  H557     1.0000 0.72820  0.92400  0.50120  Biso   1.000  H
  H558     1.0000 0.76150  0.95650  0.45110  Biso   1.000  H
  H559     1.0000 0.75160  0.80100  0.57120  Biso   1.000  H
  C198     1.0000 0.69439  0.96921  0.44423  Biso   1.000  C
  H560     1.0000 0.69690  0.00330  0.42210  Biso   1.000  H
  H561     1.0000 0.66270  0.97290  0.47350  Biso   1.000  H
  N34      1.0000 0.34008  0.07858  0.62358  Biso   1.000  N
  H562     1.0000 0.37510  0.88410  0.80730  Biso   1.000  H
  H563     1.0000 0.35080  0.97900  0.74060  Biso   1.000  H
  C199     1.0000 0.29433  0.08011  0.66947  Biso   1.000  C
  H564     1.0000 0.27100  0.06980  0.66840  Biso   1.000  H
  H565     1.0000 0.30410  0.05610  0.70010  Biso   1.000  H
  C200     1.0000 0.49468  0.01982  0.54162  Biso   1.000  C
  H566     1.0000 0.50490  0.99990  0.57210  Biso   1.000  H
  H567     1.0000 0.47470  0.05490  0.54190  Biso   1.000  H
  H568     1.0000 0.42850  0.01330  0.49550  Biso   1.000  H
  C201     1.0000 0.32429  0.11511  0.57769  Biso   1.000  C
  H569     1.0000 0.35480  0.11560  0.54700  Biso   1.000  H
  H570     1.0000 0.30320  0.10340  0.57480  Biso   1.000  H
  C202     1.0000 0.37296  0.09864  0.62324  Biso   1.000  C
  H571     1.0000 0.38590  0.07570  0.65190  Biso   1.000  H
  H572     1.0000 0.40240  0.09960  0.59160  Biso   1.000  H
  H573     1.0000 0.65340  0.84840  0.77380  Biso   1.000  H
  C203     1.0000 0.46366  0.85994  0.74044  Biso   1.000  C
  H574     1.0000 0.50120  0.84660  0.72820  Biso   1.000  H
  H575     1.0000 0.45110  0.83090  0.76150  Biso   1.000  H
  H576     1.0000 0.57120  0.87620  0.75160  Biso   1.000  H
  C204     1.0000 0.44423  0.89217  0.69439  Biso   1.000  C
  H577     1.0000 0.42210  0.87770  0.69690  Biso   1.000  H
  H578     1.0000 0.47350  0.89090  0.66270  Biso   1.000  H
  N35      1.0000 0.07858  0.34008  0.95776  Biso   1.000  N
  H579     1.0000 0.88410  0.37510  0.93350  Biso   1.000  H
  H580     1.0000 0.97900  0.35080  0.92960  Biso   1.000  H
  C205     1.0000 0.08011  0.29433  0.95609  Biso   1.000  C
  H581     1.0000 0.06980  0.27100  0.99080  Biso   1.000  H
  H582     1.0000 0.05610  0.30410  0.93970  Biso   1.000  H
  C206     1.0000 0.01982  0.49468  0.94388  Biso   1.000  C
  H583     1.0000 0.99990  0.50490  0.92310  Biso   1.000  H
  H584     1.0000 0.05490  0.47470  0.92850  Biso   1.000  H
  H585     1.0000 0.01330  0.42850  0.06270  Biso   1.000  H
  C207     1.0000 0.11511  0.32429  0.98291  Biso   1.000  C
  H586     1.0000 0.11560  0.35480  0.98260  Biso   1.000  H
  H587     1.0000 0.10340  0.30320  0.01860  Biso   1.000  H
  C208     1.0000 0.09864  0.37296  0.90516  Biso   1.000  C
  H588     1.0000 0.07570  0.38590  0.88650  Biso   1.000  H
  H589     1.0000 0.09960  0.40240  0.90640  Biso   1.000  H
  H590     1.0000 0.84840  0.65340  0.72440  Biso   1.000  H
  C209     1.0000 0.85994  0.46366  0.93596  Biso   1.000  C
  H591     1.0000 0.84660  0.50120  0.92400  Biso   1.000  H
  H592     1.0000 0.83090  0.45110  0.95650  Biso   1.000  H
  H593     1.0000 0.87620  0.57120  0.80100  Biso   1.000  H
  C210     1.0000 0.89217  0.44423  0.96921  Biso   1.000  C
  H594     1.0000 0.87770  0.42210  0.00330  Biso   1.000  H
  H595     1.0000 0.89090  0.47350  0.97290  Biso   1.000  H
  N36      1.0000 0.95776  0.62358  0.07858  Biso   1.000  N
  H596     1.0000 0.93350  0.80730  0.88410  Biso   1.000  H
  H597     1.0000 0.92960  0.74060  0.97900  Biso   1.000  H
  C211     1.0000 0.95609  0.66947  0.08011  Biso   1.000  C
  H598     1.0000 0.99080  0.66840  0.06980  Biso   1.000  H
  H599     1.0000 0.93970  0.70010  0.05610  Biso   1.000  H
  C212     1.0000 0.94388  0.54162  0.01982  Biso   1.000  C
  H600     1.0000 0.92310  0.57210  0.99990  Biso   1.000  H
  H601     1.0000 0.92850  0.54190  0.05490  Biso   1.000  H
  H602     1.0000 0.06270  0.49550  0.01330  Biso   1.000  H
  C213     1.0000 0.98291  0.57769  0.11511  Biso   1.000  C
  H603     1.0000 0.98260  0.54700  0.11560  Biso   1.000  H
  H604     1.0000 0.01860  0.57480  0.10340  Biso   1.000  H
  C214     1.0000 0.90516  0.62324  0.09864  Biso   1.000  C
  H605     1.0000 0.88650  0.65190  0.07570  Biso   1.000  H
  H606     1.0000 0.90640  0.59160  0.09960  Biso   1.000  H
  H607     1.0000 0.72440  0.77380  0.84840  Biso   1.000  H
  C215     1.0000 0.93596  0.74044  0.85994  Biso   1.000  C
  H608     1.0000 0.92400  0.72820  0.84660  Biso   1.000  H
  H609     1.0000 0.95650  0.76150  0.83090  Biso   1.000  H
  H610     1.0000 0.80100  0.75160  0.87620  Biso   1.000  H
  C216     1.0000 0.96921  0.69439  0.89217  Biso   1.000  C
  H611     1.0000 0.00330  0.69690  0.87770  Biso   1.000  H
  H612     1.0000 0.97290  0.66270  0.89090  Biso   1.000  H
  N37      1.0000 0.90992  0.62642  0.17142  Biso   1.000  N
  H613     1.0000 0.87490  0.44270  0.36590  Biso   1.000  H
  H614     1.0000 0.89920  0.50940  0.27100  Biso   1.000  H
  C217     1.0000 0.95567  0.58053  0.16989  Biso   1.000  C
  H615     1.0000 0.97900  0.58160  0.18020  Biso   1.000  H
  H616     1.0000 0.94590  0.54990  0.19390  Biso   1.000  H
  C218     1.0000 0.75532  0.70838  0.23018  Biso   1.000  C
  H617     1.0000 0.74510  0.67790  0.25010  Biso   1.000  H
  H618     1.0000 0.77530  0.70810  0.19510  Biso   1.000  H
  H619     1.0000 0.82150  0.75450  0.23670  Biso   1.000  H
  C219     1.0000 0.92571  0.67231  0.13489  Biso   1.000  C
  H620     1.0000 0.89520  0.70300  0.13440  Biso   1.000  H
  H621     1.0000 0.94680  0.67520  0.14660  Biso   1.000  H
  C220     1.0000 0.87704  0.62676  0.15136  Biso   1.000  C
  H622     1.0000 0.86410  0.59810  0.17430  Biso   1.000  H
  H623     1.0000 0.84760  0.65840  0.15040  Biso   1.000  H
  H624     1.0000 0.59660  0.47620  0.40160  Biso   1.000  H
  C221     1.0000 0.78634  0.50956  0.39006  Biso   1.000  C
  H625     1.0000 0.74880  0.52180  0.40340  Biso   1.000  H
  H626     1.0000 0.79890  0.48850  0.41910  Biso   1.000  H
  H627     1.0000 0.67880  0.49840  0.37380  Biso   1.000  H
  C222     1.0000 0.80577  0.55561  0.35783  Biso   1.000  C
  H628     1.0000 0.82790  0.55310  0.37230  Biso   1.000  H
  H629     1.0000 0.77650  0.58730  0.35910  Biso   1.000  H
  N38      1.0000 0.62642  0.90992  0.29224  Biso   1.000  N
  H630     1.0000 0.44270  0.87490  0.31650  Biso   1.000  H
  H631     1.0000 0.50940  0.89920  0.32040  Biso   1.000  H
  C223     1.0000 0.58053  0.95567  0.29391  Biso   1.000  C
  H632     1.0000 0.58160  0.97900  0.25920  Biso   1.000  H
  H633     1.0000 0.54990  0.94590  0.31030  Biso   1.000  H
  C224     1.0000 0.70838  0.75532  0.30612  Biso   1.000  C
  H634     1.0000 0.67790  0.74510  0.32690  Biso   1.000  H
  H635     1.0000 0.70810  0.77530  0.32150  Biso   1.000  H
  H636     1.0000 0.75450  0.82150  0.18730  Biso   1.000  H
  C225     1.0000 0.67231  0.92571  0.26709  Biso   1.000  C
  H637     1.0000 0.70300  0.89520  0.26740  Biso   1.000  H
  H638     1.0000 0.67520  0.94680  0.23140  Biso   1.000  H
  C226     1.0000 0.62676  0.87704  0.34484  Biso   1.000  C
  H639     1.0000 0.59810  0.86410  0.36350  Biso   1.000  H
  H640     1.0000 0.65840  0.84760  0.34360  Biso   1.000  H
  H641     1.0000 0.47620  0.59660  0.52560  Biso   1.000  H
  C227     1.0000 0.50956  0.78634  0.31404  Biso   1.000  C
  H642     1.0000 0.52180  0.74880  0.32600  Biso   1.000  H
  H643     1.0000 0.48850  0.79890  0.29350  Biso   1.000  H
  H644     1.0000 0.49840  0.67880  0.44900  Biso   1.000  H
  C228     1.0000 0.55561  0.80577  0.28079  Biso   1.000  C
  H645     1.0000 0.55310  0.82790  0.24670  Biso   1.000  H
  H646     1.0000 0.58730  0.77650  0.27710  Biso   1.000  H
  N39      1.0000 0.29224  0.17142  0.62642  Biso   1.000  N
  H647     1.0000 0.31650  0.36590  0.44270  Biso   1.000  H
  H648     1.0000 0.32040  0.27100  0.50940  Biso   1.000  H
  C229     1.0000 0.29391  0.16989  0.58053  Biso   1.000  C
  H649     1.0000 0.25920  0.18020  0.58160  Biso   1.000  H
  H650     1.0000 0.31030  0.19390  0.54990  Biso   1.000  H
  C230     1.0000 0.30612  0.23018  0.70838  Biso   1.000  C
  H651     1.0000 0.32690  0.25010  0.67790  Biso   1.000  H
  H652     1.0000 0.32150  0.19510  0.70810  Biso   1.000  H
  H653     1.0000 0.18730  0.23670  0.75450  Biso   1.000  H
  C231     1.0000 0.26709  0.13489  0.67231  Biso   1.000  C
  H654     1.0000 0.26740  0.13440  0.70300  Biso   1.000  H
  H655     1.0000 0.23140  0.14660  0.67520  Biso   1.000  H
  C232     1.0000 0.34484  0.15136  0.62676  Biso   1.000  C
  H656     1.0000 0.36350  0.17430  0.59810  Biso   1.000  H
  H657     1.0000 0.34360  0.15040  0.65840  Biso   1.000  H
  H658     1.0000 0.52560  0.40160  0.47620  Biso   1.000  H
  C233     1.0000 0.31404  0.39006  0.50956  Biso   1.000  C
  H659     1.0000 0.32600  0.40340  0.52180  Biso   1.000  H
  H660     1.0000 0.29350  0.41910  0.48850  Biso   1.000  H
  H661     1.0000 0.44900  0.37380  0.49840  Biso   1.000  H
  C234     1.0000 0.28079  0.35783  0.55561  Biso   1.000  C
  H662     1.0000 0.24670  0.37230  0.55310  Biso   1.000  H
  H663     1.0000 0.27710  0.35910  0.58730  Biso   1.000  H
  N40      1.0000 0.17142  0.29224  0.90992  Biso   1.000  N
  H664     1.0000 0.36590  0.31650  0.87490  Biso   1.000  H
  H665     1.0000 0.27100  0.32040  0.89920  Biso   1.000  H
  C235     1.0000 0.16989  0.29391  0.95567  Biso   1.000  C
  H666     1.0000 0.18020  0.25920  0.97900  Biso   1.000  H
  H667     1.0000 0.19390  0.31030  0.94590  Biso   1.000  H
  C236     1.0000 0.23018  0.30612  0.75532  Biso   1.000  C
  H668     1.0000 0.25010  0.32690  0.74510  Biso   1.000  H
  H669     1.0000 0.19510  0.32150  0.77530  Biso   1.000  H
  H670     1.0000 0.23670  0.18730  0.82150  Biso   1.000  H
  C237     1.0000 0.13489  0.26709  0.92571  Biso   1.000  C
  H671     1.0000 0.13440  0.26740  0.89520  Biso   1.000  H
  H672     1.0000 0.14660  0.23140  0.94680  Biso   1.000  H
  C238     1.0000 0.15136  0.34484  0.87704  Biso   1.000  C
  H673     1.0000 0.17430  0.36350  0.86410  Biso   1.000  H
  H674     1.0000 0.15040  0.34360  0.84760  Biso   1.000  H
  H675     1.0000 0.40160  0.52560  0.59660  Biso   1.000  H
  C239     1.0000 0.39006  0.31404  0.78634  Biso   1.000  C
  H676     1.0000 0.40340  0.32600  0.74880  Biso   1.000  H
  H677     1.0000 0.41910  0.29350  0.79890  Biso   1.000  H
  H678     1.0000 0.37380  0.44900  0.67880  Biso   1.000  H
  C240     1.0000 0.35783  0.28079  0.80577  Biso   1.000  C
  H679     1.0000 0.37230  0.24670  0.82790  Biso   1.000  H
  H680     1.0000 0.35910  0.27710  0.77650  Biso   1.000  H
  N41      1.0000 0.29224  0.90992  0.17142  Biso   1.000  N
  H681     1.0000 0.31650  0.87490  0.36590  Biso   1.000  H
  H682     1.0000 0.32040  0.89920  0.27100  Biso   1.000  H
  C241     1.0000 0.29391  0.95567  0.16989  Biso   1.000  C
  H683     1.0000 0.25920  0.97900  0.18020  Biso   1.000  H
  H684     1.0000 0.31030  0.94590  0.19390  Biso   1.000  H
  C242     1.0000 0.30612  0.75532  0.23018  Biso   1.000  C
  H685     1.0000 0.32690  0.74510  0.25010  Biso   1.000  H
  H686     1.0000 0.32150  0.77530  0.19510  Biso   1.000  H
  H687     1.0000 0.18730  0.82150  0.23670  Biso   1.000  H
  C243     1.0000 0.26709  0.92571  0.13489  Biso   1.000  C
  H688     1.0000 0.26740  0.89520  0.13440  Biso   1.000  H
  H689     1.0000 0.23140  0.94680  0.14660  Biso   1.000  H
  C244     1.0000 0.34484  0.87704  0.15136  Biso   1.000  C
  H690     1.0000 0.36350  0.86410  0.17430  Biso   1.000  H
  H691     1.0000 0.34360  0.84760  0.15040  Biso   1.000  H
  H692     1.0000 0.52560  0.59660  0.40160  Biso   1.000  H
  C245     1.0000 0.31404  0.78634  0.39006  Biso   1.000  C
  H693     1.0000 0.32600  0.74880  0.40340  Biso   1.000  H
  H694     1.0000 0.29350  0.79890  0.41910  Biso   1.000  H
  H695     1.0000 0.44900  0.67880  0.37380  Biso   1.000  H
  C246     1.0000 0.28079  0.80577  0.35783  Biso   1.000  C
  H696     1.0000 0.24670  0.82790  0.37230  Biso   1.000  H
  H697     1.0000 0.27710  0.77650  0.35910  Biso   1.000  H
  N42      1.0000 0.17142  0.62642  0.29224  Biso   1.000  N
  H698     1.0000 0.36590  0.44270  0.31650  Biso   1.000  H
  H699     1.0000 0.27100  0.50940  0.32040  Biso   1.000  H
  C247     1.0000 0.16989  0.58053  0.29391  Biso   1.000  C
  H700     1.0000 0.18020  0.58160  0.25920  Biso   1.000  H
  H701     1.0000 0.19390  0.54990  0.31030  Biso   1.000  H
  C248     1.0000 0.23018  0.70838  0.30612  Biso   1.000  C
  H702     1.0000 0.25010  0.67790  0.32690  Biso   1.000  H
  H703     1.0000 0.19510  0.70810  0.32150  Biso   1.000  H
  H704     1.0000 0.23670  0.75450  0.18730  Biso   1.000  H
  C249     1.0000 0.13489  0.67231  0.26709  Biso   1.000  C
  H705     1.0000 0.13440  0.70300  0.26740  Biso   1.000  H
  H706     1.0000 0.14660  0.67520  0.23140  Biso   1.000  H
  C250     1.0000 0.15136  0.62676  0.34484  Biso   1.000  C
  H707     1.0000 0.17430  0.59810  0.36350  Biso   1.000  H
  H708     1.0000 0.15040  0.65840  0.34360  Biso   1.000  H
  H709     1.0000 0.40160  0.47620  0.52560  Biso   1.000  H
  C251     1.0000 0.39006  0.50956  0.31404  Biso   1.000  C
  H710     1.0000 0.40340  0.52180  0.32600  Biso   1.000  H
  H711     1.0000 0.41910  0.48850  0.29350  Biso   1.000  H
  H712     1.0000 0.37380  0.49840  0.44900  Biso   1.000  H
  C252     1.0000 0.35783  0.55561  0.28079  Biso   1.000  C
  H713     1.0000 0.37230  0.55310  0.24670  Biso   1.000  H
  H714     1.0000 0.35910  0.58730  0.27710  Biso   1.000  H
  N43      1.0000 0.90992  0.29224  0.62642  Biso   1.000  N
  H715     1.0000 0.87490  0.31650  0.44270  Biso   1.000  H
  H716     1.0000 0.89920  0.32040  0.50940  Biso   1.000  H
  C253     1.0000 0.95567  0.29391  0.58053  Biso   1.000  C
  H717     1.0000 0.97900  0.25920  0.58160  Biso   1.000  H
  H718     1.0000 0.94590  0.31030  0.54990  Biso   1.000  H
  C254     1.0000 0.75532  0.30612  0.70838  Biso   1.000  C
  H719     1.0000 0.74510  0.32690  0.67790  Biso   1.000  H
  H720     1.0000 0.77530  0.32150  0.70810  Biso   1.000  H
  H721     1.0000 0.82150  0.18730  0.75450  Biso   1.000  H
  C255     1.0000 0.92571  0.26709  0.67231  Biso   1.000  C
  H722     1.0000 0.89520  0.26740  0.70300  Biso   1.000  H
  H723     1.0000 0.94680  0.23140  0.67520  Biso   1.000  H
  C256     1.0000 0.87704  0.34484  0.62676  Biso   1.000  C
  H724     1.0000 0.86410  0.36350  0.59810  Biso   1.000  H
  H725     1.0000 0.84760  0.34360  0.65840  Biso   1.000  H
  H726     1.0000 0.59660  0.52560  0.47620  Biso   1.000  H
  C257     1.0000 0.78634  0.31404  0.50956  Biso   1.000  C
  H727     1.0000 0.74880  0.32600  0.52180  Biso   1.000  H
  H728     1.0000 0.79890  0.29350  0.48850  Biso   1.000  H
  H729     1.0000 0.67880  0.44900  0.49840  Biso   1.000  H
  C258     1.0000 0.80577  0.28079  0.55561  Biso   1.000  C
  H730     1.0000 0.82790  0.24670  0.55310  Biso   1.000  H
  H731     1.0000 0.77650  0.27710  0.58730  Biso   1.000  H
  N44      1.0000 0.62642  0.17142  0.90992  Biso   1.000  N
  H732     1.0000 0.44270  0.36590  0.87490  Biso   1.000  H
  H733     1.0000 0.50940  0.27100  0.89920  Biso   1.000  H
  C259     1.0000 0.58053  0.16989  0.95567  Biso   1.000  C
  H734     1.0000 0.58160  0.18020  0.97900  Biso   1.000  H
  H735     1.0000 0.54990  0.19390  0.94590  Biso   1.000  H
  C260     1.0000 0.70838  0.23018  0.75532  Biso   1.000  C
  H736     1.0000 0.67790  0.25010  0.74510  Biso   1.000  H
  H737     1.0000 0.70810  0.19510  0.77530  Biso   1.000  H
  H738     1.0000 0.75450  0.23670  0.82150  Biso   1.000  H
  C261     1.0000 0.67231  0.13489  0.92571  Biso   1.000  C
  H739     1.0000 0.70300  0.13440  0.89520  Biso   1.000  H
  H740     1.0000 0.67520  0.14660  0.94680  Biso   1.000  H
  C262     1.0000 0.62676  0.15136  0.87704  Biso   1.000  C
  H741     1.0000 0.59810  0.17430  0.86410  Biso   1.000  H
  H742     1.0000 0.65840  0.15040  0.84760  Biso   1.000  H
  H743     1.0000 0.47620  0.40160  0.59660  Biso   1.000  H
  C263     1.0000 0.50956  0.39006  0.78634  Biso   1.000  C
  H744     1.0000 0.52180  0.40340  0.74880  Biso   1.000  H
  H745     1.0000 0.48850  0.41910  0.79890  Biso   1.000  H
  H746     1.0000 0.49840  0.37380  0.67880  Biso   1.000  H
  C264     1.0000 0.55561  0.35783  0.80577  Biso   1.000  C
  H747     1.0000 0.55310  0.37230  0.82790  Biso   1.000  H
  H748     1.0000 0.58730  0.35910  0.77650  Biso   1.000  H
  N45      1.0000 0.62642  0.29224  0.17142  Biso   1.000  N
  H749     1.0000 0.44270  0.31650  0.36590  Biso   1.000  H
  H750     1.0000 0.50940  0.32040  0.27100  Biso   1.000  H
  C265     1.0000 0.58053  0.29391  0.16989  Biso   1.000  C
  H751     1.0000 0.58160  0.25920  0.18020  Biso   1.000  H
  H752     1.0000 0.54990  0.31030  0.19390  Biso   1.000  H
  C266     1.0000 0.70838  0.30612  0.23018  Biso   1.000  C
  H753     1.0000 0.67790  0.32690  0.25010  Biso   1.000  H
  H754     1.0000 0.70810  0.32150  0.19510  Biso   1.000  H
  H755     1.0000 0.75450  0.18730  0.23670  Biso   1.000  H
  C267     1.0000 0.67231  0.26709  0.13489  Biso   1.000  C
  H756     1.0000 0.70300  0.26740  0.13440  Biso   1.000  H
  H757     1.0000 0.67520  0.23140  0.14660  Biso   1.000  H
  C268     1.0000 0.62676  0.34484  0.15136  Biso   1.000  C
  H758     1.0000 0.59810  0.36350  0.17430  Biso   1.000  H
  H759     1.0000 0.65840  0.34360  0.15040  Biso   1.000  H
  H760     1.0000 0.47620  0.52560  0.40160  Biso   1.000  H
  C269     1.0000 0.50956  0.31404  0.39006  Biso   1.000  C
  H761     1.0000 0.52180  0.32600  0.40340  Biso   1.000  H
  H762     1.0000 0.48850  0.29350  0.41910  Biso   1.000  H
  H763     1.0000 0.49840  0.44900  0.37380  Biso   1.000  H
  C270     1.0000 0.55561  0.28079  0.35783  Biso   1.000  C
  H764     1.0000 0.55310  0.24670  0.37230  Biso   1.000  H
  H765     1.0000 0.58730  0.27710  0.35910  Biso   1.000  H
  N46      1.0000 0.90992  0.17142  0.29224  Biso   1.000  N
  H766     1.0000 0.87490  0.36590  0.31650  Biso   1.000  H
  H767     1.0000 0.89920  0.27100  0.32040  Biso   1.000  H
  C271     1.0000 0.95567  0.16989  0.29391  Biso   1.000  C
  H768     1.0000 0.97900  0.18020  0.25920  Biso   1.000  H
  H769     1.0000 0.94590  0.19390  0.31030  Biso   1.000  H
  C272     1.0000 0.75532  0.23018  0.30612  Biso   1.000  C
  H770     1.0000 0.74510  0.25010  0.32690  Biso   1.000  H
  H771     1.0000 0.77530  0.19510  0.32150  Biso   1.000  H
  H772     1.0000 0.82150  0.23670  0.18730  Biso   1.000  H
  C273     1.0000 0.92571  0.13489  0.26709  Biso   1.000  C
  H773     1.0000 0.89520  0.13440  0.26740  Biso   1.000  H
  H774     1.0000 0.94680  0.14660  0.23140  Biso   1.000  H
  C274     1.0000 0.87704  0.15136  0.34484  Biso   1.000  C
  H775     1.0000 0.86410  0.17430  0.36350  Biso   1.000  H
  H776     1.0000 0.84760  0.15040  0.34360  Biso   1.000  H
  H777     1.0000 0.59660  0.40160  0.52560  Biso   1.000  H
  C275     1.0000 0.78634  0.39006  0.31404  Biso   1.000  C
  H778     1.0000 0.74880  0.40340  0.32600  Biso   1.000  H
  H779     1.0000 0.79890  0.41910  0.29350  Biso   1.000  H
  H780     1.0000 0.67880  0.37380  0.44900  Biso   1.000  H
  C276     1.0000 0.80577  0.35783  0.28079  Biso   1.000  C
  H781     1.0000 0.82790  0.37230  0.24670  Biso   1.000  H
  H782     1.0000 0.77650  0.35910  0.27710  Biso   1.000  H
  N47      1.0000 0.17142  0.90992  0.62642  Biso   1.000  N
  H783     1.0000 0.36590  0.87490  0.44270  Biso   1.000  H
  H784     1.0000 0.27100  0.89920  0.50940  Biso   1.000  H
  C277     1.0000 0.16989  0.95567  0.58053  Biso   1.000  C
  H785     1.0000 0.18020  0.97900  0.58160  Biso   1.000  H
  H786     1.0000 0.19390  0.94590  0.54990  Biso   1.000  H
  C278     1.0000 0.23018  0.75532  0.70838  Biso   1.000  C
  H787     1.0000 0.25010  0.74510  0.67790  Biso   1.000  H
  H788     1.0000 0.19510  0.77530  0.70810  Biso   1.000  H
  H789     1.0000 0.23670  0.82150  0.75450  Biso   1.000  H
  C279     1.0000 0.13489  0.92571  0.67231  Biso   1.000  C
  H790     1.0000 0.13440  0.89520  0.70300  Biso   1.000  H
  H791     1.0000 0.14660  0.94680  0.67520  Biso   1.000  H
  C280     1.0000 0.15136  0.87704  0.62676  Biso   1.000  C
  H792     1.0000 0.17430  0.86410  0.59810  Biso   1.000  H
  H793     1.0000 0.15040  0.84760  0.65840  Biso   1.000  H
  H794     1.0000 0.40160  0.59660  0.47620  Biso   1.000  H
  C281     1.0000 0.39006  0.78634  0.50956  Biso   1.000  C
  H795     1.0000 0.40340  0.74880  0.52180  Biso   1.000  H
  H796     1.0000 0.41910  0.79890  0.48850  Biso   1.000  H
  H797     1.0000 0.37380  0.67880  0.49840  Biso   1.000  H
  C282     1.0000 0.35783  0.80577  0.55561  Biso   1.000  C
  H798     1.0000 0.37230  0.82790  0.55310  Biso   1.000  H
  H799     1.0000 0.35910  0.77650  0.58730  Biso   1.000  H
  N48      1.0000 0.29224  0.62642  0.90992  Biso   1.000  N
  H800     1.0000 0.31650  0.44270  0.87490  Biso   1.000  H
  H801     1.0000 0.32040  0.50940  0.89920  Biso   1.000  H
  C283     1.0000 0.29391  0.58053  0.95567  Biso   1.000  C
  H802     1.0000 0.25920  0.58160  0.97900  Biso   1.000  H
  H803     1.0000 0.31030  0.54990  0.94590  Biso   1.000  H
  C284     1.0000 0.30612  0.70838  0.75532  Biso   1.000  C
  H804     1.0000 0.32690  0.67790  0.74510  Biso   1.000  H
  H805     1.0000 0.32150  0.70810  0.77530  Biso   1.000  H
  H806     1.0000 0.18730  0.75450  0.82150  Biso   1.000  H
  C285     1.0000 0.26709  0.67231  0.92571  Biso   1.000  C
  H807     1.0000 0.26740  0.70300  0.89520  Biso   1.000  H
  H808     1.0000 0.23140  0.67520  0.94680  Biso   1.000  H
  C286     1.0000 0.34484  0.62676  0.87704  Biso   1.000  C
  H809     1.0000 0.36350  0.59810  0.86410  Biso   1.000  H
  H810     1.0000 0.34360  0.65840  0.84760  Biso   1.000  H
  H811     1.0000 0.52560  0.47620  0.59660  Biso   1.000  H
  C287     1.0000 0.31404  0.50956  0.78634  Biso   1.000  C
  H812     1.0000 0.32600  0.52180  0.74880  Biso   1.000  H
  H813     1.0000 0.29350  0.48850  0.79890  Biso   1.000  H
  H814     1.0000 0.44900  0.49840  0.67880  Biso   1.000  H
  C288     1.0000 0.28079  0.55561  0.80577  Biso   1.000  C
  H815     1.0000 0.24670  0.55310  0.82790  Biso   1.000  H
  H816     1.0000 0.27710  0.58730  0.77650  Biso   1.000  H
  Ag1      1.0000 0.86063  0.63195  0.25371  Biso   1.000  Ag
  N49      1.0000 0.78827  0.70655  0.25259  Biso   1.000  N
  N50      1.0000 0.83468  0.55772  0.30380  Biso   1.000  N
  C289     1.0000 0.86122  0.46338  0.33770  Biso   1.000  C
  N51      1.0000 0.80443  0.47859  0.35849  Biso   1.000  N
  C290     1.0000 0.87810  0.51026  0.30582  Biso   1.000  C
  C291     1.0000 0.80093  0.75393  0.22257  Biso   1.000  C
  Ag2      1.0000 0.63195  0.86063  0.25371  Biso   1.000  Ag
  N52      1.0000 0.70655  0.78827  0.25259  Biso   1.000  N
  N53      1.0000 0.55772  0.83468  0.30380  Biso   1.000  N
  C292     1.0000 0.46338  0.86122  0.33770  Biso   1.000  C
  N54      1.0000 0.47859  0.80443  0.35849  Biso   1.000  N
  C293     1.0000 0.51026  0.87810  0.30582  Biso   1.000  C
  C294     1.0000 0.75393  0.80093  0.22257  Biso   1.000  C
  Ag3      1.0000 0.25371  0.25371  0.86063  Biso   1.000  Ag
  N55      1.0000 0.25259  0.25259  0.78827  Biso   1.000  N
  N56      1.0000 0.30380  0.30380  0.83468  Biso   1.000  N
  C295     1.0000 0.33770  0.33770  0.86122  Biso   1.000  C
  N57      1.0000 0.35849  0.35849  0.80443  Biso   1.000  N
  C296     1.0000 0.30582  0.30582  0.87810  Biso   1.000  C
  C297     1.0000 0.22257  0.22257  0.80093  Biso   1.000  C
  Ag4      1.0000 0.25371  0.25371  0.63195  Biso   1.000  Ag
  N58      1.0000 0.25259  0.25259  0.70655  Biso   1.000  N
  N59      1.0000 0.30380  0.30380  0.55772  Biso   1.000  N
  C298     1.0000 0.33770  0.33770  0.46338  Biso   1.000  C
  N60      1.0000 0.35849  0.35849  0.47859  Biso   1.000  N
  C299     1.0000 0.30582  0.30582  0.51026  Biso   1.000  C
  C300     1.0000 0.22257  0.22257  0.75393  Biso   1.000  C
  Ag5      1.0000 0.25371  0.86063  0.63195  Biso   1.000  Ag
  N61      1.0000 0.25259  0.78827  0.70655  Biso   1.000  N
  N62      1.0000 0.30380  0.83468  0.55772  Biso   1.000  N
  C301     1.0000 0.33770  0.86122  0.46338  Biso   1.000  C
  N63      1.0000 0.35849  0.80443  0.47859  Biso   1.000  N
  C302     1.0000 0.30582  0.87810  0.51026  Biso   1.000  C
  C303     1.0000 0.22257  0.80093  0.75393  Biso   1.000  C
  Ag6      1.0000 0.25371  0.63195  0.86063  Biso   1.000  Ag
  N64      1.0000 0.25259  0.70655  0.78827  Biso   1.000  N
  N65      1.0000 0.30380  0.55772  0.83468  Biso   1.000  N
  C304     1.0000 0.33770  0.46338  0.86122  Biso   1.000  C
  N66      1.0000 0.35849  0.47859  0.80443  Biso   1.000  N
  C305     1.0000 0.30582  0.51026  0.87810  Biso   1.000  C
  C306     1.0000 0.22257  0.75393  0.80093  Biso   1.000  C
  Ag7      1.0000 0.86063  0.25371  0.25371  Biso   1.000  Ag
  N67      1.0000 0.78827  0.25259  0.25259  Biso   1.000  N
  N68      1.0000 0.83468  0.30380  0.30380  Biso   1.000  N
  C307     1.0000 0.86122  0.33770  0.33770  Biso   1.000  C
  N69      1.0000 0.80443  0.35849  0.35849  Biso   1.000  N
  C308     1.0000 0.87810  0.30582  0.30582  Biso   1.000  C
  C309     1.0000 0.80093  0.22257  0.22257  Biso   1.000  C
  Ag8      1.0000 0.63195  0.25371  0.25371  Biso   1.000  Ag
  N70      1.0000 0.70655  0.25259  0.25259  Biso   1.000  N
  N71      1.0000 0.55772  0.30380  0.30380  Biso   1.000  N
  C310     1.0000 0.46338  0.33770  0.33770  Biso   1.000  C
  N72      1.0000 0.47859  0.35849  0.35849  Biso   1.000  N
  C311     1.0000 0.51026  0.30582  0.30582  Biso   1.000  C
  C312     1.0000 0.75393  0.22257  0.22257  Biso   1.000  C
  Ag9      1.0000 0.63195  0.25371  0.86063  Biso   1.000  Ag
  N73      1.0000 0.70655  0.25259  0.78827  Biso   1.000  N
  N74      1.0000 0.55772  0.30380  0.83468  Biso   1.000  N
  C313     1.0000 0.46338  0.33770  0.86122  Biso   1.000  C
  N75      1.0000 0.47859  0.35849  0.80443  Biso   1.000  N
  C314     1.0000 0.51026  0.30582  0.87810  Biso   1.000  C
  C315     1.0000 0.75393  0.22257  0.80093  Biso   1.000  C
  Ag10     1.0000 0.86063  0.25371  0.63195  Biso   1.000  Ag
  N76      1.0000 0.78827  0.25259  0.70655  Biso   1.000  N
  N77      1.0000 0.83468  0.30380  0.55772  Biso   1.000  N
  C316     1.0000 0.86122  0.33770  0.46338  Biso   1.000  C
  N78      1.0000 0.80443  0.35849  0.47859  Biso   1.000  N
  C317     1.0000 0.87810  0.30582  0.51026  Biso   1.000  C
  C318     1.0000 0.80093  0.22257  0.75393  Biso   1.000  C
  Ag11     1.0000 0.25371  0.86063  0.25371  Biso   1.000  Ag
  N79      1.0000 0.25259  0.78827  0.25259  Biso   1.000  N
  N80      1.0000 0.30380  0.83468  0.30380  Biso   1.000  N
  C319     1.0000 0.33770  0.86122  0.33770  Biso   1.000  C
  N81      1.0000 0.35849  0.80443  0.35849  Biso   1.000  N
  C320     1.0000 0.30582  0.87810  0.30582  Biso   1.000  C
  C321     1.0000 0.22257  0.80093  0.22257  Biso   1.000  C
  Ag12     1.0000 0.25371  0.63195  0.25371  Biso   1.000  Ag
  N82      1.0000 0.25259  0.70655  0.25259  Biso   1.000  N
  N83      1.0000 0.30380  0.55772  0.30380  Biso   1.000  N
  C322     1.0000 0.33770  0.46338  0.33770  Biso   1.000  C
  N84      1.0000 0.35849  0.47859  0.35849  Biso   1.000  N
  C323     1.0000 0.30582  0.51026  0.30582  Biso   1.000  C
  C324     1.0000 0.22257  0.75393  0.22257  Biso   1.000  C
  Ag13     1.0000 0.38937  0.61805  0.99629  Biso   1.000  Ag
  N85      1.0000 0.46173  0.54345  0.99741  Biso   1.000  N
  N86      1.0000 0.41532  0.69228  0.94620  Biso   1.000  N
  C325     1.0000 0.38878  0.78662  0.91230  Biso   1.000  C
  N87      1.0000 0.44557  0.77141  0.89151  Biso   1.000  N
  C326     1.0000 0.37190  0.73974  0.94418  Biso   1.000  C
  C327     1.0000 0.44907  0.49607  0.02743  Biso   1.000  C
  Ag14     1.0000 0.61805  0.38937  0.99629  Biso   1.000  Ag
  N88      1.0000 0.54345  0.46173  0.99741  Biso   1.000  N
  N89      1.0000 0.69228  0.41532  0.94620  Biso   1.000  N
  C328     1.0000 0.78662  0.38878  0.91230  Biso   1.000  C
  N90      1.0000 0.77141  0.44557  0.89151  Biso   1.000  N
  C329     1.0000 0.73974  0.37190  0.94418  Biso   1.000  C
  C330     1.0000 0.49607  0.44907  0.02743  Biso   1.000  C
  Ag15     1.0000 0.99629  0.99629  0.61805  Biso   1.000  Ag
  N91      1.0000 0.99741  0.99741  0.54345  Biso   1.000  N
  N92      1.0000 0.94620  0.94620  0.69228  Biso   1.000  N
  C331     1.0000 0.91230  0.91230  0.78662  Biso   1.000  C
  N93      1.0000 0.89151  0.89151  0.77141  Biso   1.000  N
  C332     1.0000 0.94418  0.94418  0.73974  Biso   1.000  C
  C333     1.0000 0.02743  0.02743  0.49607  Biso   1.000  C
  Ag16     1.0000 0.99629  0.99629  0.38937  Biso   1.000  Ag
  N94      1.0000 0.99741  0.99741  0.46173  Biso   1.000  N
  N95      1.0000 0.94620  0.94620  0.41532  Biso   1.000  N
  C334     1.0000 0.91230  0.91230  0.38878  Biso   1.000  C
  N96      1.0000 0.89151  0.89151  0.44557  Biso   1.000  N
  C335     1.0000 0.94418  0.94418  0.37190  Biso   1.000  C
  C336     1.0000 0.02743  0.02743  0.44907  Biso   1.000  C
  Ag17     1.0000 0.99629  0.38937  0.99629  Biso   1.000  Ag
  N97      1.0000 0.99741  0.46173  0.99741  Biso   1.000  N
  N98      1.0000 0.94620  0.41532  0.94620  Biso   1.000  N
  C337     1.0000 0.91230  0.38878  0.91230  Biso   1.000  C
  N99      1.0000 0.89151  0.44557  0.89151  Biso   1.000  N
  C338     1.0000 0.94418  0.37190  0.94418  Biso   1.000  C
  C339     1.0000 0.02743  0.44907  0.02743  Biso   1.000  C
  Ag18     1.0000 0.99629  0.61805  0.99629  Biso   1.000  Ag
  N100     1.0000 0.99741  0.54345  0.99741  Biso   1.000  N
  N101     1.0000 0.94620  0.69228  0.94620  Biso   1.000  N
  C340     1.0000 0.91230  0.78662  0.91230  Biso   1.000  C
  N102     1.0000 0.89151  0.77141  0.89151  Biso   1.000  N
  C341     1.0000 0.94418  0.73974  0.94418  Biso   1.000  C
  C342     1.0000 0.02743  0.49607  0.02743  Biso   1.000  C
  Ag19     1.0000 0.38937  0.99629  0.61805  Biso   1.000  Ag
  N103     1.0000 0.46173  0.99741  0.54345  Biso   1.000  N
  N104     1.0000 0.41532  0.94620  0.69228  Biso   1.000  N
  C343     1.0000 0.38878  0.91230  0.78662  Biso   1.000  C
  N105     1.0000 0.44557  0.89151  0.77141  Biso   1.000  N
  C344     1.0000 0.37190  0.94418  0.73974  Biso   1.000  C
  C345     1.0000 0.44907  0.02743  0.49607  Biso   1.000  C
  Ag20     1.0000 0.61805  0.99629  0.38937  Biso   1.000  Ag
  N106     1.0000 0.54345  0.99741  0.46173  Biso   1.000  N
  N107     1.0000 0.69228  0.94620  0.41532  Biso   1.000  N
  C346     1.0000 0.78662  0.91230  0.38878  Biso   1.000  C
  N108     1.0000 0.77141  0.89151  0.44557  Biso   1.000  N
  C347     1.0000 0.73974  0.94418  0.37190  Biso   1.000  C
  C348     1.0000 0.49607  0.02743  0.44907  Biso   1.000  C
  Ag21     1.0000 0.61805  0.99629  0.99629  Biso   1.000  Ag
  N109     1.0000 0.54345  0.99741  0.99741  Biso   1.000  N
  N110     1.0000 0.69228  0.94620  0.94620  Biso   1.000  N
  C349     1.0000 0.78662  0.91230  0.91230  Biso   1.000  C
  N111     1.0000 0.77141  0.89151  0.89151  Biso   1.000  N
  C350     1.0000 0.73974  0.94418  0.94418  Biso   1.000  C
  C351     1.0000 0.49607  0.02743  0.02743  Biso   1.000  C
  Ag22     1.0000 0.38937  0.99629  0.99629  Biso   1.000  Ag
  N112     1.0000 0.46173  0.99741  0.99741  Biso   1.000  N
  N113     1.0000 0.41532  0.94620  0.94620  Biso   1.000  N
  C352     1.0000 0.38878  0.91230  0.91230  Biso   1.000  C
  N114     1.0000 0.44557  0.89151  0.89151  Biso   1.000  N
  C353     1.0000 0.37190  0.94418  0.94418  Biso   1.000  C
  C354     1.0000 0.44907  0.02743  0.02743  Biso   1.000  C
  Ag23     1.0000 0.99629  0.38937  0.61805  Biso   1.000  Ag
  N115     1.0000 0.99741  0.46173  0.54345  Biso   1.000  N
  N116     1.0000 0.94620  0.41532  0.69228  Biso   1.000  N
  C355     1.0000 0.91230  0.38878  0.78662  Biso   1.000  C
  N117     1.0000 0.89151  0.44557  0.77141  Biso   1.000  N
  C356     1.0000 0.94418  0.37190  0.73974  Biso   1.000  C
  C357     1.0000 0.02743  0.44907  0.49607  Biso   1.000  C
  Ag24     1.0000 0.99629  0.61805  0.38937  Biso   1.000  Ag
  N118     1.0000 0.99741  0.54345  0.46173  Biso   1.000  N
  N119     1.0000 0.94620  0.69228  0.41532  Biso   1.000  N
  C358     1.0000 0.91230  0.78662  0.38878  Biso   1.000  C
  N120     1.0000 0.89151  0.77141  0.44557  Biso   1.000  N
  C359     1.0000 0.94418  0.73974  0.37190  Biso   1.000  C
  C360     1.0000 0.02743  0.49607  0.44907  Biso   1.000  C
  N121     1.0000 0.68816  0.43728  0.43728  Biso   1.000  N
  Ag25     1.0000 0.77799  0.40734  0.40734  Biso   1.000  Ag
  N122     1.0000 0.43728  0.68816  0.43728  Biso   1.000  N
  Ag26     1.0000 0.40734  0.77799  0.40734  Biso   1.000  Ag
  N123     1.0000 0.43728  0.43728  0.68816  Biso   1.000  N
  Ag27     1.0000 0.40734  0.40734  0.77799  Biso   1.000  Ag
  N124     1.0000 0.43728  0.43728  0.43728  Biso   1.000  N
  Ag28     1.0000 0.40734  0.40734  0.40734  Biso   1.000  Ag
  N125     1.0000 0.56184  0.81272  0.81272  Biso   1.000  N
  Ag29     1.0000 0.47201  0.84266  0.84266  Biso   1.000  Ag
  N126     1.0000 0.81272  0.56184  0.81272  Biso   1.000  N
  Ag30     1.0000 0.84266  0.47201  0.84266  Biso   1.000  Ag
  N127     1.0000 0.81272  0.81272  0.81272  Biso   1.000  N
  Ag31     1.0000 0.84266  0.84266  0.84266  Biso   1.000  Ag
  N128     1.0000 0.81272  0.81272  0.56184  Biso   1.000  N
  Ag32     1.0000 0.84266  0.84266  0.47201  Biso   1.000  Ag
  N129     1.0000 0.58949  0.47017  0.47017  Biso   1.000  N
  N130     1.0000 0.47017  0.58949  0.47017  Biso   1.000  N
  N131     1.0000 0.47017  0.47017  0.58949  Biso   1.000  N
  N132     1.0000 0.47017  0.47017  0.47017  Biso   1.000  N
  N133     1.0000 0.66051  0.77983  0.77983  Biso   1.000  N
  N134     1.0000 0.77983  0.66051  0.77983  Biso   1.000  N
  N135     1.0000 0.77983  0.77983  0.77983  Biso   1.000  N
  N136     1.0000 0.77983  0.77983  0.66051  Biso   1.000  N
  Ag33     1.0000 0.50000  0.50000  0.50000  Biso   1.000  Ag
  Ag34     1.0000 0.75000  0.75000  0.75000  Biso   1.000  Ag
  C361     1.0000 0.60910  0.48820  0.48820  Biso   1.000  C
  C362     1.0000 0.48820  0.60910  0.41450  Biso   1.000  C
  C363     1.0000 0.48820  0.41450  0.60910  Biso   1.000  C
  C364     1.0000 0.41450  0.48820  0.48820  Biso   1.000  C
  C365     1.0000 0.48820  0.60910  0.48820  Biso   1.000  C
  C366     1.0000 0.41450  0.48820  0.60910  Biso   1.000  C
  C367     1.0000 0.60910  0.48820  0.41450  Biso   1.000  C
  C368     1.0000 0.48820  0.41450  0.48820  Biso   1.000  C
  C369     1.0000 0.48820  0.48820  0.60910  Biso   1.000  C
  C370     1.0000 0.60910  0.41450  0.48820  Biso   1.000  C
  C371     1.0000 0.41450  0.60910  0.48820  Biso   1.000  C
  C372     1.0000 0.48820  0.48820  0.41450  Biso   1.000  C
  C373     1.0000 0.64090  0.76180  0.83550  Biso   1.000  C
  C374     1.0000 0.76180  0.64090  0.76180  Biso   1.000  C
  C375     1.0000 0.76180  0.83550  0.76180  Biso   1.000  C
  C376     1.0000 0.83550  0.76180  0.64090  Biso   1.000  C
  C377     1.0000 0.76180  0.64090  0.83550  Biso   1.000  C
  C378     1.0000 0.83550  0.76180  0.76180  Biso   1.000  C
  C379     1.0000 0.64090  0.76180  0.76180  Biso   1.000  C
  C380     1.0000 0.76180  0.83550  0.64090  Biso   1.000  C
  C381     1.0000 0.76180  0.76180  0.83550  Biso   1.000  C
  C382     1.0000 0.64090  0.83550  0.76180  Biso   1.000  C
  C383     1.0000 0.83550  0.64090  0.76180  Biso   1.000  C
  C384     1.0000 0.76180  0.76180  0.64090  Biso   1.000  C
  C385     1.0000 0.66654  0.46910  0.46910  Biso   1.000  C
  C386     1.0000 0.46910  0.66654  0.39526  Biso   1.000  C
  C387     1.0000 0.46910  0.39526  0.66654  Biso   1.000  C
  C388     1.0000 0.39526  0.46910  0.46910  Biso   1.000  C
  C389     1.0000 0.46910  0.66654  0.46910  Biso   1.000  C
  C390     1.0000 0.39526  0.46910  0.66654  Biso   1.000  C
  C391     1.0000 0.66654  0.46910  0.39526  Biso   1.000  C
  C392     1.0000 0.46910  0.39526  0.46910  Biso   1.000  C
  C393     1.0000 0.46910  0.46910  0.66654  Biso   1.000  C
  C394     1.0000 0.66654  0.39526  0.46910  Biso   1.000  C
  C395     1.0000 0.39526  0.66654  0.46910  Biso   1.000  C
  C396     1.0000 0.46910  0.46910  0.39526  Biso   1.000  C
  C397     1.0000 0.58346  0.78090  0.85474  Biso   1.000  C
  C398     1.0000 0.78090  0.58346  0.78090  Biso   1.000  C
  C399     1.0000 0.78090  0.85474  0.78090  Biso   1.000  C
  C400     1.0000 0.85474  0.78090  0.58346  Biso   1.000  C
  C401     1.0000 0.78090  0.58346  0.85474  Biso   1.000  C
  C402     1.0000 0.85474  0.78090  0.78090  Biso   1.000  C
  C403     1.0000 0.58346  0.78090  0.78090  Biso   1.000  C
  C404     1.0000 0.78090  0.85474  0.58346  Biso   1.000  C
  C405     1.0000 0.78090  0.78090  0.85474  Biso   1.000  C
  C406     1.0000 0.58346  0.85474  0.78090  Biso   1.000  C
  C407     1.0000 0.85474  0.58346  0.78090  Biso   1.000  C
  C408     1.0000 0.78090  0.78090  0.58346  Biso   1.000  C
