data_CIGXIA_clean5b
_audit_creation_date              2014-07-02
_audit_creation_method            'Materials Studio'
_symmetry_space_group_name_H-M    'P1'
_symmetry_Int_Tables_number       1
_symmetry_cell_setting            triclinic
loop_
_symmetry_equiv_pos_as_xyz
  x,y,z
_cell_length_a                    51.8593
_cell_length_b                    51.8593
_cell_length_c                    51.8593
_cell_angle_alpha                 60.0000
_cell_angle_beta                  60.0000
_cell_angle_gamma                 60.0000
loop_
_atom_site_label
_atom_site_type_symbol
_atom_site_fract_x
_atom_site_fract_y
_atom_site_fract_z
_atom_site_U_iso_or_equiv
_atom_site_adp_type
_atom_site_occupancy
Fe1    Fe    0.74605   0.40830   0.89070   0.01267  Uiso   1.00
Fe2    Fe    0.32040   0.66463   0.90422   0.01267  Uiso   1.00
O1     O     0.76148   0.57960   0.80449   0.01267  Uiso   1.00
O2     O     0.73977   0.64480   0.78277   0.01267  Uiso   1.00
O3     O     0.55891   0.50515   0.94315   0.01267  Uiso   1.00
O4     O     0.44692   0.50294   0.00361   0.01267  Uiso   1.00
O5     O     0.53294   0.47830   0.94822   0.01267  Uiso   1.00
O6     O     0.72999   0.48575   0.86729   0.01267  Uiso   1.00
O7     O     0.67745   0.46755   0.90275   0.01267  Uiso   1.00
O8     O     0.75690   0.44227   0.85386   0.01267  Uiso   1.00
O9     O     0.78959   0.39214   0.88763   0.01267  Uiso   1.00
O10    O     0.73620   0.37165   0.92464   0.01267  Uiso   1.00
O11    O     0.70413   0.42312   0.89082   0.01267  Uiso   1.00
O12    O     0.28130   0.65536   0.98068   0.01267  Uiso   1.00
O13    O     0.30249   0.59420   0.00054   0.01267  Uiso   1.00
O14    O     0.30972   0.68141   0.93474   0.01267  Uiso   1.00
O15    O     0.34765   0.56744   0.97160   0.01267  Uiso   1.00
O16    O     0.33260   0.65270   0.87001   0.01267  Uiso   1.00
O17    O     0.36294   0.64991   0.90239   0.01267  Uiso   1.00
C1     C     0.37880   0.53959   0.01730   0.01267  Uiso   1.00
C2     C     0.34653   0.56028   0.02232   0.01267  Uiso   1.00
C3     C     0.33096   0.57457   0.99691   0.01267  Uiso   1.00
C4     C     0.76403   0.52116   0.81069   0.01267  Uiso   1.00
C5     C     0.76922   0.48951   0.81663   0.01267  Uiso   1.00
C6     C     0.75051   0.47145   0.84758   0.01267  Uiso   1.00
C7     C     0.64876   0.41990   0.89750   0.01267  Uiso   1.00
C8     C     0.59137   0.43677   0.91815   0.01267  Uiso   1.00
C9     C     0.64825   0.44538   0.90079   0.01267  Uiso   1.00
C10    C     0.58962   0.46329   0.92120   0.01267  Uiso   1.00
C11    C     0.61855   0.46721   0.91227   0.01267  Uiso   1.00
C12    C     0.62086   0.41470   0.90679   0.01267  Uiso   1.00
C13    C     0.55842   0.48382   0.93810   0.01267  Uiso   1.00
C14    C     0.62293   0.38413   0.90850   0.01267  Uiso   1.00
C15    C     0.67862   0.44572   0.89726   0.01267  Uiso   1.00
C16    C     0.70667   0.32335   0.00835   0.01267  Uiso   1.00
C17    C     0.68809   0.30301   0.02847   0.01267  Uiso   1.00
C18    C     0.29698   0.67445   0.96451   0.01267  Uiso   1.00
Fe3    Fe    0.40830   0.74605   0.95494   0.01267  Uiso   1.00
Fe4    Fe    0.66463   0.32040   0.11076   0.01267  Uiso   1.00
O18    O     0.57960   0.76148   0.85443   0.01267  Uiso   1.00
O19    O     0.64480   0.73977   0.83266   0.01267  Uiso   1.00
O20    O     0.50515   0.55891   0.99279   0.01267  Uiso   1.00
O21    O     0.50294   0.44692   0.04653   0.01267  Uiso   1.00
O22    O     0.47830   0.53294   0.04053   0.01267  Uiso   1.00
O23    O     0.48575   0.72999   0.91698   0.01267  Uiso   1.00
O24    O     0.46755   0.67745   0.95224   0.01267  Uiso   1.00
O25    O     0.44227   0.75690   0.94697   0.01267  Uiso   1.00
O26    O     0.39214   0.78959   0.93064   0.01267  Uiso   1.00
O27    O     0.37165   0.73620   0.96751   0.01267  Uiso   1.00
O28    O     0.42312   0.70413   0.98193   0.01267  Uiso   1.00
O29    O     0.65536   0.28130   0.08267   0.01267  Uiso   1.00
O30    O     0.59420   0.30249   0.10277   0.01267  Uiso   1.00
O31    O     0.68141   0.30972   0.07413   0.01267  Uiso   1.00
O32    O     0.56744   0.34765   0.11331   0.01267  Uiso   1.00
O33    O     0.65270   0.33260   0.14470   0.01267  Uiso   1.00
O34    O     0.64991   0.36294   0.08477   0.01267  Uiso   1.00
C19    C     0.53959   0.37880   0.06431   0.01267  Uiso   1.00
C20    C     0.56028   0.34653   0.07087   0.01267  Uiso   1.00
C21    C     0.57457   0.33096   0.09756   0.01267  Uiso   1.00
C22    C     0.52116   0.76403   0.90412   0.01267  Uiso   1.00
C23    C     0.48951   0.76922   0.92464   0.01267  Uiso   1.00
C24    C     0.47145   0.75051   0.93046   0.01267  Uiso   1.00
C25    C     0.41990   0.64876   0.03384   0.01267  Uiso   1.00
C26    C     0.43677   0.59137   0.05371   0.01267  Uiso   1.00
C27    C     0.44538   0.64825   0.00558   0.01267  Uiso   1.00
C28    C     0.46329   0.58962   0.02589   0.01267  Uiso   1.00
C29    C     0.46721   0.61855   0.00198   0.01267  Uiso   1.00
C30    C     0.41470   0.62086   0.05765   0.01267  Uiso   1.00
C31    C     0.48382   0.55842   0.01966   0.01267  Uiso   1.00
C32    C     0.38413   0.62293   0.08445   0.01267  Uiso   1.00
C33    C     0.44572   0.67862   0.97840   0.01267  Uiso   1.00
C34    C     0.32335   0.70667   0.96163   0.01267  Uiso   1.00
C35    C     0.30301   0.68809   0.98044   0.01267  Uiso   1.00
C36    C     0.67445   0.29698   0.06406   0.01267  Uiso   1.00
Fe5    Fe    0.89070   0.95494   0.74605   0.01267  Uiso   1.00
Fe6    Fe    0.90422   0.11076   0.32040   0.01267  Uiso   1.00
O35    O     0.80449   0.85443   0.76148   0.01267  Uiso   1.00
O36    O     0.78277   0.83266   0.73977   0.01267  Uiso   1.00
O37    O     0.94315   0.99279   0.55891   0.01267  Uiso   1.00
O38    O     0.00361   0.04653   0.44692   0.01267  Uiso   1.00
O39    O     0.94822   0.04053   0.53294   0.01267  Uiso   1.00
O40    O     0.86729   0.91698   0.72999   0.01267  Uiso   1.00
O41    O     0.90275   0.95224   0.67745   0.01267  Uiso   1.00
O42    O     0.85386   0.94697   0.75690   0.01267  Uiso   1.00
O43    O     0.88763   0.93064   0.78959   0.01267  Uiso   1.00
O44    O     0.92464   0.96751   0.73620   0.01267  Uiso   1.00
O45    O     0.89082   0.98193   0.70413   0.01267  Uiso   1.00
O46    O     0.98068   0.08267   0.28130   0.01267  Uiso   1.00
O47    O     0.00054   0.10277   0.30249   0.01267  Uiso   1.00
O48    O     0.93474   0.07413   0.30972   0.01267  Uiso   1.00
O49    O     0.97160   0.11331   0.34765   0.01267  Uiso   1.00
O50    O     0.87001   0.14470   0.33260   0.01267  Uiso   1.00
O51    O     0.90239   0.08477   0.36294   0.01267  Uiso   1.00
C37    C     0.01730   0.06431   0.37880   0.01267  Uiso   1.00
C38    C     0.02232   0.07087   0.34653   0.01267  Uiso   1.00
C39    C     0.99691   0.09756   0.33096   0.01267  Uiso   1.00
C40    C     0.81069   0.90412   0.76403   0.01267  Uiso   1.00
C41    C     0.81663   0.92464   0.76922   0.01267  Uiso   1.00
C42    C     0.84758   0.93046   0.75051   0.01267  Uiso   1.00
C43    C     0.89750   0.03384   0.64876   0.01267  Uiso   1.00
C44    C     0.91815   0.05371   0.59137   0.01267  Uiso   1.00
C45    C     0.90079   0.00558   0.64825   0.01267  Uiso   1.00
C46    C     0.92120   0.02589   0.58962   0.01267  Uiso   1.00
C47    C     0.91227   0.00198   0.61855   0.01267  Uiso   1.00
C48    C     0.90679   0.05765   0.62086   0.01267  Uiso   1.00
C49    C     0.93810   0.01966   0.55842   0.01267  Uiso   1.00
C50    C     0.90850   0.08445   0.62293   0.01267  Uiso   1.00
C51    C     0.89726   0.97840   0.67862   0.01267  Uiso   1.00
C52    C     0.00835   0.96163   0.70667   0.01267  Uiso   1.00
C53    C     0.02847   0.98044   0.68809   0.01267  Uiso   1.00
C54    C     0.96451   0.06406   0.29698   0.01267  Uiso   1.00
Fe7    Fe    0.95494   0.89070   0.40830   0.01267  Uiso   1.00
Fe8    Fe    0.11076   0.90422   0.66463   0.01267  Uiso   1.00
O52    O     0.85443   0.80449   0.57960   0.01267  Uiso   1.00
O53    O     0.83266   0.78277   0.64480   0.01267  Uiso   1.00
O54    O     0.99279   0.94315   0.50515   0.01267  Uiso   1.00
O55    O     0.04653   0.00361   0.50294   0.01267  Uiso   1.00
O56    O     0.04053   0.94822   0.47830   0.01267  Uiso   1.00
O57    O     0.91698   0.86729   0.48575   0.01267  Uiso   1.00
O58    O     0.95224   0.90275   0.46755   0.01267  Uiso   1.00
O59    O     0.94697   0.85386   0.44227   0.01267  Uiso   1.00
O60    O     0.93064   0.88763   0.39214   0.01267  Uiso   1.00
O61    O     0.96751   0.92464   0.37165   0.01267  Uiso   1.00
O62    O     0.98193   0.89082   0.42312   0.01267  Uiso   1.00
O63    O     0.08267   0.98068   0.65536   0.01267  Uiso   1.00
O64    O     0.10277   0.00054   0.59420   0.01267  Uiso   1.00
O65    O     0.07413   0.93474   0.68141   0.01267  Uiso   1.00
O66    O     0.11331   0.97160   0.56744   0.01267  Uiso   1.00
O67    O     0.14470   0.87001   0.65270   0.01267  Uiso   1.00
O68    O     0.08477   0.90239   0.64991   0.01267  Uiso   1.00
C55    C     0.06431   0.01730   0.53959   0.01267  Uiso   1.00
C56    C     0.07087   0.02232   0.56028   0.01267  Uiso   1.00
C57    C     0.09756   0.99691   0.57457   0.01267  Uiso   1.00
C58    C     0.90412   0.81069   0.52116   0.01267  Uiso   1.00
C59    C     0.92464   0.81663   0.48951   0.01267  Uiso   1.00
C60    C     0.93046   0.84758   0.47145   0.01267  Uiso   1.00
C61    C     0.03384   0.89750   0.41990   0.01267  Uiso   1.00
C62    C     0.05371   0.91815   0.43677   0.01267  Uiso   1.00
C63    C     0.00558   0.90079   0.44538   0.01267  Uiso   1.00
C64    C     0.02589   0.92120   0.46329   0.01267  Uiso   1.00
C65    C     0.00198   0.91227   0.46721   0.01267  Uiso   1.00
C66    C     0.05765   0.90679   0.41470   0.01267  Uiso   1.00
C67    C     0.01966   0.93810   0.48382   0.01267  Uiso   1.00
C68    C     0.08445   0.90850   0.38413   0.01267  Uiso   1.00
C69    C     0.97840   0.89726   0.44572   0.01267  Uiso   1.00
C70    C     0.96163   0.00835   0.32335   0.01267  Uiso   1.00
C71    C     0.98044   0.02847   0.30301   0.01267  Uiso   1.00
C72    C     0.06406   0.96451   0.67445   0.01267  Uiso   1.00
Fe9    Fe    0.89070   0.74605   0.40830   0.01267  Uiso   1.00
Fe10   Fe    0.90422   0.32040   0.66463   0.01267  Uiso   1.00
O69    O     0.80449   0.76148   0.57960   0.01267  Uiso   1.00
O70    O     0.78277   0.73977   0.64480   0.01267  Uiso   1.00
O71    O     0.94315   0.55891   0.50515   0.01267  Uiso   1.00
O72    O     0.00361   0.44692   0.50294   0.01267  Uiso   1.00
O73    O     0.94822   0.53294   0.47830   0.01267  Uiso   1.00
O74    O     0.86729   0.72999   0.48575   0.01267  Uiso   1.00
O75    O     0.90275   0.67745   0.46755   0.01267  Uiso   1.00
O76    O     0.85386   0.75690   0.44227   0.01267  Uiso   1.00
O77    O     0.88763   0.78959   0.39214   0.01267  Uiso   1.00
O78    O     0.92464   0.73620   0.37165   0.01267  Uiso   1.00
O79    O     0.89082   0.70413   0.42312   0.01267  Uiso   1.00
O80    O     0.98068   0.28130   0.65536   0.01267  Uiso   1.00
O81    O     0.00054   0.30249   0.59420   0.01267  Uiso   1.00
O82    O     0.93474   0.30972   0.68141   0.01267  Uiso   1.00
O83    O     0.97160   0.34765   0.56744   0.01267  Uiso   1.00
O84    O     0.87001   0.33260   0.65270   0.01267  Uiso   1.00
O85    O     0.90239   0.36294   0.64991   0.01267  Uiso   1.00
C73    C     0.01730   0.37880   0.53959   0.01267  Uiso   1.00
C74    C     0.02232   0.34653   0.56028   0.01267  Uiso   1.00
C75    C     0.99691   0.33096   0.57457   0.01267  Uiso   1.00
C76    C     0.81069   0.76403   0.52116   0.01267  Uiso   1.00
C77    C     0.81663   0.76922   0.48951   0.01267  Uiso   1.00
C78    C     0.84758   0.75051   0.47145   0.01267  Uiso   1.00
C79    C     0.89750   0.64876   0.41990   0.01267  Uiso   1.00
C80    C     0.91815   0.59137   0.43677   0.01267  Uiso   1.00
C81    C     0.90079   0.64825   0.44538   0.01267  Uiso   1.00
C82    C     0.92120   0.58962   0.46329   0.01267  Uiso   1.00
C83    C     0.91227   0.61855   0.46721   0.01267  Uiso   1.00
C84    C     0.90679   0.62086   0.41470   0.01267  Uiso   1.00
C85    C     0.93810   0.55842   0.48382   0.01267  Uiso   1.00
C86    C     0.90850   0.62293   0.38413   0.01267  Uiso   1.00
C87    C     0.89726   0.67862   0.44572   0.01267  Uiso   1.00
C88    C     0.00835   0.70667   0.32335   0.01267  Uiso   1.00
C89    C     0.02847   0.68809   0.30301   0.01267  Uiso   1.00
C90    C     0.96451   0.29698   0.67445   0.01267  Uiso   1.00
Fe11   Fe    0.95494   0.40830   0.74605   0.01267  Uiso   1.00
Fe12   Fe    0.11076   0.66463   0.32040   0.01267  Uiso   1.00
O86    O     0.85443   0.57960   0.76148   0.01267  Uiso   1.00
O87    O     0.83266   0.64480   0.73977   0.01267  Uiso   1.00
O88    O     0.99279   0.50515   0.55891   0.01267  Uiso   1.00
O89    O     0.04653   0.50294   0.44692   0.01267  Uiso   1.00
O90    O     0.04053   0.47830   0.53294   0.01267  Uiso   1.00
O91    O     0.91698   0.48575   0.72999   0.01267  Uiso   1.00
O92    O     0.95224   0.46755   0.67745   0.01267  Uiso   1.00
O93    O     0.94697   0.44227   0.75690   0.01267  Uiso   1.00
O94    O     0.93064   0.39214   0.78959   0.01267  Uiso   1.00
O95    O     0.96751   0.37165   0.73620   0.01267  Uiso   1.00
O96    O     0.98193   0.42312   0.70413   0.01267  Uiso   1.00
O97    O     0.08267   0.65536   0.28130   0.01267  Uiso   1.00
O98    O     0.10277   0.59420   0.30249   0.01267  Uiso   1.00
O99    O     0.07413   0.68141   0.30972   0.01267  Uiso   1.00
O100   O     0.11331   0.56744   0.34765   0.01267  Uiso   1.00
O101   O     0.14470   0.65270   0.33260   0.01267  Uiso   1.00
O102   O     0.08477   0.64991   0.36294   0.01267  Uiso   1.00
C91    C     0.06431   0.53959   0.37880   0.01267  Uiso   1.00
C92    C     0.07087   0.56028   0.34653   0.01267  Uiso   1.00
C93    C     0.09756   0.57457   0.33096   0.01267  Uiso   1.00
C94    C     0.90412   0.52116   0.76403   0.01267  Uiso   1.00
C95    C     0.92464   0.48951   0.76922   0.01267  Uiso   1.00
C96    C     0.93046   0.47145   0.75051   0.01267  Uiso   1.00
C97    C     0.03384   0.41990   0.64876   0.01267  Uiso   1.00
C98    C     0.05371   0.43677   0.59137   0.01267  Uiso   1.00
C99    C     0.00558   0.44538   0.64825   0.01267  Uiso   1.00
C100   C     0.02589   0.46329   0.58962   0.01267  Uiso   1.00
C101   C     0.00198   0.46721   0.61855   0.01267  Uiso   1.00
C102   C     0.05765   0.41470   0.62086   0.01267  Uiso   1.00
C103   C     0.01966   0.48382   0.55842   0.01267  Uiso   1.00
C104   C     0.08445   0.38413   0.62293   0.01267  Uiso   1.00
C105   C     0.97840   0.44572   0.67862   0.01267  Uiso   1.00
C106   C     0.96163   0.32335   0.70667   0.01267  Uiso   1.00
C107   C     0.98044   0.30301   0.68809   0.01267  Uiso   1.00
C108   C     0.06406   0.67445   0.29698   0.01267  Uiso   1.00
Fe13   Fe    0.74605   0.89070   0.95494   0.01267  Uiso   1.00
Fe14   Fe    0.32040   0.90422   0.11076   0.01267  Uiso   1.00
O103   O     0.76148   0.80449   0.85443   0.01267  Uiso   1.00
O104   O     0.73977   0.78277   0.83266   0.01267  Uiso   1.00
O105   O     0.55891   0.94315   0.99279   0.01267  Uiso   1.00
O106   O     0.44692   0.00361   0.04653   0.01267  Uiso   1.00
O107   O     0.53294   0.94822   0.04053   0.01267  Uiso   1.00
O108   O     0.72999   0.86729   0.91698   0.01267  Uiso   1.00
O109   O     0.67745   0.90275   0.95224   0.01267  Uiso   1.00
O110   O     0.75690   0.85386   0.94697   0.01267  Uiso   1.00
O111   O     0.78959   0.88763   0.93064   0.01267  Uiso   1.00
O112   O     0.73620   0.92464   0.96751   0.01267  Uiso   1.00
O113   O     0.70413   0.89082   0.98193   0.01267  Uiso   1.00
O114   O     0.28130   0.98068   0.08267   0.01267  Uiso   1.00
O115   O     0.30249   0.00054   0.10277   0.01267  Uiso   1.00
O116   O     0.30972   0.93474   0.07413   0.01267  Uiso   1.00
O117   O     0.34765   0.97160   0.11331   0.01267  Uiso   1.00
O118   O     0.33260   0.87001   0.14470   0.01267  Uiso   1.00
O119   O     0.36294   0.90239   0.08477   0.01267  Uiso   1.00
C109   C     0.37880   0.01730   0.06431   0.01267  Uiso   1.00
C110   C     0.34653   0.02232   0.07087   0.01267  Uiso   1.00
C111   C     0.33096   0.99691   0.09756   0.01267  Uiso   1.00
C112   C     0.76403   0.81069   0.90412   0.01267  Uiso   1.00
C113   C     0.76922   0.81663   0.92464   0.01267  Uiso   1.00
C114   C     0.75051   0.84758   0.93046   0.01267  Uiso   1.00
C115   C     0.64876   0.89750   0.03384   0.01267  Uiso   1.00
C116   C     0.59137   0.91815   0.05371   0.01267  Uiso   1.00
C117   C     0.64825   0.90079   0.00558   0.01267  Uiso   1.00
C118   C     0.58962   0.92120   0.02589   0.01267  Uiso   1.00
C119   C     0.61855   0.91227   0.00198   0.01267  Uiso   1.00
C120   C     0.62086   0.90679   0.05765   0.01267  Uiso   1.00
C121   C     0.55842   0.93810   0.01966   0.01267  Uiso   1.00
C122   C     0.62293   0.90850   0.08445   0.01267  Uiso   1.00
C123   C     0.67862   0.89726   0.97840   0.01267  Uiso   1.00
C124   C     0.70667   0.00835   0.96163   0.01267  Uiso   1.00
C125   C     0.68809   0.02847   0.98044   0.01267  Uiso   1.00
C126   C     0.29698   0.96451   0.06406   0.01267  Uiso   1.00
Fe15   Fe    0.40830   0.95494   0.89070   0.01267  Uiso   1.00
Fe16   Fe    0.66463   0.11076   0.90422   0.01267  Uiso   1.00
O120   O     0.57960   0.85443   0.80449   0.01267  Uiso   1.00
O121   O     0.64480   0.83266   0.78277   0.01267  Uiso   1.00
O122   O     0.50515   0.99279   0.94315   0.01267  Uiso   1.00
O123   O     0.50294   0.04653   0.00361   0.01267  Uiso   1.00
O124   O     0.47830   0.04053   0.94822   0.01267  Uiso   1.00
O125   O     0.48575   0.91698   0.86729   0.01267  Uiso   1.00
O126   O     0.46755   0.95224   0.90275   0.01267  Uiso   1.00
O127   O     0.44227   0.94697   0.85386   0.01267  Uiso   1.00
O128   O     0.39214   0.93064   0.88763   0.01267  Uiso   1.00
O129   O     0.37165   0.96751   0.92464   0.01267  Uiso   1.00
O130   O     0.42312   0.98193   0.89082   0.01267  Uiso   1.00
O131   O     0.65536   0.08267   0.98068   0.01267  Uiso   1.00
O132   O     0.59420   0.10277   0.00054   0.01267  Uiso   1.00
O133   O     0.68141   0.07413   0.93474   0.01267  Uiso   1.00
O134   O     0.56744   0.11331   0.97160   0.01267  Uiso   1.00
O135   O     0.65270   0.14470   0.87001   0.01267  Uiso   1.00
O136   O     0.64991   0.08477   0.90239   0.01267  Uiso   1.00
C127   C     0.53959   0.06431   0.01730   0.01267  Uiso   1.00
C128   C     0.56028   0.07087   0.02232   0.01267  Uiso   1.00
C129   C     0.57457   0.09756   0.99691   0.01267  Uiso   1.00
C130   C     0.52116   0.90412   0.81069   0.01267  Uiso   1.00
C131   C     0.48951   0.92464   0.81663   0.01267  Uiso   1.00
C132   C     0.47145   0.93046   0.84758   0.01267  Uiso   1.00
C133   C     0.41990   0.03384   0.89750   0.01267  Uiso   1.00
C134   C     0.43677   0.05371   0.91815   0.01267  Uiso   1.00
C135   C     0.44538   0.00558   0.90079   0.01267  Uiso   1.00
C136   C     0.46329   0.02589   0.92120   0.01267  Uiso   1.00
C137   C     0.46721   0.00198   0.91227   0.01267  Uiso   1.00
C138   C     0.41470   0.05765   0.90679   0.01267  Uiso   1.00
C139   C     0.48382   0.01966   0.93810   0.01267  Uiso   1.00
C140   C     0.38413   0.08445   0.90850   0.01267  Uiso   1.00
C141   C     0.44572   0.97840   0.89726   0.01267  Uiso   1.00
C142   C     0.32335   0.96163   0.00835   0.01267  Uiso   1.00
C143   C     0.30301   0.98044   0.02847   0.01267  Uiso   1.00
C144   C     0.67445   0.06406   0.96451   0.01267  Uiso   1.00
Fe17   Fe    0.40830   0.89070   0.74605   0.01267  Uiso   1.00
Fe18   Fe    0.66463   0.90422   0.32040   0.01267  Uiso   1.00
O137   O     0.57960   0.80449   0.76148   0.01267  Uiso   1.00
O138   O     0.64480   0.78277   0.73977   0.01267  Uiso   1.00
O139   O     0.50515   0.94315   0.55891   0.01267  Uiso   1.00
O140   O     0.50294   0.00361   0.44692   0.01267  Uiso   1.00
O141   O     0.47830   0.94822   0.53294   0.01267  Uiso   1.00
O142   O     0.48575   0.86729   0.72999   0.01267  Uiso   1.00
O143   O     0.46755   0.90275   0.67745   0.01267  Uiso   1.00
O144   O     0.44227   0.85386   0.75690   0.01267  Uiso   1.00
O145   O     0.39214   0.88763   0.78959   0.01267  Uiso   1.00
O146   O     0.37165   0.92464   0.73620   0.01267  Uiso   1.00
O147   O     0.42312   0.89082   0.70413   0.01267  Uiso   1.00
O148   O     0.65536   0.98068   0.28130   0.01267  Uiso   1.00
O149   O     0.59420   0.00054   0.30249   0.01267  Uiso   1.00
O150   O     0.68141   0.93474   0.30972   0.01267  Uiso   1.00
O151   O     0.56744   0.97160   0.34765   0.01267  Uiso   1.00
O152   O     0.65270   0.87001   0.33260   0.01267  Uiso   1.00
O153   O     0.64991   0.90239   0.36294   0.01267  Uiso   1.00
C145   C     0.53959   0.01730   0.37880   0.01267  Uiso   1.00
C146   C     0.56028   0.02232   0.34653   0.01267  Uiso   1.00
C147   C     0.57457   0.99691   0.33096   0.01267  Uiso   1.00
C148   C     0.52116   0.81069   0.76403   0.01267  Uiso   1.00
C149   C     0.48951   0.81663   0.76922   0.01267  Uiso   1.00
C150   C     0.47145   0.84758   0.75051   0.01267  Uiso   1.00
C151   C     0.41990   0.89750   0.64876   0.01267  Uiso   1.00
C152   C     0.43677   0.91815   0.59137   0.01267  Uiso   1.00
C153   C     0.44538   0.90079   0.64825   0.01267  Uiso   1.00
C154   C     0.46329   0.92120   0.58962   0.01267  Uiso   1.00
C155   C     0.46721   0.91227   0.61855   0.01267  Uiso   1.00
C156   C     0.41470   0.90679   0.62086   0.01267  Uiso   1.00
C157   C     0.48382   0.93810   0.55842   0.01267  Uiso   1.00
C158   C     0.38413   0.90850   0.62293   0.01267  Uiso   1.00
C159   C     0.44572   0.89726   0.67862   0.01267  Uiso   1.00
C160   C     0.32335   0.00835   0.70667   0.01267  Uiso   1.00
C161   C     0.30301   0.02847   0.68809   0.01267  Uiso   1.00
C162   C     0.67445   0.96451   0.29698   0.01267  Uiso   1.00
Fe19   Fe    0.74605   0.95494   0.40830   0.01267  Uiso   1.00
Fe20   Fe    0.32040   0.11076   0.66463   0.01267  Uiso   1.00
O154   O     0.76148   0.85443   0.57960   0.01267  Uiso   1.00
O155   O     0.73977   0.83266   0.64480   0.01267  Uiso   1.00
O156   O     0.55891   0.99279   0.50515   0.01267  Uiso   1.00
O157   O     0.44692   0.04653   0.50294   0.01267  Uiso   1.00
O158   O     0.53294   0.04053   0.47830   0.01267  Uiso   1.00
O159   O     0.72999   0.91698   0.48575   0.01267  Uiso   1.00
O160   O     0.67745   0.95224   0.46755   0.01267  Uiso   1.00
O161   O     0.75690   0.94697   0.44227   0.01267  Uiso   1.00
O162   O     0.78959   0.93064   0.39214   0.01267  Uiso   1.00
O163   O     0.73620   0.96751   0.37165   0.01267  Uiso   1.00
O164   O     0.70413   0.98193   0.42312   0.01267  Uiso   1.00
O165   O     0.28130   0.08267   0.65536   0.01267  Uiso   1.00
O166   O     0.30249   0.10277   0.59420   0.01267  Uiso   1.00
O167   O     0.30972   0.07413   0.68141   0.01267  Uiso   1.00
O168   O     0.34765   0.11331   0.56744   0.01267  Uiso   1.00
O169   O     0.33260   0.14470   0.65270   0.01267  Uiso   1.00
O170   O     0.36294   0.08477   0.64991   0.01267  Uiso   1.00
C163   C     0.37880   0.06431   0.53959   0.01267  Uiso   1.00
C164   C     0.34653   0.07087   0.56028   0.01267  Uiso   1.00
C165   C     0.33096   0.09756   0.57457   0.01267  Uiso   1.00
C166   C     0.76403   0.90412   0.52116   0.01267  Uiso   1.00
C167   C     0.76922   0.92464   0.48951   0.01267  Uiso   1.00
C168   C     0.75051   0.93046   0.47145   0.01267  Uiso   1.00
C169   C     0.64876   0.03384   0.41990   0.01267  Uiso   1.00
C170   C     0.59137   0.05371   0.43677   0.01267  Uiso   1.00
C171   C     0.64825   0.00558   0.44538   0.01267  Uiso   1.00
C172   C     0.58962   0.02589   0.46329   0.01267  Uiso   1.00
C173   C     0.61855   0.00198   0.46721   0.01267  Uiso   1.00
C174   C     0.62086   0.05765   0.41470   0.01267  Uiso   1.00
C175   C     0.55842   0.01966   0.48382   0.01267  Uiso   1.00
C176   C     0.62293   0.08445   0.38413   0.01267  Uiso   1.00
C177   C     0.67862   0.97840   0.44572   0.01267  Uiso   1.00
C178   C     0.70667   0.96163   0.32335   0.01267  Uiso   1.00
C179   C     0.68809   0.98044   0.30301   0.01267  Uiso   1.00
C180   C     0.29698   0.06406   0.67445   0.01267  Uiso   1.00
Fe21   Fe    0.95494   0.74605   0.89070   0.01267  Uiso   1.00
Fe22   Fe    0.11076   0.32040   0.90422   0.01267  Uiso   1.00
O171   O     0.85443   0.76148   0.80449   0.01267  Uiso   1.00
O172   O     0.83266   0.73977   0.78277   0.01267  Uiso   1.00
O173   O     0.99279   0.55891   0.94315   0.01267  Uiso   1.00
O174   O     0.04653   0.44692   0.00361   0.01267  Uiso   1.00
O175   O     0.04053   0.53294   0.94822   0.01267  Uiso   1.00
O176   O     0.91698   0.72999   0.86729   0.01267  Uiso   1.00
O177   O     0.95224   0.67745   0.90275   0.01267  Uiso   1.00
O178   O     0.94697   0.75690   0.85386   0.01267  Uiso   1.00
O179   O     0.93064   0.78959   0.88763   0.01267  Uiso   1.00
O180   O     0.96751   0.73620   0.92464   0.01267  Uiso   1.00
O181   O     0.98193   0.70413   0.89082   0.01267  Uiso   1.00
O182   O     0.08267   0.28130   0.98068   0.01267  Uiso   1.00
O183   O     0.10277   0.30249   0.00054   0.01267  Uiso   1.00
O184   O     0.07413   0.30972   0.93474   0.01267  Uiso   1.00
O185   O     0.11331   0.34765   0.97160   0.01267  Uiso   1.00
O186   O     0.14470   0.33260   0.87001   0.01267  Uiso   1.00
O187   O     0.08477   0.36294   0.90239   0.01267  Uiso   1.00
C181   C     0.06431   0.37880   0.01730   0.01267  Uiso   1.00
C182   C     0.07087   0.34653   0.02232   0.01267  Uiso   1.00
C183   C     0.09756   0.33096   0.99691   0.01267  Uiso   1.00
C184   C     0.90412   0.76403   0.81069   0.01267  Uiso   1.00
C185   C     0.92464   0.76922   0.81663   0.01267  Uiso   1.00
C186   C     0.93046   0.75051   0.84758   0.01267  Uiso   1.00
C187   C     0.03384   0.64876   0.89750   0.01267  Uiso   1.00
C188   C     0.05371   0.59137   0.91815   0.01267  Uiso   1.00
C189   C     0.00558   0.64825   0.90079   0.01267  Uiso   1.00
C190   C     0.02589   0.58962   0.92120   0.01267  Uiso   1.00
C191   C     0.00198   0.61855   0.91227   0.01267  Uiso   1.00
C192   C     0.05765   0.62086   0.90679   0.01267  Uiso   1.00
C193   C     0.01966   0.55842   0.93810   0.01267  Uiso   1.00
C194   C     0.08445   0.62293   0.90850   0.01267  Uiso   1.00
C195   C     0.97840   0.67862   0.89726   0.01267  Uiso   1.00
C196   C     0.96163   0.70667   0.00835   0.01267  Uiso   1.00
C197   C     0.98044   0.68809   0.02847   0.01267  Uiso   1.00
C198   C     0.06406   0.29698   0.96451   0.01267  Uiso   1.00
Fe23   Fe    0.89070   0.40830   0.95494   0.01267  Uiso   1.00
Fe24   Fe    0.90422   0.66463   0.11076   0.01267  Uiso   1.00
O188   O     0.80449   0.57960   0.85443   0.01267  Uiso   1.00
O189   O     0.78277   0.64480   0.83266   0.01267  Uiso   1.00
O190   O     0.94315   0.50515   0.99279   0.01267  Uiso   1.00
O191   O     0.00361   0.50294   0.04653   0.01267  Uiso   1.00
O192   O     0.94822   0.47830   0.04053   0.01267  Uiso   1.00
O193   O     0.86729   0.48575   0.91698   0.01267  Uiso   1.00
O194   O     0.90275   0.46755   0.95224   0.01267  Uiso   1.00
O195   O     0.85386   0.44227   0.94697   0.01267  Uiso   1.00
O196   O     0.88763   0.39214   0.93064   0.01267  Uiso   1.00
O197   O     0.92464   0.37165   0.96751   0.01267  Uiso   1.00
O198   O     0.89082   0.42312   0.98193   0.01267  Uiso   1.00
O199   O     0.98068   0.65536   0.08267   0.01267  Uiso   1.00
O200   O     0.00054   0.59420   0.10277   0.01267  Uiso   1.00
O201   O     0.93474   0.68141   0.07413   0.01267  Uiso   1.00
O202   O     0.97160   0.56744   0.11331   0.01267  Uiso   1.00
O203   O     0.87001   0.65270   0.14470   0.01267  Uiso   1.00
O204   O     0.90239   0.64991   0.08477   0.01267  Uiso   1.00
C199   C     0.01730   0.53959   0.06431   0.01267  Uiso   1.00
C200   C     0.02232   0.56028   0.07087   0.01267  Uiso   1.00
C201   C     0.99691   0.57457   0.09756   0.01267  Uiso   1.00
C202   C     0.81069   0.52116   0.90412   0.01267  Uiso   1.00
C203   C     0.81663   0.48951   0.92464   0.01267  Uiso   1.00
C204   C     0.84758   0.47145   0.93046   0.01267  Uiso   1.00
C205   C     0.89750   0.41990   0.03384   0.01267  Uiso   1.00
C206   C     0.91815   0.43677   0.05371   0.01267  Uiso   1.00
C207   C     0.90079   0.44538   0.00558   0.01267  Uiso   1.00
C208   C     0.92120   0.46329   0.02589   0.01267  Uiso   1.00
C209   C     0.91227   0.46721   0.00198   0.01267  Uiso   1.00
C210   C     0.90679   0.41470   0.05765   0.01267  Uiso   1.00
C211   C     0.93810   0.48382   0.01966   0.01267  Uiso   1.00
C212   C     0.90850   0.38413   0.08445   0.01267  Uiso   1.00
C213   C     0.89726   0.44572   0.97840   0.01267  Uiso   1.00
C214   C     0.00835   0.32335   0.96163   0.01267  Uiso   1.00
C215   C     0.02847   0.30301   0.98044   0.01267  Uiso   1.00
C216   C     0.96451   0.67445   0.06406   0.01267  Uiso   1.00
Fe25   Fe    0.50395   0.84170   0.29506   0.01267  Uiso   1.00
Fe26   Fe    0.92960   0.58537   0.13924   0.01267  Uiso   1.00
O205   O     0.48852   0.67040   0.39557   0.01267  Uiso   1.00
O206   O     0.51023   0.60520   0.41734   0.01267  Uiso   1.00
O207   O     0.69109   0.74485   0.25721   0.01267  Uiso   1.00
O208   O     0.80308   0.74706   0.20347   0.01267  Uiso   1.00
O209   O     0.71706   0.77170   0.20947   0.01267  Uiso   1.00
O210   O     0.52001   0.76425   0.33302   0.01267  Uiso   1.00
O211   O     0.57255   0.78245   0.29776   0.01267  Uiso   1.00
O212   O     0.49310   0.80773   0.30303   0.01267  Uiso   1.00
O213   O     0.46041   0.85786   0.31936   0.01267  Uiso   1.00
O214   O     0.51380   0.87835   0.28249   0.01267  Uiso   1.00
O215   O     0.54587   0.82688   0.26807   0.01267  Uiso   1.00
O216   O     0.96870   0.59464   0.16733   0.01267  Uiso   1.00
O217   O     0.94751   0.65580   0.14723   0.01267  Uiso   1.00
O218   O     0.94028   0.56859   0.17587   0.01267  Uiso   1.00
O219   O     0.90235   0.68256   0.13669   0.01267  Uiso   1.00
O220   O     0.91740   0.59730   0.10530   0.01267  Uiso   1.00
O221   O     0.88706   0.60009   0.16523   0.01267  Uiso   1.00
C217   C     0.87120   0.71041   0.18569   0.01267  Uiso   1.00
C218   C     0.90347   0.68972   0.17913   0.01267  Uiso   1.00
C219   C     0.91904   0.67543   0.15244   0.01267  Uiso   1.00
C220   C     0.48597   0.72884   0.34588   0.01267  Uiso   1.00
C221   C     0.48078   0.76049   0.32536   0.01267  Uiso   1.00
C222   C     0.49949   0.77855   0.31954   0.01267  Uiso   1.00
C223   C     0.60124   0.83010   0.21616   0.01267  Uiso   1.00
C224   C     0.65863   0.81323   0.19629   0.01267  Uiso   1.00
C225   C     0.60175   0.80462   0.24442   0.01267  Uiso   1.00
C226   C     0.66038   0.78671   0.22411   0.01267  Uiso   1.00
C227   C     0.63145   0.78279   0.24802   0.01267  Uiso   1.00
C228   C     0.62914   0.83530   0.19235   0.01267  Uiso   1.00
C229   C     0.69158   0.76618   0.23034   0.01267  Uiso   1.00
C230   C     0.62707   0.86587   0.16555   0.01267  Uiso   1.00
C231   C     0.57138   0.80428   0.27160   0.01267  Uiso   1.00
C232   C     0.54333   0.92665   0.28837   0.01267  Uiso   1.00
C233   C     0.56191   0.94699   0.26956   0.01267  Uiso   1.00
C234   C     0.95302   0.57555   0.18594   0.01267  Uiso   1.00
Fe27   Fe    0.84170   0.50395   0.35930   0.01267  Uiso   1.00
Fe28   Fe    0.58537   0.92960   0.34578   0.01267  Uiso   1.00
O222   O     0.67040   0.48852   0.44551   0.01267  Uiso   1.00
O223   O     0.60520   0.51023   0.46723   0.01267  Uiso   1.00
O224   O     0.74485   0.69109   0.30685   0.01267  Uiso   1.00
O225   O     0.74706   0.80308   0.24639   0.01267  Uiso   1.00
O226   O     0.77170   0.71706   0.30178   0.01267  Uiso   1.00
O227   O     0.76425   0.52001   0.38271   0.01267  Uiso   1.00
O228   O     0.78245   0.57255   0.34725   0.01267  Uiso   1.00
O229   O     0.80773   0.49310   0.39614   0.01267  Uiso   1.00
O230   O     0.85786   0.46041   0.36237   0.01267  Uiso   1.00
O231   O     0.87835   0.51380   0.32536   0.01267  Uiso   1.00
O232   O     0.82688   0.54587   0.35918   0.01267  Uiso   1.00
O233   O     0.59464   0.96870   0.26932   0.01267  Uiso   1.00
O234   O     0.65580   0.94751   0.24946   0.01267  Uiso   1.00
O235   O     0.56859   0.94028   0.31526   0.01267  Uiso   1.00
O236   O     0.68256   0.90235   0.27840   0.01267  Uiso   1.00
O237   O     0.59730   0.91740   0.37999   0.01267  Uiso   1.00
O238   O     0.60009   0.88706   0.34761   0.01267  Uiso   1.00
C235   C     0.71041   0.87120   0.23270   0.01267  Uiso   1.00
C236   C     0.68972   0.90347   0.22768   0.01267  Uiso   1.00
C237   C     0.67543   0.91904   0.25309   0.01267  Uiso   1.00
C238   C     0.72884   0.48597   0.43931   0.01267  Uiso   1.00
C239   C     0.76049   0.48078   0.43337   0.01267  Uiso   1.00
C240   C     0.77855   0.49949   0.40242   0.01267  Uiso   1.00
C241   C     0.83010   0.60124   0.35250   0.01267  Uiso   1.00
C242   C     0.81323   0.65863   0.33185   0.01267  Uiso   1.00
C243   C     0.80462   0.60175   0.34921   0.01267  Uiso   1.00
C244   C     0.78671   0.66038   0.32880   0.01267  Uiso   1.00
C245   C     0.78279   0.63145   0.33773   0.01267  Uiso   1.00
C246   C     0.83530   0.62914   0.34321   0.01267  Uiso   1.00
C247   C     0.76618   0.69158   0.31190   0.01267  Uiso   1.00
C248   C     0.86587   0.62707   0.34150   0.01267  Uiso   1.00
C249   C     0.80428   0.57138   0.35274   0.01267  Uiso   1.00
C250   C     0.92665   0.54333   0.24165   0.01267  Uiso   1.00
C251   C     0.94699   0.56191   0.22153   0.01267  Uiso   1.00
C252   C     0.57555   0.95302   0.28549   0.01267  Uiso   1.00
Fe29   Fe    0.35930   0.29506   0.84170   0.01267  Uiso   1.00
Fe30   Fe    0.34578   0.13924   0.58537   0.01267  Uiso   1.00
O239   O     0.44551   0.39557   0.67040   0.01267  Uiso   1.00
O240   O     0.46723   0.41734   0.60520   0.01267  Uiso   1.00
O241   O     0.30685   0.25721   0.74485   0.01267  Uiso   1.00
O242   O     0.24639   0.20347   0.74706   0.01267  Uiso   1.00
O243   O     0.30178   0.20947   0.77170   0.01267  Uiso   1.00
O244   O     0.38271   0.33302   0.76425   0.01267  Uiso   1.00
O245   O     0.34725   0.29776   0.78245   0.01267  Uiso   1.00
O246   O     0.39614   0.30303   0.80773   0.01267  Uiso   1.00
O247   O     0.36237   0.31936   0.85786   0.01267  Uiso   1.00
O248   O     0.32536   0.28249   0.87835   0.01267  Uiso   1.00
O249   O     0.35918   0.26807   0.82688   0.01267  Uiso   1.00
O250   O     0.26932   0.16733   0.59464   0.01267  Uiso   1.00
O251   O     0.24946   0.14723   0.65580   0.01267  Uiso   1.00
O252   O     0.31526   0.17587   0.56859   0.01267  Uiso   1.00
O253   O     0.27840   0.13669   0.68256   0.01267  Uiso   1.00
O254   O     0.37999   0.10530   0.59730   0.01267  Uiso   1.00
O255   O     0.34761   0.16523   0.60009   0.01267  Uiso   1.00
C253   C     0.23270   0.18569   0.71041   0.01267  Uiso   1.00
C254   C     0.22768   0.17913   0.68972   0.01267  Uiso   1.00
C255   C     0.25309   0.15244   0.67543   0.01267  Uiso   1.00
C256   C     0.43931   0.34588   0.72884   0.01267  Uiso   1.00
C257   C     0.43337   0.32536   0.76049   0.01267  Uiso   1.00
C258   C     0.40242   0.31954   0.77855   0.01267  Uiso   1.00
C259   C     0.35250   0.21616   0.83010   0.01267  Uiso   1.00
C260   C     0.33185   0.19629   0.81323   0.01267  Uiso   1.00
C261   C     0.34921   0.24442   0.80462   0.01267  Uiso   1.00
C262   C     0.32880   0.22411   0.78671   0.01267  Uiso   1.00
C263   C     0.33773   0.24802   0.78279   0.01267  Uiso   1.00
C264   C     0.34321   0.19235   0.83530   0.01267  Uiso   1.00
C265   C     0.31190   0.23034   0.76618   0.01267  Uiso   1.00
C266   C     0.34150   0.16555   0.86587   0.01267  Uiso   1.00
C267   C     0.35274   0.27160   0.80428   0.01267  Uiso   1.00
C268   C     0.24165   0.28837   0.92665   0.01267  Uiso   1.00
C269   C     0.22153   0.26956   0.94699   0.01267  Uiso   1.00
C270   C     0.28549   0.18594   0.57555   0.01267  Uiso   1.00
Fe31   Fe    0.29506   0.35930   0.50395   0.01267  Uiso   1.00
Fe32   Fe    0.13924   0.34578   0.92960   0.01267  Uiso   1.00
O256   O     0.39557   0.44551   0.48852   0.01267  Uiso   1.00
O257   O     0.41734   0.46723   0.51023   0.01267  Uiso   1.00
O258   O     0.25721   0.30685   0.69109   0.01267  Uiso   1.00
O259   O     0.20347   0.24639   0.80308   0.01267  Uiso   1.00
O260   O     0.20947   0.30178   0.71706   0.01267  Uiso   1.00
O261   O     0.33302   0.38271   0.52001   0.01267  Uiso   1.00
O262   O     0.29776   0.34725   0.57255   0.01267  Uiso   1.00
O263   O     0.30303   0.39614   0.49310   0.01267  Uiso   1.00
O264   O     0.31936   0.36237   0.46041   0.01267  Uiso   1.00
O265   O     0.28249   0.32536   0.51380   0.01267  Uiso   1.00
O266   O     0.26807   0.35918   0.54587   0.01267  Uiso   1.00
O267   O     0.16733   0.26932   0.96870   0.01267  Uiso   1.00
O268   O     0.14723   0.24946   0.94751   0.01267  Uiso   1.00
O269   O     0.17587   0.31526   0.94028   0.01267  Uiso   1.00
O270   O     0.13669   0.27840   0.90235   0.01267  Uiso   1.00
O271   O     0.10530   0.37999   0.91740   0.01267  Uiso   1.00
O272   O     0.16523   0.34761   0.88706   0.01267  Uiso   1.00
C271   C     0.18569   0.23270   0.87120   0.01267  Uiso   1.00
C272   C     0.17913   0.22768   0.90347   0.01267  Uiso   1.00
C273   C     0.15244   0.25309   0.91904   0.01267  Uiso   1.00
C274   C     0.34588   0.43931   0.48597   0.01267  Uiso   1.00
C275   C     0.32536   0.43337   0.48078   0.01267  Uiso   1.00
C276   C     0.31954   0.40242   0.49949   0.01267  Uiso   1.00
C277   C     0.21616   0.35250   0.60124   0.01267  Uiso   1.00
C278   C     0.19629   0.33185   0.65863   0.01267  Uiso   1.00
C279   C     0.24442   0.34921   0.60175   0.01267  Uiso   1.00
C280   C     0.22411   0.32880   0.66038   0.01267  Uiso   1.00
C281   C     0.24802   0.33773   0.63145   0.01267  Uiso   1.00
C282   C     0.19235   0.34321   0.62914   0.01267  Uiso   1.00
C283   C     0.23034   0.31190   0.69158   0.01267  Uiso   1.00
C284   C     0.16555   0.34150   0.62707   0.01267  Uiso   1.00
C285   C     0.27160   0.35274   0.57138   0.01267  Uiso   1.00
C286   C     0.28837   0.24165   0.54333   0.01267  Uiso   1.00
C287   C     0.26956   0.22153   0.56191   0.01267  Uiso   1.00
C288   C     0.18594   0.28549   0.95302   0.01267  Uiso   1.00
Fe33   Fe    0.35930   0.50395   0.29506   0.01267  Uiso   1.00
Fe34   Fe    0.34578   0.92960   0.13924   0.01267  Uiso   1.00
O273   O     0.44551   0.48852   0.39557   0.01267  Uiso   1.00
O274   O     0.46723   0.51023   0.41734   0.01267  Uiso   1.00
O275   O     0.30685   0.69109   0.25721   0.01267  Uiso   1.00
O276   O     0.24639   0.80308   0.20347   0.01267  Uiso   1.00
O277   O     0.30178   0.71706   0.20947   0.01267  Uiso   1.00
O278   O     0.38271   0.52001   0.33302   0.01267  Uiso   1.00
O279   O     0.34725   0.57255   0.29776   0.01267  Uiso   1.00
O280   O     0.39614   0.49310   0.30303   0.01267  Uiso   1.00
O281   O     0.36237   0.46041   0.31936   0.01267  Uiso   1.00
O282   O     0.32536   0.51380   0.28249   0.01267  Uiso   1.00
O283   O     0.35918   0.54587   0.26807   0.01267  Uiso   1.00
O284   O     0.26932   0.96870   0.16733   0.01267  Uiso   1.00
O285   O     0.24946   0.94751   0.14723   0.01267  Uiso   1.00
O286   O     0.31526   0.94028   0.17587   0.01267  Uiso   1.00
O287   O     0.27840   0.90235   0.13669   0.01267  Uiso   1.00
O288   O     0.37999   0.91740   0.10530   0.01267  Uiso   1.00
O289   O     0.34761   0.88706   0.16523   0.01267  Uiso   1.00
C289   C     0.23270   0.87120   0.18569   0.01267  Uiso   1.00
C290   C     0.22768   0.90347   0.17913   0.01267  Uiso   1.00
C291   C     0.25309   0.91904   0.15244   0.01267  Uiso   1.00
C292   C     0.43931   0.48597   0.34588   0.01267  Uiso   1.00
C293   C     0.43337   0.48078   0.32536   0.01267  Uiso   1.00
C294   C     0.40242   0.49949   0.31954   0.01267  Uiso   1.00
C295   C     0.35250   0.60124   0.21616   0.01267  Uiso   1.00
C296   C     0.33185   0.65863   0.19629   0.01267  Uiso   1.00
C297   C     0.34921   0.60175   0.24442   0.01267  Uiso   1.00
C298   C     0.32880   0.66038   0.22411   0.01267  Uiso   1.00
C299   C     0.33773   0.63145   0.24802   0.01267  Uiso   1.00
C300   C     0.34321   0.62914   0.19235   0.01267  Uiso   1.00
C301   C     0.31190   0.69158   0.23034   0.01267  Uiso   1.00
C302   C     0.34150   0.62707   0.16555   0.01267  Uiso   1.00
C303   C     0.35274   0.57138   0.27160   0.01267  Uiso   1.00
C304   C     0.24165   0.54333   0.28837   0.01267  Uiso   1.00
C305   C     0.22153   0.56191   0.26956   0.01267  Uiso   1.00
C306   C     0.28549   0.95302   0.18594   0.01267  Uiso   1.00
Fe35   Fe    0.29506   0.84170   0.35930   0.01267  Uiso   1.00
Fe36   Fe    0.13924   0.58537   0.34578   0.01267  Uiso   1.00
O290   O     0.39557   0.67040   0.44551   0.01267  Uiso   1.00
O291   O     0.41734   0.60520   0.46723   0.01267  Uiso   1.00
O292   O     0.25721   0.74485   0.30685   0.01267  Uiso   1.00
O293   O     0.20347   0.74706   0.24639   0.01267  Uiso   1.00
O294   O     0.20947   0.77170   0.30178   0.01267  Uiso   1.00
O295   O     0.33302   0.76425   0.38271   0.01267  Uiso   1.00
O296   O     0.29776   0.78245   0.34725   0.01267  Uiso   1.00
O297   O     0.30303   0.80773   0.39614   0.01267  Uiso   1.00
O298   O     0.31936   0.85786   0.36237   0.01267  Uiso   1.00
O299   O     0.28249   0.87835   0.32536   0.01267  Uiso   1.00
O300   O     0.26807   0.82688   0.35918   0.01267  Uiso   1.00
O301   O     0.16733   0.59464   0.26932   0.01267  Uiso   1.00
O302   O     0.14723   0.65580   0.24946   0.01267  Uiso   1.00
O303   O     0.17587   0.56859   0.31526   0.01267  Uiso   1.00
O304   O     0.13669   0.68256   0.27840   0.01267  Uiso   1.00
O305   O     0.10530   0.59730   0.37999   0.01267  Uiso   1.00
O306   O     0.16523   0.60009   0.34761   0.01267  Uiso   1.00
C307   C     0.18569   0.71041   0.23270   0.01267  Uiso   1.00
C308   C     0.17913   0.68972   0.22768   0.01267  Uiso   1.00
C309   C     0.15244   0.67543   0.25309   0.01267  Uiso   1.00
C310   C     0.34588   0.72884   0.43931   0.01267  Uiso   1.00
C311   C     0.32536   0.76049   0.43337   0.01267  Uiso   1.00
C312   C     0.31954   0.77855   0.40242   0.01267  Uiso   1.00
C313   C     0.21616   0.83010   0.35250   0.01267  Uiso   1.00
C314   C     0.19629   0.81323   0.33185   0.01267  Uiso   1.00
C315   C     0.24442   0.80462   0.34921   0.01267  Uiso   1.00
C316   C     0.22411   0.78671   0.32880   0.01267  Uiso   1.00
C317   C     0.24802   0.78279   0.33773   0.01267  Uiso   1.00
C318   C     0.19235   0.83530   0.34321   0.01267  Uiso   1.00
C319   C     0.23034   0.76618   0.31190   0.01267  Uiso   1.00
C320   C     0.16555   0.86587   0.34150   0.01267  Uiso   1.00
C321   C     0.27160   0.80428   0.35274   0.01267  Uiso   1.00
C322   C     0.28837   0.92665   0.24165   0.01267  Uiso   1.00
C323   C     0.26956   0.94699   0.22153   0.01267  Uiso   1.00
C324   C     0.18594   0.57555   0.28549   0.01267  Uiso   1.00
Fe37   Fe    0.50395   0.35930   0.84170   0.01267  Uiso   1.00
Fe38   Fe    0.92960   0.34578   0.58537   0.01267  Uiso   1.00
O307   O     0.48852   0.44551   0.67040   0.01267  Uiso   1.00
O308   O     0.51023   0.46723   0.60520   0.01267  Uiso   1.00
O309   O     0.69109   0.30685   0.74485   0.01267  Uiso   1.00
O310   O     0.80308   0.24639   0.74706   0.01267  Uiso   1.00
O311   O     0.71706   0.30178   0.77170   0.01267  Uiso   1.00
O312   O     0.52001   0.38271   0.76425   0.01267  Uiso   1.00
O313   O     0.57255   0.34725   0.78245   0.01267  Uiso   1.00
O314   O     0.49310   0.39614   0.80773   0.01267  Uiso   1.00
O315   O     0.46041   0.36237   0.85786   0.01267  Uiso   1.00
O316   O     0.51380   0.32536   0.87835   0.01267  Uiso   1.00
O317   O     0.54587   0.35918   0.82688   0.01267  Uiso   1.00
O318   O     0.96870   0.26932   0.59464   0.01267  Uiso   1.00
O319   O     0.94751   0.24946   0.65580   0.01267  Uiso   1.00
O320   O     0.94028   0.31526   0.56859   0.01267  Uiso   1.00
O321   O     0.90235   0.27840   0.68256   0.01267  Uiso   1.00
O322   O     0.91740   0.37999   0.59730   0.01267  Uiso   1.00
O323   O     0.88706   0.34761   0.60009   0.01267  Uiso   1.00
C325   C     0.87120   0.23270   0.71041   0.01267  Uiso   1.00
C326   C     0.90347   0.22768   0.68972   0.01267  Uiso   1.00
C327   C     0.91904   0.25309   0.67543   0.01267  Uiso   1.00
C328   C     0.48597   0.43931   0.72884   0.01267  Uiso   1.00
C329   C     0.48078   0.43337   0.76049   0.01267  Uiso   1.00
C330   C     0.49949   0.40242   0.77855   0.01267  Uiso   1.00
C331   C     0.60124   0.35250   0.83010   0.01267  Uiso   1.00
C332   C     0.65863   0.33185   0.81323   0.01267  Uiso   1.00
C333   C     0.60175   0.34921   0.80462   0.01267  Uiso   1.00
C334   C     0.66038   0.32880   0.78671   0.01267  Uiso   1.00
C335   C     0.63145   0.33773   0.78279   0.01267  Uiso   1.00
C336   C     0.62914   0.34321   0.83530   0.01267  Uiso   1.00
C337   C     0.69158   0.31190   0.76618   0.01267  Uiso   1.00
C338   C     0.62707   0.34150   0.86587   0.01267  Uiso   1.00
C339   C     0.57138   0.35274   0.80428   0.01267  Uiso   1.00
C340   C     0.54333   0.24165   0.92665   0.01267  Uiso   1.00
C341   C     0.56191   0.22153   0.94699   0.01267  Uiso   1.00
C342   C     0.95302   0.28549   0.57555   0.01267  Uiso   1.00
Fe39   Fe    0.84170   0.29506   0.50395   0.01267  Uiso   1.00
Fe40   Fe    0.58537   0.13924   0.92960   0.01267  Uiso   1.00
O324   O     0.67040   0.39557   0.48852   0.01267  Uiso   1.00
O325   O     0.60520   0.41734   0.51023   0.01267  Uiso   1.00
O326   O     0.74485   0.25721   0.69109   0.01267  Uiso   1.00
O327   O     0.74706   0.20347   0.80308   0.01267  Uiso   1.00
O328   O     0.77170   0.20947   0.71706   0.01267  Uiso   1.00
O329   O     0.76425   0.33302   0.52001   0.01267  Uiso   1.00
O330   O     0.78245   0.29776   0.57255   0.01267  Uiso   1.00
O331   O     0.80773   0.30303   0.49310   0.01267  Uiso   1.00
O332   O     0.85786   0.31936   0.46041   0.01267  Uiso   1.00
O333   O     0.87835   0.28249   0.51380   0.01267  Uiso   1.00
O334   O     0.82688   0.26807   0.54587   0.01267  Uiso   1.00
O335   O     0.59464   0.16733   0.96870   0.01267  Uiso   1.00
O336   O     0.65580   0.14723   0.94751   0.01267  Uiso   1.00
O337   O     0.56859   0.17587   0.94028   0.01267  Uiso   1.00
O338   O     0.68256   0.13669   0.90235   0.01267  Uiso   1.00
O339   O     0.59730   0.10530   0.91740   0.01267  Uiso   1.00
O340   O     0.60009   0.16523   0.88706   0.01267  Uiso   1.00
C343   C     0.71041   0.18569   0.87120   0.01267  Uiso   1.00
C344   C     0.68972   0.17913   0.90347   0.01267  Uiso   1.00
C345   C     0.67543   0.15244   0.91904   0.01267  Uiso   1.00
C346   C     0.72884   0.34588   0.48597   0.01267  Uiso   1.00
C347   C     0.76049   0.32536   0.48078   0.01267  Uiso   1.00
C348   C     0.77855   0.31954   0.49949   0.01267  Uiso   1.00
C349   C     0.83010   0.21616   0.60124   0.01267  Uiso   1.00
C350   C     0.81323   0.19629   0.65863   0.01267  Uiso   1.00
C351   C     0.80462   0.24442   0.60175   0.01267  Uiso   1.00
C352   C     0.78671   0.22411   0.66038   0.01267  Uiso   1.00
C353   C     0.78279   0.24802   0.63145   0.01267  Uiso   1.00
C354   C     0.83530   0.19235   0.62914   0.01267  Uiso   1.00
C355   C     0.76618   0.23034   0.69158   0.01267  Uiso   1.00
C356   C     0.86587   0.16555   0.62707   0.01267  Uiso   1.00
C357   C     0.80428   0.27160   0.57138   0.01267  Uiso   1.00
C358   C     0.92665   0.28837   0.54333   0.01267  Uiso   1.00
C359   C     0.94699   0.26956   0.56191   0.01267  Uiso   1.00
C360   C     0.57555   0.18594   0.95302   0.01267  Uiso   1.00
Fe41   Fe    0.84170   0.35930   0.29506   0.01267  Uiso   1.00
Fe42   Fe    0.58537   0.34578   0.13924   0.01267  Uiso   1.00
O341   O     0.67040   0.44551   0.39557   0.01267  Uiso   1.00
O342   O     0.60520   0.46723   0.41734   0.01267  Uiso   1.00
O343   O     0.74485   0.30685   0.25721   0.01267  Uiso   1.00
O344   O     0.74706   0.24639   0.20347   0.01267  Uiso   1.00
O345   O     0.77170   0.30178   0.20947   0.01267  Uiso   1.00
O346   O     0.76425   0.38271   0.33302   0.01267  Uiso   1.00
O347   O     0.78245   0.34725   0.29776   0.01267  Uiso   1.00
O348   O     0.80773   0.39614   0.30303   0.01267  Uiso   1.00
O349   O     0.85786   0.36237   0.31936   0.01267  Uiso   1.00
O350   O     0.87835   0.32536   0.28249   0.01267  Uiso   1.00
O351   O     0.82688   0.35918   0.26807   0.01267  Uiso   1.00
O352   O     0.59464   0.26932   0.16733   0.01267  Uiso   1.00
O353   O     0.65580   0.24946   0.14723   0.01267  Uiso   1.00
O354   O     0.56859   0.31526   0.17587   0.01267  Uiso   1.00
O355   O     0.68256   0.27840   0.13669   0.01267  Uiso   1.00
O356   O     0.59730   0.37999   0.10530   0.01267  Uiso   1.00
O357   O     0.60009   0.34761   0.16523   0.01267  Uiso   1.00
C361   C     0.71041   0.23270   0.18569   0.01267  Uiso   1.00
C362   C     0.68972   0.22768   0.17913   0.01267  Uiso   1.00
C363   C     0.67543   0.25309   0.15244   0.01267  Uiso   1.00
C364   C     0.72884   0.43931   0.34588   0.01267  Uiso   1.00
C365   C     0.76049   0.43337   0.32536   0.01267  Uiso   1.00
C366   C     0.77855   0.40242   0.31954   0.01267  Uiso   1.00
C367   C     0.83010   0.35250   0.21616   0.01267  Uiso   1.00
C368   C     0.81323   0.33185   0.19629   0.01267  Uiso   1.00
C369   C     0.80462   0.34921   0.24442   0.01267  Uiso   1.00
C370   C     0.78671   0.32880   0.22411   0.01267  Uiso   1.00
C371   C     0.78279   0.33773   0.24802   0.01267  Uiso   1.00
C372   C     0.83530   0.34321   0.19235   0.01267  Uiso   1.00
C373   C     0.76618   0.31190   0.23034   0.01267  Uiso   1.00
C374   C     0.86587   0.34150   0.16555   0.01267  Uiso   1.00
C375   C     0.80428   0.35274   0.27160   0.01267  Uiso   1.00
C376   C     0.92665   0.24165   0.28837   0.01267  Uiso   1.00
C377   C     0.94699   0.22153   0.26956   0.01267  Uiso   1.00
C378   C     0.57555   0.28549   0.18594   0.01267  Uiso   1.00
Fe43   Fe    0.50395   0.29506   0.35930   0.01267  Uiso   1.00
Fe44   Fe    0.92960   0.13924   0.34578   0.01267  Uiso   1.00
O358   O     0.48852   0.39557   0.44551   0.01267  Uiso   1.00
O359   O     0.51023   0.41734   0.46723   0.01267  Uiso   1.00
O360   O     0.69109   0.25721   0.30685   0.01267  Uiso   1.00
O361   O     0.80308   0.20347   0.24639   0.01267  Uiso   1.00
O362   O     0.71706   0.20947   0.30178   0.01267  Uiso   1.00
O363   O     0.52001   0.33302   0.38271   0.01267  Uiso   1.00
O364   O     0.57255   0.29776   0.34725   0.01267  Uiso   1.00
O365   O     0.49310   0.30303   0.39614   0.01267  Uiso   1.00
O366   O     0.46041   0.31936   0.36237   0.01267  Uiso   1.00
O367   O     0.51380   0.28249   0.32536   0.01267  Uiso   1.00
O368   O     0.54587   0.26807   0.35918   0.01267  Uiso   1.00
O369   O     0.96870   0.16733   0.26932   0.01267  Uiso   1.00
O370   O     0.94751   0.14723   0.24946   0.01267  Uiso   1.00
O371   O     0.94028   0.17587   0.31526   0.01267  Uiso   1.00
O372   O     0.90235   0.13669   0.27840   0.01267  Uiso   1.00
O373   O     0.91740   0.10530   0.37999   0.01267  Uiso   1.00
O374   O     0.88706   0.16523   0.34761   0.01267  Uiso   1.00
C379   C     0.87120   0.18569   0.23270   0.01267  Uiso   1.00
C380   C     0.90347   0.17913   0.22768   0.01267  Uiso   1.00
C381   C     0.91904   0.15244   0.25309   0.01267  Uiso   1.00
C382   C     0.48597   0.34588   0.43931   0.01267  Uiso   1.00
C383   C     0.48078   0.32536   0.43337   0.01267  Uiso   1.00
C384   C     0.49949   0.31954   0.40242   0.01267  Uiso   1.00
C385   C     0.60124   0.21616   0.35250   0.01267  Uiso   1.00
C386   C     0.65863   0.19629   0.33185   0.01267  Uiso   1.00
C387   C     0.60175   0.24442   0.34921   0.01267  Uiso   1.00
C388   C     0.66038   0.22411   0.32880   0.01267  Uiso   1.00
C389   C     0.63145   0.24802   0.33773   0.01267  Uiso   1.00
C390   C     0.62914   0.19235   0.34321   0.01267  Uiso   1.00
C391   C     0.69158   0.23034   0.31190   0.01267  Uiso   1.00
C392   C     0.62707   0.16555   0.34150   0.01267  Uiso   1.00
C393   C     0.57138   0.27160   0.35274   0.01267  Uiso   1.00
C394   C     0.54333   0.28837   0.24165   0.01267  Uiso   1.00
C395   C     0.56191   0.26956   0.22153   0.01267  Uiso   1.00
C396   C     0.95302   0.18594   0.28549   0.01267  Uiso   1.00
Fe45   Fe    0.29506   0.50395   0.84170   0.01267  Uiso   1.00
Fe46   Fe    0.13924   0.92960   0.58537   0.01267  Uiso   1.00
O375   O     0.39557   0.48852   0.67040   0.01267  Uiso   1.00
O376   O     0.41734   0.51023   0.60520   0.01267  Uiso   1.00
O377   O     0.25721   0.69109   0.74485   0.01267  Uiso   1.00
O378   O     0.20347   0.80308   0.74706   0.01267  Uiso   1.00
O379   O     0.20947   0.71706   0.77170   0.01267  Uiso   1.00
O380   O     0.33302   0.52001   0.76425   0.01267  Uiso   1.00
O381   O     0.29776   0.57255   0.78245   0.01267  Uiso   1.00
O382   O     0.30303   0.49310   0.80773   0.01267  Uiso   1.00
O383   O     0.31936   0.46041   0.85786   0.01267  Uiso   1.00
O384   O     0.28249   0.51380   0.87835   0.01267  Uiso   1.00
O385   O     0.26807   0.54587   0.82688   0.01267  Uiso   1.00
O386   O     0.16733   0.96870   0.59464   0.01267  Uiso   1.00
O387   O     0.14723   0.94751   0.65580   0.01267  Uiso   1.00
O388   O     0.17587   0.94028   0.56859   0.01267  Uiso   1.00
O389   O     0.13669   0.90235   0.68256   0.01267  Uiso   1.00
O390   O     0.10530   0.91740   0.59730   0.01267  Uiso   1.00
O391   O     0.16523   0.88706   0.60009   0.01267  Uiso   1.00
C397   C     0.18569   0.87120   0.71041   0.01267  Uiso   1.00
C398   C     0.17913   0.90347   0.68972   0.01267  Uiso   1.00
C399   C     0.15244   0.91904   0.67543   0.01267  Uiso   1.00
C400   C     0.34588   0.48597   0.72884   0.01267  Uiso   1.00
C401   C     0.32536   0.48078   0.76049   0.01267  Uiso   1.00
C402   C     0.31954   0.49949   0.77855   0.01267  Uiso   1.00
C403   C     0.21616   0.60124   0.83010   0.01267  Uiso   1.00
C404   C     0.19629   0.65863   0.81323   0.01267  Uiso   1.00
C405   C     0.24442   0.60175   0.80462   0.01267  Uiso   1.00
C406   C     0.22411   0.66038   0.78671   0.01267  Uiso   1.00
C407   C     0.24802   0.63145   0.78279   0.01267  Uiso   1.00
C408   C     0.19235   0.62914   0.83530   0.01267  Uiso   1.00
C409   C     0.23034   0.69158   0.76618   0.01267  Uiso   1.00
C410   C     0.16555   0.62707   0.86587   0.01267  Uiso   1.00
C411   C     0.27160   0.57138   0.80428   0.01267  Uiso   1.00
C412   C     0.28837   0.54333   0.92665   0.01267  Uiso   1.00
C413   C     0.26956   0.56191   0.94699   0.01267  Uiso   1.00
C414   C     0.18594   0.95302   0.57555   0.01267  Uiso   1.00
Fe47   Fe    0.35930   0.84170   0.50395   0.01267  Uiso   1.00
Fe48   Fe    0.34578   0.58537   0.92960   0.01267  Uiso   1.00
O392   O     0.44551   0.67040   0.48852   0.01267  Uiso   1.00
O393   O     0.46723   0.60520   0.51023   0.01267  Uiso   1.00
O394   O     0.30685   0.74485   0.69109   0.01267  Uiso   1.00
O395   O     0.24639   0.74706   0.80308   0.01267  Uiso   1.00
O396   O     0.30178   0.77170   0.71706   0.01267  Uiso   1.00
O397   O     0.38271   0.76425   0.52001   0.01267  Uiso   1.00
O398   O     0.34725   0.78245   0.57255   0.01267  Uiso   1.00
O399   O     0.39614   0.80773   0.49310   0.01267  Uiso   1.00
O400   O     0.36237   0.85786   0.46041   0.01267  Uiso   1.00
O401   O     0.32536   0.87835   0.51380   0.01267  Uiso   1.00
O402   O     0.35918   0.82688   0.54587   0.01267  Uiso   1.00
O403   O     0.26932   0.59464   0.96870   0.01267  Uiso   1.00
O404   O     0.24946   0.65580   0.94751   0.01267  Uiso   1.00
O405   O     0.31526   0.56859   0.94028   0.01267  Uiso   1.00
O406   O     0.27840   0.68256   0.90235   0.01267  Uiso   1.00
O407   O     0.37999   0.59730   0.91740   0.01267  Uiso   1.00
O408   O     0.34761   0.60009   0.88706   0.01267  Uiso   1.00
C415   C     0.23270   0.71041   0.87120   0.01267  Uiso   1.00
C416   C     0.22768   0.68972   0.90347   0.01267  Uiso   1.00
C417   C     0.25309   0.67543   0.91904   0.01267  Uiso   1.00
C418   C     0.43931   0.72884   0.48597   0.01267  Uiso   1.00
C419   C     0.43337   0.76049   0.48078   0.01267  Uiso   1.00
C420   C     0.40242   0.77855   0.49949   0.01267  Uiso   1.00
C421   C     0.35250   0.83010   0.60124   0.01267  Uiso   1.00
C422   C     0.33185   0.81323   0.65863   0.01267  Uiso   1.00
C423   C     0.34921   0.80462   0.60175   0.01267  Uiso   1.00
C424   C     0.32880   0.78671   0.66038   0.01267  Uiso   1.00
C425   C     0.33773   0.78279   0.63145   0.01267  Uiso   1.00
C426   C     0.34321   0.83530   0.62914   0.01267  Uiso   1.00
C427   C     0.31190   0.76618   0.69158   0.01267  Uiso   1.00
C428   C     0.34150   0.86587   0.62707   0.01267  Uiso   1.00
C429   C     0.35274   0.80428   0.57138   0.01267  Uiso   1.00
C430   C     0.24165   0.92665   0.54333   0.01267  Uiso   1.00
C431   C     0.22153   0.94699   0.56191   0.01267  Uiso   1.00
C432   C     0.28549   0.57555   0.95302   0.01267  Uiso   1.00
Fe49   Fe    0.50395   0.84170   0.35930   0.01267  Uiso   1.00
Fe50   Fe    0.92960   0.58537   0.34578   0.01267  Uiso   1.00
O409   O     0.48852   0.67040   0.44551   0.01267  Uiso   1.00
O410   O     0.51023   0.60520   0.46723   0.01267  Uiso   1.00
O411   O     0.69109   0.74485   0.30685   0.01267  Uiso   1.00
O412   O     0.80308   0.74706   0.24639   0.01267  Uiso   1.00
O413   O     0.71706   0.77169   0.30178   0.01267  Uiso   1.00
O414   O     0.52001   0.76425   0.38271   0.01267  Uiso   1.00
O415   O     0.57255   0.78245   0.34725   0.01267  Uiso   1.00
O416   O     0.49310   0.80773   0.39614   0.01267  Uiso   1.00
O417   O     0.46041   0.85786   0.36237   0.01267  Uiso   1.00
O418   O     0.51380   0.87835   0.32536   0.01267  Uiso   1.00
O419   O     0.54587   0.82688   0.35918   0.01267  Uiso   1.00
O420   O     0.96870   0.59464   0.26932   0.01267  Uiso   1.00
O421   O     0.94751   0.65580   0.24946   0.01267  Uiso   1.00
O422   O     0.94028   0.56859   0.31526   0.01267  Uiso   1.00
O423   O     0.90235   0.68256   0.27840   0.01267  Uiso   1.00
O424   O     0.91740   0.59730   0.37999   0.01267  Uiso   1.00
O425   O     0.88706   0.60009   0.34761   0.01267  Uiso   1.00
C433   C     0.87120   0.71041   0.23270   0.01267  Uiso   1.00
C434   C     0.90347   0.68972   0.22768   0.01267  Uiso   1.00
C435   C     0.91904   0.67543   0.25309   0.01267  Uiso   1.00
C436   C     0.48597   0.72884   0.43931   0.01267  Uiso   1.00
C437   C     0.48078   0.76049   0.43337   0.01267  Uiso   1.00
C438   C     0.49949   0.77855   0.40242   0.01267  Uiso   1.00
C439   C     0.60124   0.83010   0.35250   0.01267  Uiso   1.00
C440   C     0.65863   0.81323   0.33185   0.01267  Uiso   1.00
C441   C     0.60175   0.80462   0.34921   0.01267  Uiso   1.00
C442   C     0.66038   0.78671   0.32880   0.01267  Uiso   1.00
C443   C     0.63145   0.78279   0.33773   0.01267  Uiso   1.00
C444   C     0.62914   0.83530   0.34321   0.01267  Uiso   1.00
C445   C     0.69158   0.76618   0.31190   0.01267  Uiso   1.00
C446   C     0.62707   0.86587   0.34150   0.01267  Uiso   1.00
C447   C     0.57138   0.80428   0.35274   0.01267  Uiso   1.00
C448   C     0.54333   0.92665   0.24165   0.01267  Uiso   1.00
C449   C     0.56191   0.94699   0.22153   0.01267  Uiso   1.00
C450   C     0.95302   0.57555   0.28549   0.01267  Uiso   1.00
Fe51   Fe    0.84170   0.50395   0.29506   0.01267  Uiso   1.00
Fe52   Fe    0.58537   0.92960   0.13924   0.01267  Uiso   1.00
O426   O     0.67040   0.48852   0.39557   0.01267  Uiso   1.00
O427   O     0.60520   0.51023   0.41734   0.01267  Uiso   1.00
O428   O     0.74485   0.69109   0.25721   0.01267  Uiso   1.00
O429   O     0.74706   0.80308   0.20347   0.01267  Uiso   1.00
O430   O     0.77169   0.71706   0.20947   0.01267  Uiso   1.00
O431   O     0.76425   0.52001   0.33302   0.01267  Uiso   1.00
O432   O     0.78245   0.57255   0.29776   0.01267  Uiso   1.00
O433   O     0.80773   0.49310   0.30303   0.01267  Uiso   1.00
O434   O     0.85786   0.46041   0.31936   0.01267  Uiso   1.00
O435   O     0.87835   0.51380   0.28249   0.01267  Uiso   1.00
O436   O     0.82688   0.54587   0.26807   0.01267  Uiso   1.00
O437   O     0.59464   0.96870   0.16733   0.01267  Uiso   1.00
O438   O     0.65580   0.94751   0.14723   0.01267  Uiso   1.00
O439   O     0.56859   0.94028   0.17587   0.01267  Uiso   1.00
O440   O     0.68256   0.90235   0.13669   0.01267  Uiso   1.00
O441   O     0.59730   0.91740   0.10530   0.01267  Uiso   1.00
O442   O     0.60009   0.88706   0.16523   0.01267  Uiso   1.00
C451   C     0.71041   0.87120   0.18569   0.01267  Uiso   1.00
C452   C     0.68972   0.90347   0.17913   0.01267  Uiso   1.00
C453   C     0.67543   0.91904   0.15244   0.01267  Uiso   1.00
C454   C     0.72884   0.48597   0.34588   0.01267  Uiso   1.00
C455   C     0.76049   0.48078   0.32536   0.01267  Uiso   1.00
C456   C     0.77855   0.49949   0.31954   0.01267  Uiso   1.00
C457   C     0.83010   0.60124   0.21616   0.01267  Uiso   1.00
C458   C     0.81323   0.65863   0.19629   0.01267  Uiso   1.00
C459   C     0.80462   0.60175   0.24442   0.01267  Uiso   1.00
C460   C     0.78671   0.66038   0.22411   0.01267  Uiso   1.00
C461   C     0.78279   0.63145   0.24802   0.01267  Uiso   1.00
C462   C     0.83530   0.62914   0.19235   0.01267  Uiso   1.00
C463   C     0.76618   0.69158   0.23034   0.01267  Uiso   1.00
C464   C     0.86587   0.62707   0.16555   0.01267  Uiso   1.00
C465   C     0.80428   0.57138   0.27160   0.01267  Uiso   1.00
C466   C     0.92665   0.54333   0.28837   0.01267  Uiso   1.00
C467   C     0.94699   0.56191   0.26956   0.01267  Uiso   1.00
C468   C     0.57555   0.95302   0.18594   0.01267  Uiso   1.00
Fe53   Fe    0.35930   0.29506   0.50395   0.01267  Uiso   1.00
Fe54   Fe    0.34578   0.13924   0.92960   0.01267  Uiso   1.00
O443   O     0.44551   0.39557   0.48852   0.01267  Uiso   1.00
O444   O     0.46723   0.41734   0.51023   0.01267  Uiso   1.00
O445   O     0.30685   0.25721   0.69109   0.01267  Uiso   1.00
O446   O     0.24639   0.20347   0.80308   0.01267  Uiso   1.00
O447   O     0.30178   0.20947   0.71706   0.01267  Uiso   1.00
O448   O     0.38271   0.33302   0.52001   0.01267  Uiso   1.00
O449   O     0.34725   0.29776   0.57255   0.01267  Uiso   1.00
O450   O     0.39614   0.30303   0.49310   0.01267  Uiso   1.00
O451   O     0.36237   0.31936   0.46041   0.01267  Uiso   1.00
O452   O     0.32536   0.28249   0.51380   0.01267  Uiso   1.00
O453   O     0.35918   0.26807   0.54587   0.01267  Uiso   1.00
O454   O     0.26932   0.16733   0.96870   0.01267  Uiso   1.00
O455   O     0.24946   0.14723   0.94751   0.01267  Uiso   1.00
O456   O     0.31526   0.17587   0.94028   0.01267  Uiso   1.00
O457   O     0.27840   0.13669   0.90235   0.01267  Uiso   1.00
O458   O     0.37999   0.10530   0.91740   0.01267  Uiso   1.00
O459   O     0.34761   0.16523   0.88706   0.01267  Uiso   1.00
C469   C     0.23270   0.18569   0.87120   0.01267  Uiso   1.00
C470   C     0.22768   0.17913   0.90347   0.01267  Uiso   1.00
C471   C     0.25309   0.15244   0.91904   0.01267  Uiso   1.00
C472   C     0.43931   0.34588   0.48597   0.01267  Uiso   1.00
C473   C     0.43337   0.32536   0.48078   0.01267  Uiso   1.00
C474   C     0.40242   0.31954   0.49949   0.01267  Uiso   1.00
C475   C     0.35250   0.21616   0.60124   0.01267  Uiso   1.00
C476   C     0.33185   0.19629   0.65863   0.01267  Uiso   1.00
C477   C     0.34921   0.24442   0.60175   0.01267  Uiso   1.00
C478   C     0.32880   0.22411   0.66038   0.01267  Uiso   1.00
C479   C     0.33773   0.24802   0.63145   0.01267  Uiso   1.00
C480   C     0.34321   0.19235   0.62914   0.01267  Uiso   1.00
C481   C     0.31190   0.23034   0.69158   0.01267  Uiso   1.00
C482   C     0.34150   0.16555   0.62707   0.01267  Uiso   1.00
C483   C     0.35274   0.27160   0.57138   0.01267  Uiso   1.00
C484   C     0.24165   0.28837   0.54333   0.01267  Uiso   1.00
C485   C     0.22153   0.26956   0.56191   0.01267  Uiso   1.00
C486   C     0.28549   0.18594   0.95302   0.01267  Uiso   1.00
Fe55   Fe    0.29506   0.35930   0.84170   0.01267  Uiso   1.00
Fe56   Fe    0.13924   0.34578   0.58537   0.01267  Uiso   1.00
O460   O     0.39557   0.44551   0.67040   0.01267  Uiso   1.00
O461   O     0.41734   0.46723   0.60520   0.01267  Uiso   1.00
O462   O     0.25721   0.30685   0.74485   0.01267  Uiso   1.00
O463   O     0.20347   0.24639   0.74706   0.01267  Uiso   1.00
O464   O     0.20947   0.30178   0.77169   0.01267  Uiso   1.00
O465   O     0.33302   0.38271   0.76425   0.01267  Uiso   1.00
O466   O     0.29776   0.34725   0.78245   0.01267  Uiso   1.00
O467   O     0.30303   0.39614   0.80773   0.01267  Uiso   1.00
O468   O     0.31936   0.36237   0.85786   0.01267  Uiso   1.00
O469   O     0.28249   0.32536   0.87835   0.01267  Uiso   1.00
O470   O     0.26807   0.35918   0.82688   0.01267  Uiso   1.00
O471   O     0.16733   0.26932   0.59464   0.01267  Uiso   1.00
O472   O     0.14723   0.24946   0.65580   0.01267  Uiso   1.00
O473   O     0.17587   0.31526   0.56859   0.01267  Uiso   1.00
O474   O     0.13669   0.27840   0.68256   0.01267  Uiso   1.00
O475   O     0.10530   0.37999   0.59730   0.01267  Uiso   1.00
O476   O     0.16523   0.34761   0.60009   0.01267  Uiso   1.00
C487   C     0.18569   0.23270   0.71041   0.01267  Uiso   1.00
C488   C     0.17913   0.22768   0.68972   0.01267  Uiso   1.00
C489   C     0.15244   0.25309   0.67543   0.01267  Uiso   1.00
C490   C     0.34588   0.43931   0.72884   0.01267  Uiso   1.00
C491   C     0.32536   0.43337   0.76049   0.01267  Uiso   1.00
C492   C     0.31954   0.40242   0.77855   0.01267  Uiso   1.00
C493   C     0.21616   0.35250   0.83010   0.01267  Uiso   1.00
C494   C     0.19629   0.33185   0.81323   0.01267  Uiso   1.00
C495   C     0.24442   0.34921   0.80462   0.01267  Uiso   1.00
C496   C     0.22411   0.32880   0.78671   0.01267  Uiso   1.00
C497   C     0.24802   0.33773   0.78279   0.01267  Uiso   1.00
C498   C     0.19235   0.34321   0.83530   0.01267  Uiso   1.00
C499   C     0.23034   0.31190   0.76618   0.01267  Uiso   1.00
C500   C     0.16555   0.34150   0.86587   0.01267  Uiso   1.00
C501   C     0.27160   0.35274   0.80428   0.01267  Uiso   1.00
C502   C     0.28837   0.24165   0.92665   0.01267  Uiso   1.00
C503   C     0.26956   0.22153   0.94699   0.01267  Uiso   1.00
C504   C     0.18594   0.28549   0.57555   0.01267  Uiso   1.00
Fe57   Fe    0.35930   0.50395   0.84170   0.01267  Uiso   1.00
Fe58   Fe    0.34578   0.92960   0.58537   0.01267  Uiso   1.00
O477   O     0.44551   0.48852   0.67040   0.01267  Uiso   1.00
O478   O     0.46723   0.51023   0.60520   0.01267  Uiso   1.00
O479   O     0.30685   0.69109   0.74485   0.01267  Uiso   1.00
O480   O     0.24639   0.80308   0.74706   0.01267  Uiso   1.00
O481   O     0.30178   0.71706   0.77169   0.01267  Uiso   1.00
O482   O     0.38271   0.52001   0.76425   0.01267  Uiso   1.00
O483   O     0.34725   0.57255   0.78245   0.01267  Uiso   1.00
O484   O     0.39614   0.49310   0.80773   0.01267  Uiso   1.00
O485   O     0.36237   0.46041   0.85786   0.01267  Uiso   1.00
O486   O     0.32536   0.51380   0.87835   0.01267  Uiso   1.00
O487   O     0.35918   0.54587   0.82688   0.01267  Uiso   1.00
O488   O     0.26932   0.96870   0.59464   0.01267  Uiso   1.00
O489   O     0.24946   0.94751   0.65580   0.01267  Uiso   1.00
O490   O     0.31526   0.94028   0.56859   0.01267  Uiso   1.00
O491   O     0.27840   0.90235   0.68256   0.01267  Uiso   1.00
O492   O     0.37999   0.91740   0.59730   0.01267  Uiso   1.00
O493   O     0.34761   0.88706   0.60009   0.01267  Uiso   1.00
C505   C     0.23270   0.87120   0.71041   0.01267  Uiso   1.00
C506   C     0.22768   0.90347   0.68972   0.01267  Uiso   1.00
C507   C     0.25309   0.91904   0.67543   0.01267  Uiso   1.00
C508   C     0.43931   0.48597   0.72884   0.01267  Uiso   1.00
C509   C     0.43337   0.48078   0.76049   0.01267  Uiso   1.00
C510   C     0.40242   0.49949   0.77855   0.01267  Uiso   1.00
C511   C     0.35250   0.60124   0.83010   0.01267  Uiso   1.00
C512   C     0.33185   0.65863   0.81323   0.01267  Uiso   1.00
C513   C     0.34921   0.60175   0.80462   0.01267  Uiso   1.00
C514   C     0.32880   0.66038   0.78671   0.01267  Uiso   1.00
C515   C     0.33773   0.63145   0.78279   0.01267  Uiso   1.00
C516   C     0.34321   0.62914   0.83530   0.01267  Uiso   1.00
C517   C     0.31190   0.69158   0.76618   0.01267  Uiso   1.00
C518   C     0.34150   0.62707   0.86587   0.01267  Uiso   1.00
C519   C     0.35274   0.57138   0.80428   0.01267  Uiso   1.00
C520   C     0.24165   0.54333   0.92665   0.01267  Uiso   1.00
C521   C     0.22153   0.56191   0.94699   0.01267  Uiso   1.00
C522   C     0.28549   0.95302   0.57555   0.01267  Uiso   1.00
Fe59   Fe    0.29506   0.84170   0.50395   0.01267  Uiso   1.00
Fe60   Fe    0.13924   0.58537   0.92960   0.01267  Uiso   1.00
O494   O     0.39557   0.67040   0.48852   0.01267  Uiso   1.00
O495   O     0.41734   0.60520   0.51023   0.01267  Uiso   1.00
O496   O     0.25721   0.74485   0.69109   0.01267  Uiso   1.00
O497   O     0.20347   0.74706   0.80308   0.01267  Uiso   1.00
O498   O     0.20947   0.77169   0.71706   0.01267  Uiso   1.00
O499   O     0.33302   0.76425   0.52001   0.01267  Uiso   1.00
O500   O     0.29776   0.78245   0.57255   0.01267  Uiso   1.00
O501   O     0.30303   0.80773   0.49310   0.01267  Uiso   1.00
O502   O     0.31936   0.85786   0.46041   0.01267  Uiso   1.00
O503   O     0.28249   0.87835   0.51380   0.01267  Uiso   1.00
O504   O     0.26807   0.82688   0.54587   0.01267  Uiso   1.00
O505   O     0.16733   0.59464   0.96870   0.01267  Uiso   1.00
O506   O     0.14723   0.65580   0.94751   0.01267  Uiso   1.00
O507   O     0.17587   0.56859   0.94028   0.01267  Uiso   1.00
O508   O     0.13669   0.68256   0.90235   0.01267  Uiso   1.00
O509   O     0.10530   0.59730   0.91740   0.01267  Uiso   1.00
O510   O     0.16523   0.60009   0.88706   0.01267  Uiso   1.00
C523   C     0.18569   0.71041   0.87120   0.01267  Uiso   1.00
C524   C     0.17913   0.68972   0.90347   0.01267  Uiso   1.00
C525   C     0.15244   0.67543   0.91904   0.01267  Uiso   1.00
C526   C     0.34588   0.72884   0.48597   0.01267  Uiso   1.00
C527   C     0.32536   0.76049   0.48078   0.01267  Uiso   1.00
C528   C     0.31954   0.77855   0.49949   0.01267  Uiso   1.00
C529   C     0.21616   0.83010   0.60124   0.01267  Uiso   1.00
C530   C     0.19629   0.81323   0.65863   0.01267  Uiso   1.00
C531   C     0.24442   0.80462   0.60175   0.01267  Uiso   1.00
C532   C     0.22411   0.78671   0.66038   0.01267  Uiso   1.00
C533   C     0.24802   0.78279   0.63145   0.01267  Uiso   1.00
C534   C     0.19235   0.83530   0.62914   0.01267  Uiso   1.00
C535   C     0.23034   0.76618   0.69158   0.01267  Uiso   1.00
C536   C     0.16555   0.86587   0.62707   0.01267  Uiso   1.00
C537   C     0.27160   0.80428   0.57138   0.01267  Uiso   1.00
C538   C     0.28837   0.92665   0.54333   0.01267  Uiso   1.00
C539   C     0.26956   0.94699   0.56191   0.01267  Uiso   1.00
C540   C     0.18594   0.57555   0.95302   0.01267  Uiso   1.00
Fe61   Fe    0.50395   0.35930   0.29506   0.01267  Uiso   1.00
Fe62   Fe    0.92960   0.34578   0.13924   0.01267  Uiso   1.00
O511   O     0.48852   0.44551   0.39557   0.01267  Uiso   1.00
O512   O     0.51023   0.46723   0.41734   0.01267  Uiso   1.00
O513   O     0.69109   0.30685   0.25721   0.01267  Uiso   1.00
O514   O     0.80308   0.24639   0.20347   0.01267  Uiso   1.00
O515   O     0.71706   0.30178   0.20947   0.01267  Uiso   1.00
O516   O     0.52001   0.38271   0.33302   0.01267  Uiso   1.00
O517   O     0.57255   0.34725   0.29776   0.01267  Uiso   1.00
O518   O     0.49310   0.39614   0.30303   0.01267  Uiso   1.00
O519   O     0.46041   0.36237   0.31936   0.01267  Uiso   1.00
O520   O     0.51380   0.32536   0.28249   0.01267  Uiso   1.00
O521   O     0.54587   0.35918   0.26807   0.01267  Uiso   1.00
O522   O     0.96870   0.26932   0.16733   0.01267  Uiso   1.00
O523   O     0.94751   0.24946   0.14723   0.01267  Uiso   1.00
O524   O     0.94028   0.31526   0.17587   0.01267  Uiso   1.00
O525   O     0.90235   0.27840   0.13669   0.01267  Uiso   1.00
O526   O     0.91740   0.37999   0.10530   0.01267  Uiso   1.00
O527   O     0.88706   0.34761   0.16523   0.01267  Uiso   1.00
C541   C     0.87120   0.23270   0.18569   0.01267  Uiso   1.00
C542   C     0.90347   0.22768   0.17913   0.01267  Uiso   1.00
C543   C     0.91904   0.25309   0.15244   0.01267  Uiso   1.00
C544   C     0.48597   0.43931   0.34588   0.01267  Uiso   1.00
C545   C     0.48078   0.43337   0.32536   0.01267  Uiso   1.00
C546   C     0.49949   0.40242   0.31954   0.01267  Uiso   1.00
C547   C     0.60124   0.35250   0.21616   0.01267  Uiso   1.00
C548   C     0.65863   0.33185   0.19629   0.01267  Uiso   1.00
C549   C     0.60175   0.34921   0.24442   0.01267  Uiso   1.00
C550   C     0.66038   0.32880   0.22411   0.01267  Uiso   1.00
C551   C     0.63145   0.33773   0.24802   0.01267  Uiso   1.00
C552   C     0.62914   0.34321   0.19235   0.01267  Uiso   1.00
C553   C     0.69158   0.31190   0.23034   0.01267  Uiso   1.00
C554   C     0.62707   0.34150   0.16555   0.01267  Uiso   1.00
C555   C     0.57138   0.35274   0.27160   0.01267  Uiso   1.00
C556   C     0.54333   0.24165   0.28837   0.01267  Uiso   1.00
C557   C     0.56191   0.22153   0.26956   0.01267  Uiso   1.00
C558   C     0.95302   0.28549   0.18594   0.01267  Uiso   1.00
Fe63   Fe    0.84170   0.29506   0.35930   0.01267  Uiso   1.00
Fe64   Fe    0.58537   0.13924   0.34578   0.01267  Uiso   1.00
O528   O     0.67040   0.39557   0.44551   0.01267  Uiso   1.00
O529   O     0.60520   0.41734   0.46723   0.01267  Uiso   1.00
O530   O     0.74485   0.25721   0.30685   0.01267  Uiso   1.00
O531   O     0.74706   0.20347   0.24639   0.01267  Uiso   1.00
O532   O     0.77169   0.20947   0.30178   0.01267  Uiso   1.00
O533   O     0.76425   0.33302   0.38271   0.01267  Uiso   1.00
O534   O     0.78245   0.29776   0.34725   0.01267  Uiso   1.00
O535   O     0.80773   0.30303   0.39614   0.01267  Uiso   1.00
O536   O     0.85786   0.31936   0.36237   0.01267  Uiso   1.00
O537   O     0.87835   0.28249   0.32536   0.01267  Uiso   1.00
O538   O     0.82688   0.26807   0.35918   0.01267  Uiso   1.00
O539   O     0.59464   0.16733   0.26932   0.01267  Uiso   1.00
O540   O     0.65580   0.14723   0.24946   0.01267  Uiso   1.00
O541   O     0.56859   0.17587   0.31526   0.01267  Uiso   1.00
O542   O     0.68256   0.13669   0.27840   0.01267  Uiso   1.00
O543   O     0.59730   0.10530   0.37999   0.01267  Uiso   1.00
O544   O     0.60009   0.16523   0.34761   0.01267  Uiso   1.00
C559   C     0.71041   0.18569   0.23270   0.01267  Uiso   1.00
C560   C     0.68972   0.17913   0.22768   0.01267  Uiso   1.00
C561   C     0.67543   0.15244   0.25309   0.01267  Uiso   1.00
C562   C     0.72884   0.34588   0.43931   0.01267  Uiso   1.00
C563   C     0.76049   0.32536   0.43337   0.01267  Uiso   1.00
C564   C     0.77855   0.31954   0.40242   0.01267  Uiso   1.00
C565   C     0.83010   0.21616   0.35250   0.01267  Uiso   1.00
C566   C     0.81323   0.19629   0.33185   0.01267  Uiso   1.00
C567   C     0.80462   0.24442   0.34921   0.01267  Uiso   1.00
C568   C     0.78671   0.22411   0.32880   0.01267  Uiso   1.00
C569   C     0.78279   0.24802   0.33773   0.01267  Uiso   1.00
C570   C     0.83530   0.19235   0.34321   0.01267  Uiso   1.00
C571   C     0.76618   0.23034   0.31190   0.01267  Uiso   1.00
C572   C     0.86587   0.16555   0.34150   0.01267  Uiso   1.00
C573   C     0.80428   0.27160   0.35274   0.01267  Uiso   1.00
C574   C     0.92665   0.28837   0.24165   0.01267  Uiso   1.00
C575   C     0.94699   0.26956   0.22153   0.01267  Uiso   1.00
C576   C     0.57555   0.18594   0.28549   0.01267  Uiso   1.00
Fe65   Fe    0.84170   0.35930   0.50395   0.01267  Uiso   1.00
Fe66   Fe    0.58537   0.34578   0.92960   0.01267  Uiso   1.00
O545   O     0.67040   0.44551   0.48852   0.01267  Uiso   1.00
O546   O     0.60520   0.46723   0.51023   0.01267  Uiso   1.00
O547   O     0.74485   0.30685   0.69109   0.01267  Uiso   1.00
O548   O     0.74706   0.24639   0.80308   0.01267  Uiso   1.00
O549   O     0.77169   0.30178   0.71706   0.01267  Uiso   1.00
O550   O     0.76425   0.38271   0.52001   0.01267  Uiso   1.00
O551   O     0.78245   0.34725   0.57255   0.01267  Uiso   1.00
O552   O     0.80773   0.39614   0.49310   0.01267  Uiso   1.00
O553   O     0.85786   0.36237   0.46041   0.01267  Uiso   1.00
O554   O     0.87835   0.32536   0.51380   0.01267  Uiso   1.00
O555   O     0.82688   0.35918   0.54587   0.01267  Uiso   1.00
O556   O     0.59464   0.26932   0.96870   0.01267  Uiso   1.00
O557   O     0.65580   0.24946   0.94751   0.01267  Uiso   1.00
O558   O     0.56859   0.31526   0.94028   0.01267  Uiso   1.00
O559   O     0.68256   0.27840   0.90235   0.01267  Uiso   1.00
O560   O     0.59730   0.37999   0.91740   0.01267  Uiso   1.00
O561   O     0.60009   0.34761   0.88706   0.01267  Uiso   1.00
C577   C     0.71041   0.23270   0.87120   0.01267  Uiso   1.00
C578   C     0.68972   0.22768   0.90347   0.01267  Uiso   1.00
C579   C     0.67543   0.25309   0.91904   0.01267  Uiso   1.00
C580   C     0.72884   0.43931   0.48597   0.01267  Uiso   1.00
C581   C     0.76049   0.43337   0.48078   0.01267  Uiso   1.00
C582   C     0.77855   0.40242   0.49949   0.01267  Uiso   1.00
C583   C     0.83010   0.35250   0.60124   0.01267  Uiso   1.00
C584   C     0.81323   0.33185   0.65863   0.01267  Uiso   1.00
C585   C     0.80462   0.34921   0.60175   0.01267  Uiso   1.00
C586   C     0.78671   0.32880   0.66038   0.01267  Uiso   1.00
C587   C     0.78279   0.33773   0.63145   0.01267  Uiso   1.00
C588   C     0.83530   0.34321   0.62914   0.01267  Uiso   1.00
C589   C     0.76618   0.31190   0.69158   0.01267  Uiso   1.00
C590   C     0.86587   0.34150   0.62707   0.01267  Uiso   1.00
C591   C     0.80428   0.35274   0.57138   0.01267  Uiso   1.00
C592   C     0.92665   0.24165   0.54333   0.01267  Uiso   1.00
C593   C     0.94699   0.22153   0.56191   0.01267  Uiso   1.00
C594   C     0.57555   0.28549   0.95302   0.01267  Uiso   1.00
Fe67   Fe    0.50395   0.29506   0.84170   0.01267  Uiso   1.00
Fe68   Fe    0.92960   0.13924   0.58537   0.01267  Uiso   1.00
O562   O     0.48852   0.39557   0.67040   0.01267  Uiso   1.00
O563   O     0.51023   0.41734   0.60520   0.01267  Uiso   1.00
O564   O     0.69109   0.25721   0.74485   0.01267  Uiso   1.00
O565   O     0.80308   0.20347   0.74706   0.01267  Uiso   1.00
O566   O     0.71706   0.20947   0.77169   0.01267  Uiso   1.00
O567   O     0.52001   0.33302   0.76425   0.01267  Uiso   1.00
O568   O     0.57255   0.29776   0.78245   0.01267  Uiso   1.00
O569   O     0.49310   0.30303   0.80773   0.01267  Uiso   1.00
O570   O     0.46041   0.31936   0.85786   0.01267  Uiso   1.00
O571   O     0.51380   0.28249   0.87835   0.01267  Uiso   1.00
O572   O     0.54587   0.26807   0.82688   0.01267  Uiso   1.00
O573   O     0.96870   0.16733   0.59464   0.01267  Uiso   1.00
O574   O     0.94751   0.14723   0.65580   0.01267  Uiso   1.00
O575   O     0.94028   0.17587   0.56859   0.01267  Uiso   1.00
O576   O     0.90235   0.13669   0.68256   0.01267  Uiso   1.00
O577   O     0.91740   0.10530   0.59730   0.01267  Uiso   1.00
O578   O     0.88706   0.16523   0.60009   0.01267  Uiso   1.00
C595   C     0.87120   0.18569   0.71041   0.01267  Uiso   1.00
C596   C     0.90347   0.17913   0.68972   0.01267  Uiso   1.00
C597   C     0.91904   0.15244   0.67543   0.01267  Uiso   1.00
C598   C     0.48597   0.34588   0.72884   0.01267  Uiso   1.00
C599   C     0.48078   0.32536   0.76049   0.01267  Uiso   1.00
C600   C     0.49949   0.31954   0.77855   0.01267  Uiso   1.00
C601   C     0.60124   0.21616   0.83010   0.01267  Uiso   1.00
C602   C     0.65863   0.19629   0.81323   0.01267  Uiso   1.00
C603   C     0.60175   0.24442   0.80462   0.01267  Uiso   1.00
C604   C     0.66038   0.22411   0.78671   0.01267  Uiso   1.00
C605   C     0.63145   0.24802   0.78279   0.01267  Uiso   1.00
C606   C     0.62914   0.19235   0.83530   0.01267  Uiso   1.00
C607   C     0.69158   0.23034   0.76618   0.01267  Uiso   1.00
C608   C     0.62707   0.16555   0.86587   0.01267  Uiso   1.00
C609   C     0.57138   0.27160   0.80428   0.01267  Uiso   1.00
C610   C     0.54333   0.28837   0.92665   0.01267  Uiso   1.00
C611   C     0.56191   0.26956   0.94699   0.01267  Uiso   1.00
C612   C     0.95302   0.18594   0.57555   0.01267  Uiso   1.00
Fe69   Fe    0.29506   0.50395   0.35930   0.01267  Uiso   1.00
Fe70   Fe    0.13924   0.92960   0.34578   0.01267  Uiso   1.00
O579   O     0.39557   0.48852   0.44551   0.01267  Uiso   1.00
O580   O     0.41734   0.51023   0.46723   0.01267  Uiso   1.00
O581   O     0.25721   0.69109   0.30685   0.01267  Uiso   1.00
O582   O     0.20347   0.80308   0.24639   0.01267  Uiso   1.00
O583   O     0.20947   0.71706   0.30178   0.01267  Uiso   1.00
O584   O     0.33302   0.52001   0.38271   0.01267  Uiso   1.00
O585   O     0.29776   0.57255   0.34725   0.01267  Uiso   1.00
O586   O     0.30303   0.49310   0.39614   0.01267  Uiso   1.00
O587   O     0.31936   0.46041   0.36237   0.01267  Uiso   1.00
O588   O     0.28249   0.51380   0.32536   0.01267  Uiso   1.00
O589   O     0.26807   0.54587   0.35918   0.01267  Uiso   1.00
O590   O     0.16733   0.96870   0.26932   0.01267  Uiso   1.00
O591   O     0.14723   0.94751   0.24946   0.01267  Uiso   1.00
O592   O     0.17587   0.94028   0.31526   0.01267  Uiso   1.00
O593   O     0.13669   0.90235   0.27840   0.01267  Uiso   1.00
O594   O     0.10530   0.91740   0.37999   0.01267  Uiso   1.00
O595   O     0.16523   0.88706   0.34761   0.01267  Uiso   1.00
C613   C     0.18569   0.87120   0.23270   0.01267  Uiso   1.00
C614   C     0.17913   0.90347   0.22768   0.01267  Uiso   1.00
C615   C     0.15244   0.91904   0.25309   0.01267  Uiso   1.00
C616   C     0.34588   0.48597   0.43931   0.01267  Uiso   1.00
C617   C     0.32536   0.48078   0.43337   0.01267  Uiso   1.00
C618   C     0.31954   0.49949   0.40242   0.01267  Uiso   1.00
C619   C     0.21616   0.60124   0.35250   0.01267  Uiso   1.00
C620   C     0.19629   0.65863   0.33185   0.01267  Uiso   1.00
C621   C     0.24442   0.60175   0.34921   0.01267  Uiso   1.00
C622   C     0.22411   0.66038   0.32880   0.01267  Uiso   1.00
C623   C     0.24802   0.63145   0.33773   0.01267  Uiso   1.00
C624   C     0.19235   0.62914   0.34321   0.01267  Uiso   1.00
C625   C     0.23034   0.69158   0.31190   0.01267  Uiso   1.00
C626   C     0.16555   0.62707   0.34150   0.01267  Uiso   1.00
C627   C     0.27160   0.57138   0.35274   0.01267  Uiso   1.00
C628   C     0.28837   0.54333   0.24165   0.01267  Uiso   1.00
C629   C     0.26956   0.56191   0.22153   0.01267  Uiso   1.00
C630   C     0.18594   0.95302   0.28549   0.01267  Uiso   1.00
Fe71   Fe    0.35930   0.84170   0.29506   0.01267  Uiso   1.00
Fe72   Fe    0.34578   0.58537   0.13924   0.01267  Uiso   1.00
O596   O     0.44551   0.67040   0.39557   0.01267  Uiso   1.00
O597   O     0.46723   0.60520   0.41734   0.01267  Uiso   1.00
O598   O     0.30685   0.74485   0.25721   0.01267  Uiso   1.00
O599   O     0.24639   0.74706   0.20347   0.01267  Uiso   1.00
O600   O     0.30178   0.77169   0.20947   0.01267  Uiso   1.00
O601   O     0.38271   0.76425   0.33302   0.01267  Uiso   1.00
O602   O     0.34725   0.78245   0.29776   0.01267  Uiso   1.00
O603   O     0.39614   0.80773   0.30303   0.01267  Uiso   1.00
O604   O     0.36237   0.85786   0.31936   0.01267  Uiso   1.00
O605   O     0.32536   0.87835   0.28249   0.01267  Uiso   1.00
O606   O     0.35918   0.82688   0.26807   0.01267  Uiso   1.00
O607   O     0.26932   0.59464   0.16733   0.01267  Uiso   1.00
O608   O     0.24946   0.65580   0.14723   0.01267  Uiso   1.00
O609   O     0.31526   0.56859   0.17587   0.01267  Uiso   1.00
O610   O     0.27840   0.68256   0.13669   0.01267  Uiso   1.00
O611   O     0.37999   0.59730   0.10530   0.01267  Uiso   1.00
O612   O     0.34761   0.60009   0.16523   0.01267  Uiso   1.00
C631   C     0.23270   0.71041   0.18569   0.01267  Uiso   1.00
C632   C     0.22768   0.68972   0.17913   0.01267  Uiso   1.00
C633   C     0.25309   0.67543   0.15244   0.01267  Uiso   1.00
C634   C     0.43931   0.72884   0.34588   0.01267  Uiso   1.00
C635   C     0.43337   0.76049   0.32536   0.01267  Uiso   1.00
C636   C     0.40242   0.77855   0.31954   0.01267  Uiso   1.00
C637   C     0.35250   0.83010   0.21616   0.01267  Uiso   1.00
C638   C     0.33185   0.81323   0.19629   0.01267  Uiso   1.00
C639   C     0.34921   0.80462   0.24442   0.01267  Uiso   1.00
C640   C     0.32880   0.78671   0.22411   0.01267  Uiso   1.00
C641   C     0.33773   0.78279   0.24802   0.01267  Uiso   1.00
C642   C     0.34321   0.83530   0.19235   0.01267  Uiso   1.00
C643   C     0.31190   0.76618   0.23034   0.01267  Uiso   1.00
C644   C     0.34150   0.86587   0.16555   0.01267  Uiso   1.00
C645   C     0.35274   0.80428   0.27160   0.01267  Uiso   1.00
C646   C     0.24165   0.92665   0.28837   0.01267  Uiso   1.00
C647   C     0.22153   0.94699   0.26956   0.01267  Uiso   1.00
C648   C     0.28549   0.57555   0.18594   0.01267  Uiso   1.00
Fe73   Fe    0.74605   0.40830   0.95494   0.01267  Uiso   1.00
Fe74   Fe    0.32040   0.66463   0.11076   0.01267  Uiso   1.00
O613   O     0.76148   0.57960   0.85443   0.01267  Uiso   1.00
O614   O     0.73977   0.64480   0.83266   0.01267  Uiso   1.00
O615   O     0.55891   0.50515   0.99279   0.01267  Uiso   1.00
O616   O     0.44692   0.50294   0.04653   0.01267  Uiso   1.00
O617   O     0.53294   0.47831   0.04053   0.01267  Uiso   1.00
O618   O     0.72999   0.48575   0.91698   0.01267  Uiso   1.00
O619   O     0.67745   0.46755   0.95224   0.01267  Uiso   1.00
O620   O     0.75690   0.44227   0.94697   0.01267  Uiso   1.00
O621   O     0.78959   0.39214   0.93064   0.01267  Uiso   1.00
O622   O     0.73620   0.37165   0.96751   0.01267  Uiso   1.00
O623   O     0.70413   0.42312   0.98193   0.01267  Uiso   1.00
O624   O     0.28130   0.65536   0.08267   0.01267  Uiso   1.00
O625   O     0.30249   0.59420   0.10277   0.01267  Uiso   1.00
O626   O     0.30972   0.68141   0.07413   0.01267  Uiso   1.00
O627   O     0.34765   0.56744   0.11331   0.01267  Uiso   1.00
O628   O     0.33260   0.65270   0.14470   0.01267  Uiso   1.00
O629   O     0.36294   0.64991   0.08477   0.01267  Uiso   1.00
C649   C     0.37880   0.53959   0.06431   0.01267  Uiso   1.00
C650   C     0.34653   0.56028   0.07087   0.01267  Uiso   1.00
C651   C     0.33096   0.57457   0.09756   0.01267  Uiso   1.00
C652   C     0.76403   0.52116   0.90412   0.01267  Uiso   1.00
C653   C     0.76922   0.48951   0.92464   0.01267  Uiso   1.00
C654   C     0.75051   0.47145   0.93046   0.01267  Uiso   1.00
C655   C     0.64876   0.41990   0.03384   0.01267  Uiso   1.00
C656   C     0.59137   0.43677   0.05371   0.01267  Uiso   1.00
C657   C     0.64825   0.44538   0.00558   0.01267  Uiso   1.00
C658   C     0.58962   0.46329   0.02589   0.01267  Uiso   1.00
C659   C     0.61855   0.46721   0.00198   0.01267  Uiso   1.00
C660   C     0.62086   0.41470   0.05765   0.01267  Uiso   1.00
C661   C     0.55842   0.48382   0.01966   0.01267  Uiso   1.00
C662   C     0.62293   0.38413   0.08445   0.01267  Uiso   1.00
C663   C     0.67862   0.44572   0.97840   0.01267  Uiso   1.00
C664   C     0.70667   0.32335   0.96163   0.01267  Uiso   1.00
C665   C     0.68809   0.30301   0.98044   0.01267  Uiso   1.00
C666   C     0.29698   0.67445   0.06406   0.01267  Uiso   1.00
Fe75   Fe    0.40830   0.74605   0.89070   0.01267  Uiso   1.00
Fe76   Fe    0.66463   0.32040   0.90422   0.01267  Uiso   1.00
O630   O     0.57960   0.76148   0.80449   0.01267  Uiso   1.00
O631   O     0.64480   0.73977   0.78277   0.01267  Uiso   1.00
O632   O     0.50515   0.55891   0.94315   0.01267  Uiso   1.00
O633   O     0.50294   0.44692   0.00361   0.01267  Uiso   1.00
O634   O     0.47831   0.53294   0.94822   0.01267  Uiso   1.00
O635   O     0.48575   0.72999   0.86729   0.01267  Uiso   1.00
O636   O     0.46755   0.67745   0.90275   0.01267  Uiso   1.00
O637   O     0.44227   0.75690   0.85386   0.01267  Uiso   1.00
O638   O     0.39214   0.78959   0.88763   0.01267  Uiso   1.00
O639   O     0.37165   0.73620   0.92464   0.01267  Uiso   1.00
O640   O     0.42312   0.70413   0.89082   0.01267  Uiso   1.00
O641   O     0.65536   0.28130   0.98068   0.01267  Uiso   1.00
O642   O     0.59420   0.30249   0.00054   0.01267  Uiso   1.00
O643   O     0.68141   0.30972   0.93474   0.01267  Uiso   1.00
O644   O     0.56744   0.34765   0.97160   0.01267  Uiso   1.00
O645   O     0.65270   0.33260   0.87001   0.01267  Uiso   1.00
O646   O     0.64991   0.36294   0.90239   0.01267  Uiso   1.00
C667   C     0.53959   0.37880   0.01730   0.01267  Uiso   1.00
C668   C     0.56028   0.34653   0.02232   0.01267  Uiso   1.00
C669   C     0.57457   0.33096   0.99691   0.01267  Uiso   1.00
C670   C     0.52116   0.76403   0.81069   0.01267  Uiso   1.00
C671   C     0.48951   0.76922   0.81663   0.01267  Uiso   1.00
C672   C     0.47145   0.75051   0.84758   0.01267  Uiso   1.00
C673   C     0.41990   0.64876   0.89750   0.01267  Uiso   1.00
C674   C     0.43677   0.59137   0.91815   0.01267  Uiso   1.00
C675   C     0.44538   0.64825   0.90079   0.01267  Uiso   1.00
C676   C     0.46329   0.58962   0.92120   0.01267  Uiso   1.00
C677   C     0.46721   0.61855   0.91227   0.01267  Uiso   1.00
C678   C     0.41470   0.62086   0.90679   0.01267  Uiso   1.00
C679   C     0.48382   0.55842   0.93810   0.01267  Uiso   1.00
C680   C     0.38413   0.62293   0.90850   0.01267  Uiso   1.00
C681   C     0.44572   0.67862   0.89726   0.01267  Uiso   1.00
C682   C     0.32335   0.70667   0.00835   0.01267  Uiso   1.00
C683   C     0.30301   0.68809   0.02847   0.01267  Uiso   1.00
C684   C     0.67445   0.29698   0.96451   0.01267  Uiso   1.00
Fe77   Fe    0.89070   0.95494   0.40830   0.01267  Uiso   1.00
Fe78   Fe    0.90422   0.11076   0.66463   0.01267  Uiso   1.00
O647   O     0.80449   0.85443   0.57960   0.01267  Uiso   1.00
O648   O     0.78277   0.83266   0.64480   0.01267  Uiso   1.00
O649   O     0.94315   0.99279   0.50515   0.01267  Uiso   1.00
O650   O     0.00361   0.04653   0.50294   0.01267  Uiso   1.00
O651   O     0.94822   0.04053   0.47831   0.01267  Uiso   1.00
O652   O     0.86729   0.91698   0.48575   0.01267  Uiso   1.00
O653   O     0.90275   0.95224   0.46755   0.01267  Uiso   1.00
O654   O     0.85386   0.94697   0.44227   0.01267  Uiso   1.00
O655   O     0.88763   0.93064   0.39214   0.01267  Uiso   1.00
O656   O     0.92464   0.96751   0.37165   0.01267  Uiso   1.00
O657   O     0.89082   0.98193   0.42312   0.01267  Uiso   1.00
O658   O     0.98068   0.08267   0.65536   0.01267  Uiso   1.00
O659   O     0.00054   0.10277   0.59420   0.01267  Uiso   1.00
O660   O     0.93474   0.07413   0.68141   0.01267  Uiso   1.00
O661   O     0.97160   0.11331   0.56744   0.01267  Uiso   1.00
O662   O     0.87001   0.14470   0.65270   0.01267  Uiso   1.00
O663   O     0.90239   0.08477   0.64991   0.01267  Uiso   1.00
C685   C     0.01730   0.06431   0.53959   0.01267  Uiso   1.00
C686   C     0.02232   0.07087   0.56028   0.01267  Uiso   1.00
C687   C     0.99691   0.09756   0.57457   0.01267  Uiso   1.00
C688   C     0.81069   0.90412   0.52116   0.01267  Uiso   1.00
C689   C     0.81663   0.92464   0.48951   0.01267  Uiso   1.00
C690   C     0.84758   0.93046   0.47145   0.01267  Uiso   1.00
C691   C     0.89750   0.03384   0.41990   0.01267  Uiso   1.00
C692   C     0.91815   0.05371   0.43677   0.01267  Uiso   1.00
C693   C     0.90079   0.00558   0.44538   0.01267  Uiso   1.00
C694   C     0.92120   0.02589   0.46329   0.01267  Uiso   1.00
C695   C     0.91227   0.00198   0.46721   0.01267  Uiso   1.00
C696   C     0.90679   0.05765   0.41470   0.01267  Uiso   1.00
C697   C     0.93810   0.01966   0.48382   0.01267  Uiso   1.00
C698   C     0.90850   0.08445   0.38413   0.01267  Uiso   1.00
C699   C     0.89726   0.97840   0.44572   0.01267  Uiso   1.00
C700   C     0.00835   0.96163   0.32335   0.01267  Uiso   1.00
C701   C     0.02847   0.98044   0.30301   0.01267  Uiso   1.00
C702   C     0.96451   0.06406   0.67445   0.01267  Uiso   1.00
Fe79   Fe    0.95494   0.89070   0.74605   0.01267  Uiso   1.00
Fe80   Fe    0.11076   0.90422   0.32040   0.01267  Uiso   1.00
O664   O     0.85443   0.80449   0.76148   0.01267  Uiso   1.00
O665   O     0.83266   0.78277   0.73977   0.01267  Uiso   1.00
O666   O     0.99279   0.94315   0.55891   0.01267  Uiso   1.00
O667   O     0.04653   0.00361   0.44692   0.01267  Uiso   1.00
O668   O     0.04053   0.94822   0.53294   0.01267  Uiso   1.00
O669   O     0.91698   0.86729   0.72999   0.01267  Uiso   1.00
O670   O     0.95224   0.90275   0.67745   0.01267  Uiso   1.00
O671   O     0.94697   0.85386   0.75690   0.01267  Uiso   1.00
O672   O     0.93064   0.88763   0.78959   0.01267  Uiso   1.00
O673   O     0.96751   0.92464   0.73620   0.01267  Uiso   1.00
O674   O     0.98193   0.89082   0.70413   0.01267  Uiso   1.00
O675   O     0.08267   0.98068   0.28130   0.01267  Uiso   1.00
O676   O     0.10277   0.00054   0.30249   0.01267  Uiso   1.00
O677   O     0.07413   0.93474   0.30972   0.01267  Uiso   1.00
O678   O     0.11331   0.97160   0.34765   0.01267  Uiso   1.00
O679   O     0.14470   0.87001   0.33260   0.01267  Uiso   1.00
O680   O     0.08477   0.90239   0.36294   0.01267  Uiso   1.00
C703   C     0.06431   0.01730   0.37880   0.01267  Uiso   1.00
C704   C     0.07087   0.02232   0.34653   0.01267  Uiso   1.00
C705   C     0.09756   0.99691   0.33096   0.01267  Uiso   1.00
C706   C     0.90412   0.81069   0.76403   0.01267  Uiso   1.00
C707   C     0.92464   0.81663   0.76922   0.01267  Uiso   1.00
C708   C     0.93046   0.84758   0.75051   0.01267  Uiso   1.00
C709   C     0.03384   0.89750   0.64876   0.01267  Uiso   1.00
C710   C     0.05371   0.91815   0.59137   0.01267  Uiso   1.00
C711   C     0.00558   0.90079   0.64825   0.01267  Uiso   1.00
C712   C     0.02589   0.92120   0.58962   0.01267  Uiso   1.00
C713   C     0.00198   0.91227   0.61855   0.01267  Uiso   1.00
C714   C     0.05765   0.90679   0.62086   0.01267  Uiso   1.00
C715   C     0.01966   0.93810   0.55842   0.01267  Uiso   1.00
C716   C     0.08445   0.90850   0.62293   0.01267  Uiso   1.00
C717   C     0.97840   0.89726   0.67862   0.01267  Uiso   1.00
C718   C     0.96163   0.00835   0.70667   0.01267  Uiso   1.00
C719   C     0.98044   0.02847   0.68809   0.01267  Uiso   1.00
C720   C     0.06406   0.96451   0.29698   0.01267  Uiso   1.00
Fe81   Fe    0.89070   0.74605   0.95494   0.01267  Uiso   1.00
Fe82   Fe    0.90422   0.32040   0.11076   0.01267  Uiso   1.00
O681   O     0.80449   0.76148   0.85443   0.01267  Uiso   1.00
O682   O     0.78277   0.73977   0.83266   0.01267  Uiso   1.00
O683   O     0.94315   0.55891   0.99279   0.01267  Uiso   1.00
O684   O     0.00361   0.44692   0.04653   0.01267  Uiso   1.00
O685   O     0.94822   0.53294   0.04053   0.01267  Uiso   1.00
O686   O     0.86729   0.72999   0.91698   0.01267  Uiso   1.00
O687   O     0.90275   0.67745   0.95224   0.01267  Uiso   1.00
O688   O     0.85386   0.75690   0.94697   0.01267  Uiso   1.00
O689   O     0.88763   0.78959   0.93064   0.01267  Uiso   1.00
O690   O     0.92464   0.73620   0.96751   0.01267  Uiso   1.00
O691   O     0.89082   0.70413   0.98193   0.01267  Uiso   1.00
O692   O     0.98068   0.28130   0.08267   0.01267  Uiso   1.00
O693   O     0.00054   0.30249   0.10277   0.01267  Uiso   1.00
O694   O     0.93474   0.30972   0.07413   0.01267  Uiso   1.00
O695   O     0.97160   0.34765   0.11331   0.01267  Uiso   1.00
O696   O     0.87001   0.33260   0.14470   0.01267  Uiso   1.00
O697   O     0.90239   0.36294   0.08477   0.01267  Uiso   1.00
C721   C     0.01730   0.37880   0.06431   0.01267  Uiso   1.00
C722   C     0.02232   0.34653   0.07087   0.01267  Uiso   1.00
C723   C     0.99691   0.33096   0.09756   0.01267  Uiso   1.00
C724   C     0.81069   0.76403   0.90412   0.01267  Uiso   1.00
C725   C     0.81663   0.76922   0.92464   0.01267  Uiso   1.00
C726   C     0.84758   0.75051   0.93046   0.01267  Uiso   1.00
C727   C     0.89750   0.64876   0.03384   0.01267  Uiso   1.00
C728   C     0.91815   0.59137   0.05371   0.01267  Uiso   1.00
C729   C     0.90079   0.64825   0.00558   0.01267  Uiso   1.00
C730   C     0.92120   0.58962   0.02589   0.01267  Uiso   1.00
C731   C     0.91227   0.61855   0.00198   0.01267  Uiso   1.00
C732   C     0.90679   0.62086   0.05765   0.01267  Uiso   1.00
C733   C     0.93810   0.55842   0.01966   0.01267  Uiso   1.00
C734   C     0.90850   0.62293   0.08445   0.01267  Uiso   1.00
C735   C     0.89726   0.67862   0.97840   0.01267  Uiso   1.00
C736   C     0.00835   0.70667   0.96163   0.01267  Uiso   1.00
C737   C     0.02847   0.68809   0.98044   0.01267  Uiso   1.00
C738   C     0.96451   0.29698   0.06406   0.01267  Uiso   1.00
Fe83   Fe    0.95494   0.40830   0.89070   0.01267  Uiso   1.00
Fe84   Fe    0.11076   0.66463   0.90422   0.01267  Uiso   1.00
O698   O     0.85443   0.57960   0.80449   0.01267  Uiso   1.00
O699   O     0.83266   0.64480   0.78277   0.01267  Uiso   1.00
O700   O     0.99279   0.50515   0.94315   0.01267  Uiso   1.00
O701   O     0.04653   0.50294   0.00361   0.01267  Uiso   1.00
O702   O     0.04053   0.47831   0.94822   0.01267  Uiso   1.00
O703   O     0.91698   0.48575   0.86729   0.01267  Uiso   1.00
O704   O     0.95224   0.46755   0.90275   0.01267  Uiso   1.00
O705   O     0.94697   0.44227   0.85386   0.01267  Uiso   1.00
O706   O     0.93064   0.39214   0.88763   0.01267  Uiso   1.00
O707   O     0.96751   0.37165   0.92464   0.01267  Uiso   1.00
O708   O     0.98193   0.42312   0.89082   0.01267  Uiso   1.00
O709   O     0.08267   0.65536   0.98068   0.01267  Uiso   1.00
O710   O     0.10277   0.59420   0.00054   0.01267  Uiso   1.00
O711   O     0.07413   0.68141   0.93474   0.01267  Uiso   1.00
O712   O     0.11331   0.56744   0.97160   0.01267  Uiso   1.00
O713   O     0.14470   0.65270   0.87001   0.01267  Uiso   1.00
O714   O     0.08477   0.64991   0.90239   0.01267  Uiso   1.00
C739   C     0.06431   0.53959   0.01730   0.01267  Uiso   1.00
C740   C     0.07087   0.56028   0.02232   0.01267  Uiso   1.00
C741   C     0.09756   0.57457   0.99691   0.01267  Uiso   1.00
C742   C     0.90412   0.52116   0.81069   0.01267  Uiso   1.00
C743   C     0.92464   0.48951   0.81663   0.01267  Uiso   1.00
C744   C     0.93046   0.47145   0.84758   0.01267  Uiso   1.00
C745   C     0.03384   0.41990   0.89750   0.01267  Uiso   1.00
C746   C     0.05371   0.43677   0.91815   0.01267  Uiso   1.00
C747   C     0.00558   0.44538   0.90079   0.01267  Uiso   1.00
C748   C     0.02589   0.46329   0.92120   0.01267  Uiso   1.00
C749   C     0.00198   0.46721   0.91227   0.01267  Uiso   1.00
C750   C     0.05765   0.41470   0.90679   0.01267  Uiso   1.00
C751   C     0.01966   0.48382   0.93810   0.01267  Uiso   1.00
C752   C     0.08445   0.38413   0.90850   0.01267  Uiso   1.00
C753   C     0.97840   0.44572   0.89726   0.01267  Uiso   1.00
C754   C     0.96163   0.32335   0.00835   0.01267  Uiso   1.00
C755   C     0.98044   0.30301   0.02847   0.01267  Uiso   1.00
C756   C     0.06406   0.67445   0.96451   0.01267  Uiso   1.00
Fe85   Fe    0.74605   0.89070   0.40830   0.01267  Uiso   1.00
Fe86   Fe    0.32040   0.90422   0.66463   0.01267  Uiso   1.00
O715   O     0.76148   0.80449   0.57960   0.01267  Uiso   1.00
O716   O     0.73977   0.78277   0.64480   0.01267  Uiso   1.00
O717   O     0.55891   0.94315   0.50515   0.01267  Uiso   1.00
O718   O     0.44692   0.00361   0.50294   0.01267  Uiso   1.00
O719   O     0.53294   0.94822   0.47831   0.01267  Uiso   1.00
O720   O     0.72999   0.86729   0.48575   0.01267  Uiso   1.00
O721   O     0.67745   0.90275   0.46755   0.01267  Uiso   1.00
O722   O     0.75690   0.85386   0.44227   0.01267  Uiso   1.00
O723   O     0.78959   0.88763   0.39214   0.01267  Uiso   1.00
O724   O     0.73620   0.92464   0.37165   0.01267  Uiso   1.00
O725   O     0.70413   0.89082   0.42312   0.01267  Uiso   1.00
O726   O     0.28130   0.98068   0.65536   0.01267  Uiso   1.00
O727   O     0.30249   0.00054   0.59420   0.01267  Uiso   1.00
O728   O     0.30972   0.93474   0.68141   0.01267  Uiso   1.00
O729   O     0.34765   0.97160   0.56744   0.01267  Uiso   1.00
O730   O     0.33260   0.87001   0.65270   0.01267  Uiso   1.00
O731   O     0.36294   0.90239   0.64991   0.01267  Uiso   1.00
C757   C     0.37880   0.01730   0.53959   0.01267  Uiso   1.00
C758   C     0.34653   0.02232   0.56028   0.01267  Uiso   1.00
C759   C     0.33096   0.99691   0.57457   0.01267  Uiso   1.00
C760   C     0.76403   0.81069   0.52116   0.01267  Uiso   1.00
C761   C     0.76922   0.81663   0.48951   0.01267  Uiso   1.00
C762   C     0.75051   0.84758   0.47145   0.01267  Uiso   1.00
C763   C     0.64876   0.89750   0.41990   0.01267  Uiso   1.00
C764   C     0.59137   0.91815   0.43677   0.01267  Uiso   1.00
C765   C     0.64825   0.90079   0.44538   0.01267  Uiso   1.00
C766   C     0.58962   0.92120   0.46329   0.01267  Uiso   1.00
C767   C     0.61855   0.91227   0.46721   0.01267  Uiso   1.00
C768   C     0.62086   0.90679   0.41470   0.01267  Uiso   1.00
C769   C     0.55842   0.93810   0.48382   0.01267  Uiso   1.00
C770   C     0.62293   0.90850   0.38413   0.01267  Uiso   1.00
C771   C     0.67862   0.89726   0.44572   0.01267  Uiso   1.00
C772   C     0.70667   0.00835   0.32335   0.01267  Uiso   1.00
C773   C     0.68809   0.02847   0.30301   0.01267  Uiso   1.00
C774   C     0.29698   0.96451   0.67445   0.01267  Uiso   1.00
Fe87   Fe    0.40830   0.95494   0.74605   0.01267  Uiso   1.00
Fe88   Fe    0.66463   0.11076   0.32040   0.01267  Uiso   1.00
O732   O     0.57960   0.85443   0.76148   0.01267  Uiso   1.00
O733   O     0.64480   0.83266   0.73977   0.01267  Uiso   1.00
O734   O     0.50515   0.99279   0.55891   0.01267  Uiso   1.00
O735   O     0.50294   0.04653   0.44692   0.01267  Uiso   1.00
O736   O     0.47831   0.04053   0.53294   0.01267  Uiso   1.00
O737   O     0.48575   0.91698   0.72999   0.01267  Uiso   1.00
O738   O     0.46755   0.95224   0.67745   0.01267  Uiso   1.00
O739   O     0.44227   0.94697   0.75690   0.01267  Uiso   1.00
O740   O     0.39214   0.93064   0.78959   0.01267  Uiso   1.00
O741   O     0.37165   0.96751   0.73620   0.01267  Uiso   1.00
O742   O     0.42312   0.98193   0.70413   0.01267  Uiso   1.00
O743   O     0.65536   0.08267   0.28130   0.01267  Uiso   1.00
O744   O     0.59420   0.10277   0.30249   0.01267  Uiso   1.00
O745   O     0.68141   0.07413   0.30972   0.01267  Uiso   1.00
O746   O     0.56744   0.11331   0.34765   0.01267  Uiso   1.00
O747   O     0.65270   0.14470   0.33260   0.01267  Uiso   1.00
O748   O     0.64991   0.08477   0.36294   0.01267  Uiso   1.00
C775   C     0.53959   0.06431   0.37880   0.01267  Uiso   1.00
C776   C     0.56028   0.07087   0.34653   0.01267  Uiso   1.00
C777   C     0.57457   0.09756   0.33096   0.01267  Uiso   1.00
C778   C     0.52116   0.90412   0.76403   0.01267  Uiso   1.00
C779   C     0.48951   0.92464   0.76922   0.01267  Uiso   1.00
C780   C     0.47145   0.93046   0.75051   0.01267  Uiso   1.00
C781   C     0.41990   0.03384   0.64876   0.01267  Uiso   1.00
C782   C     0.43677   0.05371   0.59137   0.01267  Uiso   1.00
C783   C     0.44538   0.00558   0.64825   0.01267  Uiso   1.00
C784   C     0.46329   0.02589   0.58962   0.01267  Uiso   1.00
C785   C     0.46721   0.00198   0.61855   0.01267  Uiso   1.00
C786   C     0.41470   0.05765   0.62086   0.01267  Uiso   1.00
C787   C     0.48382   0.01966   0.55842   0.01267  Uiso   1.00
C788   C     0.38413   0.08445   0.62293   0.01267  Uiso   1.00
C789   C     0.44572   0.97840   0.67862   0.01267  Uiso   1.00
C790   C     0.32335   0.96163   0.70667   0.01267  Uiso   1.00
C791   C     0.30301   0.98044   0.68809   0.01267  Uiso   1.00
C792   C     0.67445   0.06406   0.29698   0.01267  Uiso   1.00
Fe89   Fe    0.40830   0.89070   0.95494   0.01267  Uiso   1.00
Fe90   Fe    0.66463   0.90422   0.11076   0.01267  Uiso   1.00
O749   O     0.57960   0.80449   0.85443   0.01267  Uiso   1.00
O750   O     0.64480   0.78277   0.83266   0.01267  Uiso   1.00
O751   O     0.50515   0.94315   0.99279   0.01267  Uiso   1.00
O752   O     0.50294   0.00361   0.04653   0.01267  Uiso   1.00
O753   O     0.47831   0.94822   0.04053   0.01267  Uiso   1.00
O754   O     0.48575   0.86729   0.91698   0.01267  Uiso   1.00
O755   O     0.46755   0.90275   0.95224   0.01267  Uiso   1.00
O756   O     0.44227   0.85386   0.94697   0.01267  Uiso   1.00
O757   O     0.39214   0.88763   0.93064   0.01267  Uiso   1.00
O758   O     0.37165   0.92464   0.96751   0.01267  Uiso   1.00
O759   O     0.42312   0.89082   0.98193   0.01267  Uiso   1.00
O760   O     0.65536   0.98068   0.08267   0.01267  Uiso   1.00
O761   O     0.59420   0.00054   0.10277   0.01267  Uiso   1.00
O762   O     0.68141   0.93474   0.07413   0.01267  Uiso   1.00
O763   O     0.56744   0.97160   0.11331   0.01267  Uiso   1.00
O764   O     0.65270   0.87001   0.14470   0.01267  Uiso   1.00
O765   O     0.64991   0.90239   0.08477   0.01267  Uiso   1.00
C793   C     0.53959   0.01730   0.06431   0.01267  Uiso   1.00
C794   C     0.56028   0.02232   0.07087   0.01267  Uiso   1.00
C795   C     0.57457   0.99691   0.09756   0.01267  Uiso   1.00
C796   C     0.52116   0.81069   0.90412   0.01267  Uiso   1.00
C797   C     0.48951   0.81663   0.92464   0.01267  Uiso   1.00
C798   C     0.47145   0.84758   0.93046   0.01267  Uiso   1.00
C799   C     0.41990   0.89750   0.03384   0.01267  Uiso   1.00
C800   C     0.43677   0.91815   0.05371   0.01267  Uiso   1.00
C801   C     0.44538   0.90079   0.00558   0.01267  Uiso   1.00
C802   C     0.46329   0.92120   0.02589   0.01267  Uiso   1.00
C803   C     0.46721   0.91227   0.00198   0.01267  Uiso   1.00
C804   C     0.41470   0.90679   0.05765   0.01267  Uiso   1.00
C805   C     0.48382   0.93810   0.01966   0.01267  Uiso   1.00
C806   C     0.38413   0.90850   0.08445   0.01267  Uiso   1.00
C807   C     0.44572   0.89726   0.97840   0.01267  Uiso   1.00
C808   C     0.32335   0.00835   0.96163   0.01267  Uiso   1.00
C809   C     0.30301   0.02847   0.98044   0.01267  Uiso   1.00
C810   C     0.67445   0.96451   0.06406   0.01267  Uiso   1.00
Fe91   Fe    0.74605   0.95494   0.89070   0.01267  Uiso   1.00
Fe92   Fe    0.32040   0.11076   0.90422   0.01267  Uiso   1.00
O766   O     0.76148   0.85443   0.80449   0.01267  Uiso   1.00
O767   O     0.73977   0.83266   0.78277   0.01267  Uiso   1.00
O768   O     0.55891   0.99279   0.94315   0.01267  Uiso   1.00
O769   O     0.44692   0.04653   0.00361   0.01267  Uiso   1.00
O770   O     0.53294   0.04053   0.94822   0.01267  Uiso   1.00
O771   O     0.72999   0.91698   0.86729   0.01267  Uiso   1.00
O772   O     0.67745   0.95224   0.90275   0.01267  Uiso   1.00
O773   O     0.75690   0.94697   0.85386   0.01267  Uiso   1.00
O774   O     0.78959   0.93064   0.88763   0.01267  Uiso   1.00
O775   O     0.73620   0.96751   0.92464   0.01267  Uiso   1.00
O776   O     0.70413   0.98193   0.89082   0.01267  Uiso   1.00
O777   O     0.28130   0.08267   0.98068   0.01267  Uiso   1.00
O778   O     0.30249   0.10277   0.00054   0.01267  Uiso   1.00
O779   O     0.30972   0.07413   0.93474   0.01267  Uiso   1.00
O780   O     0.34765   0.11331   0.97160   0.01267  Uiso   1.00
O781   O     0.33260   0.14470   0.87001   0.01267  Uiso   1.00
O782   O     0.36294   0.08477   0.90239   0.01267  Uiso   1.00
C811   C     0.37880   0.06431   0.01730   0.01267  Uiso   1.00
C812   C     0.34653   0.07087   0.02232   0.01267  Uiso   1.00
C813   C     0.33096   0.09756   0.99691   0.01267  Uiso   1.00
C814   C     0.76403   0.90412   0.81069   0.01267  Uiso   1.00
C815   C     0.76922   0.92464   0.81663   0.01267  Uiso   1.00
C816   C     0.75051   0.93046   0.84758   0.01267  Uiso   1.00
C817   C     0.64876   0.03384   0.89750   0.01267  Uiso   1.00
C818   C     0.59137   0.05371   0.91815   0.01267  Uiso   1.00
C819   C     0.64825   0.00558   0.90079   0.01267  Uiso   1.00
C820   C     0.58962   0.02589   0.92120   0.01267  Uiso   1.00
C821   C     0.61855   0.00198   0.91227   0.01267  Uiso   1.00
C822   C     0.62086   0.05765   0.90679   0.01267  Uiso   1.00
C823   C     0.55842   0.01966   0.93810   0.01267  Uiso   1.00
C824   C     0.62293   0.08445   0.90850   0.01267  Uiso   1.00
C825   C     0.67862   0.97840   0.89726   0.01267  Uiso   1.00
C826   C     0.70667   0.96163   0.00835   0.01267  Uiso   1.00
C827   C     0.68809   0.98044   0.02847   0.01267  Uiso   1.00
C828   C     0.29698   0.06406   0.96451   0.01267  Uiso   1.00
Fe93   Fe    0.95494   0.74605   0.40830   0.01267  Uiso   1.00
Fe94   Fe    0.11076   0.32040   0.66463   0.01267  Uiso   1.00
O783   O     0.85443   0.76148   0.57960   0.01267  Uiso   1.00
O784   O     0.83266   0.73977   0.64480   0.01267  Uiso   1.00
O785   O     0.99279   0.55891   0.50515   0.01267  Uiso   1.00
O786   O     0.04653   0.44692   0.50294   0.01267  Uiso   1.00
O787   O     0.04053   0.53294   0.47831   0.01267  Uiso   1.00
O788   O     0.91698   0.72999   0.48575   0.01267  Uiso   1.00
O789   O     0.95224   0.67745   0.46755   0.01267  Uiso   1.00
O790   O     0.94697   0.75690   0.44227   0.01267  Uiso   1.00
O791   O     0.93064   0.78959   0.39214   0.01267  Uiso   1.00
O792   O     0.96751   0.73620   0.37165   0.01267  Uiso   1.00
O793   O     0.98193   0.70413   0.42312   0.01267  Uiso   1.00
O794   O     0.08267   0.28130   0.65536   0.01267  Uiso   1.00
O795   O     0.10277   0.30249   0.59420   0.01267  Uiso   1.00
O796   O     0.07413   0.30972   0.68141   0.01267  Uiso   1.00
O797   O     0.11331   0.34765   0.56744   0.01267  Uiso   1.00
O798   O     0.14470   0.33260   0.65270   0.01267  Uiso   1.00
O799   O     0.08477   0.36294   0.64991   0.01267  Uiso   1.00
C829   C     0.06431   0.37880   0.53959   0.01267  Uiso   1.00
C830   C     0.07087   0.34653   0.56028   0.01267  Uiso   1.00
C831   C     0.09756   0.33096   0.57457   0.01267  Uiso   1.00
C832   C     0.90412   0.76403   0.52116   0.01267  Uiso   1.00
C833   C     0.92464   0.76922   0.48951   0.01267  Uiso   1.00
C834   C     0.93046   0.75051   0.47145   0.01267  Uiso   1.00
C835   C     0.03384   0.64876   0.41990   0.01267  Uiso   1.00
C836   C     0.05371   0.59137   0.43677   0.01267  Uiso   1.00
C837   C     0.00558   0.64825   0.44538   0.01267  Uiso   1.00
C838   C     0.02589   0.58962   0.46329   0.01267  Uiso   1.00
C839   C     0.00198   0.61855   0.46721   0.01267  Uiso   1.00
C840   C     0.05765   0.62086   0.41470   0.01267  Uiso   1.00
C841   C     0.01966   0.55842   0.48382   0.01267  Uiso   1.00
C842   C     0.08445   0.62293   0.38413   0.01267  Uiso   1.00
C843   C     0.97840   0.67862   0.44572   0.01267  Uiso   1.00
C844   C     0.96163   0.70667   0.32335   0.01267  Uiso   1.00
C845   C     0.98044   0.68809   0.30301   0.01267  Uiso   1.00
C846   C     0.06406   0.29698   0.67445   0.01267  Uiso   1.00
Fe95   Fe    0.89070   0.40830   0.74605   0.01267  Uiso   1.00
Fe96   Fe    0.90422   0.66463   0.32040   0.01267  Uiso   1.00
O800   O     0.80449   0.57960   0.76148   0.01267  Uiso   1.00
O801   O     0.78277   0.64480   0.73977   0.01267  Uiso   1.00
O802   O     0.94315   0.50515   0.55891   0.01267  Uiso   1.00
O803   O     0.00361   0.50294   0.44692   0.01267  Uiso   1.00
O804   O     0.94822   0.47831   0.53294   0.01267  Uiso   1.00
O805   O     0.86729   0.48575   0.72999   0.01267  Uiso   1.00
O806   O     0.90275   0.46755   0.67745   0.01267  Uiso   1.00
O807   O     0.85386   0.44227   0.75690   0.01267  Uiso   1.00
O808   O     0.88763   0.39214   0.78959   0.01267  Uiso   1.00
O809   O     0.92464   0.37165   0.73620   0.01267  Uiso   1.00
O810   O     0.89082   0.42312   0.70413   0.01267  Uiso   1.00
O811   O     0.98068   0.65536   0.28130   0.01267  Uiso   1.00
O812   O     0.00054   0.59420   0.30249   0.01267  Uiso   1.00
O813   O     0.93474   0.68141   0.30972   0.01267  Uiso   1.00
O814   O     0.97160   0.56744   0.34765   0.01267  Uiso   1.00
O815   O     0.87001   0.65270   0.33260   0.01267  Uiso   1.00
O816   O     0.90239   0.64991   0.36294   0.01267  Uiso   1.00
C847   C     0.01730   0.53959   0.37880   0.01267  Uiso   1.00
C848   C     0.02232   0.56028   0.34653   0.01267  Uiso   1.00
C849   C     0.99691   0.57457   0.33096   0.01267  Uiso   1.00
C850   C     0.81069   0.52116   0.76403   0.01267  Uiso   1.00
C851   C     0.81663   0.48951   0.76922   0.01267  Uiso   1.00
C852   C     0.84758   0.47145   0.75051   0.01267  Uiso   1.00
C853   C     0.89750   0.41990   0.64876   0.01267  Uiso   1.00
C854   C     0.91815   0.43677   0.59137   0.01267  Uiso   1.00
C855   C     0.90079   0.44538   0.64825   0.01267  Uiso   1.00
C856   C     0.92120   0.46329   0.58962   0.01267  Uiso   1.00
C857   C     0.91227   0.46721   0.61855   0.01267  Uiso   1.00
C858   C     0.90679   0.41470   0.62086   0.01267  Uiso   1.00
C859   C     0.93810   0.48382   0.55842   0.01267  Uiso   1.00
C860   C     0.90850   0.38413   0.62293   0.01267  Uiso   1.00
C861   C     0.89726   0.44572   0.67862   0.01267  Uiso   1.00
C862   C     0.00835   0.32335   0.70667   0.01267  Uiso   1.00
C863   C     0.02847   0.30301   0.68809   0.01267  Uiso   1.00
C864   C     0.96451   0.67445   0.29698   0.01267  Uiso   1.00
Fe97   Fe    0.75288   0.61219   0.81746   0.01267  Uiso   1.00
Fe98   Fe    0.70527   0.47422   0.91026   0.01267  Uiso   1.00
O817   O     0.73245   0.43027   0.91864   0.01267  Uiso   1.00
C865   C     0.83981   0.38415   0.88802   0.01267  Uiso   1.00
C866   C     0.80425   0.38923   0.90326   0.01267  Uiso   1.00
C867   C     0.67905   0.29310   0.01392   0.01267  Uiso   1.00
C868   C     0.71581   0.33431   0.97494   0.01267  Uiso   1.00
C869   C     0.73081   0.36043   0.95438   0.01267  Uiso   1.00
Fe99   Fe    0.61219   0.75288   0.81746   0.01267  Uiso   1.00
Fe100  Fe    0.47422   0.70527   0.91026   0.01267  Uiso   1.00
O818   O     0.43027   0.73245   0.91864   0.01267  Uiso   1.00
C870   C     0.38415   0.83981   0.88802   0.01267  Uiso   1.00
C871   C     0.38923   0.80425   0.90326   0.01267  Uiso   1.00
C872   C     0.29310   0.67905   0.01392   0.01267  Uiso   1.00
C873   C     0.33431   0.71581   0.97494   0.01267  Uiso   1.00
C874   C     0.36043   0.73081   0.95438   0.01267  Uiso   1.00
Fe101  Fe    0.81746   0.81746   0.75288   0.01267  Uiso   1.00
Fe102  Fe    0.91026   0.91026   0.70527   0.01267  Uiso   1.00
O819   O     0.91864   0.91864   0.73245   0.01267  Uiso   1.00
C875   C     0.88802   0.88802   0.83981   0.01267  Uiso   1.00
C876   C     0.90326   0.90326   0.80425   0.01267  Uiso   1.00
C877   C     0.01392   0.01392   0.67905   0.01267  Uiso   1.00
C878   C     0.97494   0.97494   0.71581   0.01267  Uiso   1.00
C879   C     0.95438   0.95438   0.73081   0.01267  Uiso   1.00
Fe103  Fe    0.81746   0.81746   0.61219   0.01267  Uiso   1.00
Fe104  Fe    0.91026   0.91026   0.47422   0.01267  Uiso   1.00
O820   O     0.91864   0.91864   0.43027   0.01267  Uiso   1.00
C880   C     0.88802   0.88802   0.38415   0.01267  Uiso   1.00
C881   C     0.90326   0.90326   0.38923   0.01267  Uiso   1.00
C882   C     0.01392   0.01392   0.29310   0.01267  Uiso   1.00
C883   C     0.97494   0.97494   0.33431   0.01267  Uiso   1.00
C884   C     0.95438   0.95438   0.36043   0.01267  Uiso   1.00
Fe105  Fe    0.81746   0.75288   0.61219   0.01267  Uiso   1.00
Fe106  Fe    0.91026   0.70527   0.47422   0.01267  Uiso   1.00
O821   O     0.91864   0.73245   0.43027   0.01267  Uiso   1.00
C885   C     0.88802   0.83981   0.38415   0.01267  Uiso   1.00
C886   C     0.90326   0.80425   0.38923   0.01267  Uiso   1.00
C887   C     0.01392   0.67905   0.29310   0.01267  Uiso   1.00
C888   C     0.97494   0.71581   0.33431   0.01267  Uiso   1.00
C889   C     0.95438   0.73081   0.36043   0.01267  Uiso   1.00
Fe107  Fe    0.81746   0.61219   0.75288   0.01267  Uiso   1.00
Fe108  Fe    0.91026   0.47422   0.70527   0.01267  Uiso   1.00
O822   O     0.91864   0.43027   0.73245   0.01267  Uiso   1.00
C890   C     0.88802   0.38415   0.83981   0.01267  Uiso   1.00
C891   C     0.90326   0.38923   0.80425   0.01267  Uiso   1.00
C892   C     0.01392   0.29310   0.67905   0.01267  Uiso   1.00
C893   C     0.97494   0.33431   0.71581   0.01267  Uiso   1.00
C894   C     0.95438   0.36043   0.73081   0.01267  Uiso   1.00
Fe109  Fe    0.75288   0.81746   0.81746   0.01267  Uiso   1.00
Fe110  Fe    0.70527   0.91026   0.91026   0.01267  Uiso   1.00
O823   O     0.73245   0.91864   0.91864   0.01267  Uiso   1.00
C895   C     0.83981   0.88802   0.88802   0.01267  Uiso   1.00
C896   C     0.80425   0.90326   0.90326   0.01267  Uiso   1.00
C897   C     0.67905   0.01392   0.01392   0.01267  Uiso   1.00
C898   C     0.71581   0.97494   0.97494   0.01267  Uiso   1.00
C899   C     0.73081   0.95438   0.95438   0.01267  Uiso   1.00
Fe111  Fe    0.61219   0.81746   0.81746   0.01267  Uiso   1.00
Fe112  Fe    0.47422   0.91026   0.91026   0.01267  Uiso   1.00
O824   O     0.43027   0.91864   0.91864   0.01267  Uiso   1.00
C900   C     0.38415   0.88802   0.88802   0.01267  Uiso   1.00
C901   C     0.38923   0.90326   0.90326   0.01267  Uiso   1.00
C902   C     0.29310   0.01392   0.01392   0.01267  Uiso   1.00
C903   C     0.33431   0.97494   0.97494   0.01267  Uiso   1.00
C904   C     0.36043   0.95438   0.95438   0.01267  Uiso   1.00
Fe113  Fe    0.61219   0.81746   0.75288   0.01267  Uiso   1.00
Fe114  Fe    0.47422   0.91026   0.70527   0.01267  Uiso   1.00
O825   O     0.43027   0.91864   0.73245   0.01267  Uiso   1.00
C905   C     0.38415   0.88802   0.83981   0.01267  Uiso   1.00
C906   C     0.38923   0.90326   0.80425   0.01267  Uiso   1.00
C907   C     0.29310   0.01392   0.67905   0.01267  Uiso   1.00
C908   C     0.33431   0.97494   0.71581   0.01267  Uiso   1.00
C909   C     0.36043   0.95438   0.73081   0.01267  Uiso   1.00
Fe115  Fe    0.75288   0.81746   0.61219   0.01267  Uiso   1.00
Fe116  Fe    0.70527   0.91026   0.47422   0.01267  Uiso   1.00
O826   O     0.73245   0.91864   0.43027   0.01267  Uiso   1.00
C910   C     0.83981   0.88802   0.38415   0.01267  Uiso   1.00
C911   C     0.80425   0.90326   0.38923   0.01267  Uiso   1.00
C912   C     0.67905   0.01392   0.29310   0.01267  Uiso   1.00
C913   C     0.71581   0.97494   0.33431   0.01267  Uiso   1.00
C914   C     0.73081   0.95438   0.36043   0.01267  Uiso   1.00
Fe117  Fe    0.81746   0.75288   0.81746   0.01267  Uiso   1.00
Fe118  Fe    0.91026   0.70527   0.91026   0.01267  Uiso   1.00
O827   O     0.91864   0.73245   0.91864   0.01267  Uiso   1.00
C915   C     0.88802   0.83981   0.88802   0.01267  Uiso   1.00
C916   C     0.90326   0.80425   0.90326   0.01267  Uiso   1.00
C917   C     0.01392   0.67905   0.01392   0.01267  Uiso   1.00
C918   C     0.97494   0.71581   0.97494   0.01267  Uiso   1.00
C919   C     0.95438   0.73081   0.95438   0.01267  Uiso   1.00
Fe119  Fe    0.81746   0.61219   0.81746   0.01267  Uiso   1.00
Fe120  Fe    0.91026   0.47422   0.91026   0.01267  Uiso   1.00
O828   O     0.91864   0.43027   0.91864   0.01267  Uiso   1.00
C920   C     0.88802   0.38415   0.88802   0.01267  Uiso   1.00
C921   C     0.90326   0.38923   0.90326   0.01267  Uiso   1.00
C922   C     0.01392   0.29310   0.01392   0.01267  Uiso   1.00
C923   C     0.97494   0.33431   0.97494   0.01267  Uiso   1.00
C924   C     0.95438   0.36043   0.95438   0.01267  Uiso   1.00
Fe121  Fe    0.49712   0.63781   0.43254   0.01267  Uiso   1.00
Fe122  Fe    0.54473   0.77578   0.33974   0.01267  Uiso   1.00
O829   O     0.51755   0.81973   0.33136   0.01267  Uiso   1.00
C925   C     0.41019   0.86585   0.36198   0.01267  Uiso   1.00
C926   C     0.44575   0.86077   0.34674   0.01267  Uiso   1.00
C927   C     0.57095   0.95690   0.23608   0.01267  Uiso   1.00
C928   C     0.53419   0.91569   0.27506   0.01267  Uiso   1.00
C929   C     0.51919   0.88957   0.29562   0.01267  Uiso   1.00
Fe123  Fe    0.63781   0.49712   0.43254   0.01267  Uiso   1.00
Fe124  Fe    0.77578   0.54473   0.33974   0.01267  Uiso   1.00
O830   O     0.81973   0.51755   0.33136   0.01267  Uiso   1.00
C930   C     0.86585   0.41019   0.36198   0.01267  Uiso   1.00
C931   C     0.86077   0.44575   0.34674   0.01267  Uiso   1.00
C932   C     0.95690   0.57095   0.23608   0.01267  Uiso   1.00
C933   C     0.91569   0.53419   0.27506   0.01267  Uiso   1.00
C934   C     0.88957   0.51919   0.29562   0.01267  Uiso   1.00
Fe125  Fe    0.43254   0.43254   0.63781   0.01267  Uiso   1.00
Fe126  Fe    0.33974   0.33974   0.77578   0.01267  Uiso   1.00
O831   O     0.33136   0.33136   0.81973   0.01267  Uiso   1.00
C935   C     0.36198   0.36198   0.86585   0.01267  Uiso   1.00
C936   C     0.34674   0.34674   0.86077   0.01267  Uiso   1.00
C937   C     0.23608   0.23608   0.95690   0.01267  Uiso   1.00
C938   C     0.27506   0.27506   0.91569   0.01267  Uiso   1.00
C939   C     0.29562   0.29562   0.88957   0.01267  Uiso   1.00
Fe127  Fe    0.43254   0.43254   0.49712   0.01267  Uiso   1.00
Fe128  Fe    0.33974   0.33974   0.54473   0.01267  Uiso   1.00
O832   O     0.33136   0.33136   0.51755   0.01267  Uiso   1.00
C940   C     0.36198   0.36198   0.41019   0.01267  Uiso   1.00
C941   C     0.34674   0.34674   0.44575   0.01267  Uiso   1.00
C942   C     0.23608   0.23608   0.57095   0.01267  Uiso   1.00
C943   C     0.27506   0.27506   0.53419   0.01267  Uiso   1.00
C944   C     0.29562   0.29562   0.51919   0.01267  Uiso   1.00
Fe129  Fe    0.43254   0.49712   0.43254   0.01267  Uiso   1.00
Fe130  Fe    0.33974   0.54473   0.33974   0.01267  Uiso   1.00
O833   O     0.33136   0.51755   0.33136   0.01267  Uiso   1.00
C945   C     0.36198   0.41019   0.36198   0.01267  Uiso   1.00
C946   C     0.34674   0.44575   0.34674   0.01267  Uiso   1.00
C947   C     0.23608   0.57095   0.23608   0.01267  Uiso   1.00
C948   C     0.27506   0.53419   0.27506   0.01267  Uiso   1.00
C949   C     0.29562   0.51919   0.29562   0.01267  Uiso   1.00
Fe131  Fe    0.43254   0.63781   0.43254   0.01267  Uiso   1.00
Fe132  Fe    0.33974   0.77578   0.33974   0.01267  Uiso   1.00
O834   O     0.33136   0.81973   0.33136   0.01267  Uiso   1.00
C950   C     0.36198   0.86585   0.36198   0.01267  Uiso   1.00
C951   C     0.34674   0.86077   0.34674   0.01267  Uiso   1.00
C952   C     0.23608   0.95690   0.23608   0.01267  Uiso   1.00
C953   C     0.27506   0.91569   0.27506   0.01267  Uiso   1.00
C954   C     0.29562   0.88957   0.29562   0.01267  Uiso   1.00
Fe133  Fe    0.49712   0.43254   0.63781   0.01267  Uiso   1.00
Fe134  Fe    0.54473   0.33974   0.77578   0.01267  Uiso   1.00
O835   O     0.51755   0.33136   0.81973   0.01267  Uiso   1.00
C955   C     0.41019   0.36198   0.86585   0.01267  Uiso   1.00
C956   C     0.44575   0.34674   0.86077   0.01267  Uiso   1.00
C957   C     0.57095   0.23608   0.95690   0.01267  Uiso   1.00
C958   C     0.53419   0.27506   0.91569   0.01267  Uiso   1.00
C959   C     0.51919   0.29562   0.88957   0.01267  Uiso   1.00
Fe135  Fe    0.63781   0.43254   0.49712   0.01267  Uiso   1.00
Fe136  Fe    0.77578   0.33974   0.54473   0.01267  Uiso   1.00
O836   O     0.81973   0.33136   0.51755   0.01267  Uiso   1.00
C960   C     0.86585   0.36198   0.41019   0.01267  Uiso   1.00
C961   C     0.86077   0.34674   0.44575   0.01267  Uiso   1.00
C962   C     0.95690   0.23608   0.57095   0.01267  Uiso   1.00
C963   C     0.91569   0.27506   0.53419   0.01267  Uiso   1.00
C964   C     0.88957   0.29562   0.51919   0.01267  Uiso   1.00
Fe137  Fe    0.63781   0.43254   0.43254   0.01267  Uiso   1.00
Fe138  Fe    0.77578   0.33974   0.33974   0.01267  Uiso   1.00
O837   O     0.81973   0.33136   0.33136   0.01267  Uiso   1.00
C965   C     0.86585   0.36198   0.36198   0.01267  Uiso   1.00
C966   C     0.86077   0.34674   0.34674   0.01267  Uiso   1.00
C967   C     0.95690   0.23608   0.23608   0.01267  Uiso   1.00
C968   C     0.91569   0.27506   0.27506   0.01267  Uiso   1.00
C969   C     0.88957   0.29562   0.29562   0.01267  Uiso   1.00
Fe139  Fe    0.49712   0.43254   0.43254   0.01267  Uiso   1.00
Fe140  Fe    0.54473   0.33974   0.33974   0.01267  Uiso   1.00
O838   O     0.51755   0.33136   0.33136   0.01267  Uiso   1.00
C970   C     0.41019   0.36198   0.36198   0.01267  Uiso   1.00
C971   C     0.44575   0.34674   0.34674   0.01267  Uiso   1.00
C972   C     0.57095   0.23608   0.23608   0.01267  Uiso   1.00
C973   C     0.53419   0.27506   0.27506   0.01267  Uiso   1.00
C974   C     0.51919   0.29562   0.29562   0.01267  Uiso   1.00
Fe141  Fe    0.43254   0.49712   0.63781   0.01267  Uiso   1.00
Fe142  Fe    0.33974   0.54473   0.77578   0.01267  Uiso   1.00
O839   O     0.33136   0.51755   0.81973   0.01267  Uiso   1.00
C975   C     0.36198   0.41019   0.86585   0.01267  Uiso   1.00
C976   C     0.34674   0.44575   0.86077   0.01267  Uiso   1.00
C977   C     0.23608   0.57095   0.95690   0.01267  Uiso   1.00
C978   C     0.27506   0.53419   0.91569   0.01267  Uiso   1.00
C979   C     0.29562   0.51919   0.88957   0.01267  Uiso   1.00
Fe143  Fe    0.43254   0.63781   0.49712   0.01267  Uiso   1.00
Fe144  Fe    0.33974   0.77578   0.54473   0.01267  Uiso   1.00
O840   O     0.33136   0.81973   0.51755   0.01267  Uiso   1.00
C980   C     0.36198   0.86585   0.41019   0.01267  Uiso   1.00
C981   C     0.34674   0.86077   0.44575   0.01267  Uiso   1.00
C982   C     0.23608   0.95690   0.57095   0.01267  Uiso   1.00
C983   C     0.27506   0.91569   0.53419   0.01267  Uiso   1.00
C984   C     0.29562   0.88957   0.51919   0.01267  Uiso   1.00
C985   C     0.43198   0.51002   0.02900   0.01267  Uiso   1.00
C986   C     0.39576   0.52884   0.03770   0.01267  Uiso   1.00
C987   C     0.33106   0.57012   0.04941   0.01267  Uiso   1.00
C988   C     0.51002   0.43198   0.02900   0.01267  Uiso   1.00
C989   C     0.52884   0.39576   0.03770   0.01267  Uiso   1.00
C990   C     0.57012   0.33106   0.04941   0.01267  Uiso   1.00
C991   C     0.02900   0.02900   0.43198   0.01267  Uiso   1.00
C992   C     0.03770   0.03770   0.39576   0.01267  Uiso   1.00
C993   C     0.04941   0.04941   0.33106   0.01267  Uiso   1.00
C994   C     0.02900   0.02900   0.51002   0.01267  Uiso   1.00
C995   C     0.03770   0.03770   0.52884   0.01267  Uiso   1.00
C996   C     0.04941   0.04941   0.57012   0.01267  Uiso   1.00
C997   C     0.02900   0.43198   0.51002   0.01267  Uiso   1.00
C998   C     0.03770   0.39576   0.52884   0.01267  Uiso   1.00
C999   C     0.04941   0.33106   0.57012   0.01267  Uiso   1.00
C1000  C     0.02900   0.51002   0.43198   0.01267  Uiso   1.00
C1001  C     0.03770   0.52884   0.39576   0.01267  Uiso   1.00
C1002  C     0.04941   0.57012   0.33106   0.01267  Uiso   1.00
C1003  C     0.43198   0.02900   0.02900   0.01267  Uiso   1.00
C1004  C     0.39576   0.03770   0.03770   0.01267  Uiso   1.00
C1005  C     0.33106   0.04941   0.04941   0.01267  Uiso   1.00
C1006  C     0.51002   0.02900   0.02900   0.01267  Uiso   1.00
C1007  C     0.52884   0.03770   0.03770   0.01267  Uiso   1.00
C1008  C     0.57012   0.04941   0.04941   0.01267  Uiso   1.00
C1009  C     0.51002   0.02900   0.43198   0.01267  Uiso   1.00
C1010  C     0.52884   0.03770   0.39576   0.01267  Uiso   1.00
C1011  C     0.57012   0.04941   0.33106   0.01267  Uiso   1.00
C1012  C     0.43198   0.02900   0.51002   0.01267  Uiso   1.00
C1013  C     0.39576   0.03770   0.52884   0.01267  Uiso   1.00
C1014  C     0.33106   0.04941   0.57012   0.01267  Uiso   1.00
C1015  C     0.02900   0.43198   0.02900   0.01267  Uiso   1.00
C1016  C     0.03770   0.39576   0.03770   0.01267  Uiso   1.00
C1017  C     0.04941   0.33106   0.04941   0.01267  Uiso   1.00
C1018  C     0.02900   0.51002   0.02900   0.01267  Uiso   1.00
C1019  C     0.03770   0.52884   0.03770   0.01267  Uiso   1.00
C1020  C     0.04941   0.57012   0.04941   0.01267  Uiso   1.00
C1021  C     0.81802   0.73998   0.22100   0.01267  Uiso   1.00
C1022  C     0.85424   0.72116   0.21230   0.01267  Uiso   1.00
C1023  C     0.91894   0.67988   0.20059   0.01267  Uiso   1.00
C1024  C     0.73998   0.81802   0.22100   0.01267  Uiso   1.00
C1025  C     0.72116   0.85424   0.21230   0.01267  Uiso   1.00
C1026  C     0.67988   0.91894   0.20059   0.01267  Uiso   1.00
C1027  C     0.22100   0.22100   0.73998   0.01267  Uiso   1.00
C1028  C     0.21230   0.21230   0.72116   0.01267  Uiso   1.00
C1029  C     0.20059   0.20059   0.67988   0.01267  Uiso   1.00
C1030  C     0.22100   0.22100   0.81802   0.01267  Uiso   1.00
C1031  C     0.21230   0.21230   0.85424   0.01267  Uiso   1.00
C1032  C     0.20059   0.20059   0.91894   0.01267  Uiso   1.00
C1033  C     0.22100   0.81802   0.22100   0.01267  Uiso   1.00
C1034  C     0.21230   0.85424   0.21230   0.01267  Uiso   1.00
C1035  C     0.20059   0.91894   0.20059   0.01267  Uiso   1.00
C1036  C     0.22100   0.73998   0.22100   0.01267  Uiso   1.00
C1037  C     0.21230   0.72116   0.21230   0.01267  Uiso   1.00
C1038  C     0.20059   0.67988   0.20059   0.01267  Uiso   1.00
C1039  C     0.81802   0.22100   0.73998   0.01267  Uiso   1.00
C1040  C     0.85424   0.21230   0.72116   0.01267  Uiso   1.00
C1041  C     0.91894   0.20059   0.67988   0.01267  Uiso   1.00
C1042  C     0.73998   0.22100   0.81802   0.01267  Uiso   1.00
C1043  C     0.72116   0.21230   0.85424   0.01267  Uiso   1.00
C1044  C     0.67988   0.20059   0.91894   0.01267  Uiso   1.00
C1045  C     0.73998   0.22100   0.22100   0.01267  Uiso   1.00
C1046  C     0.72116   0.21230   0.21230   0.01267  Uiso   1.00
C1047  C     0.67988   0.20059   0.20059   0.01267  Uiso   1.00
C1048  C     0.81802   0.22100   0.22100   0.01267  Uiso   1.00
C1049  C     0.85424   0.21230   0.21230   0.01267  Uiso   1.00
C1050  C     0.91894   0.20059   0.20059   0.01267  Uiso   1.00
C1051  C     0.22100   0.81802   0.73998   0.01267  Uiso   1.00
C1052  C     0.21230   0.85424   0.72116   0.01267  Uiso   1.00
C1053  C     0.20059   0.91894   0.67988   0.01267  Uiso   1.00
C1054  C     0.22100   0.73998   0.81802   0.01267  Uiso   1.00
C1055  C     0.21230   0.72116   0.85424   0.01267  Uiso   1.00
C1056  C     0.20059   0.67988   0.91894   0.01267  Uiso   1.00
Fe145  Fe    0.53058   0.53058   0.96942   0.01267  Uiso   1.00
O841   O     0.50411   0.50411   0.99589   0.01267  Uiso   1.00
Fe146  Fe    0.96942   0.96942   0.53058   0.01267  Uiso   1.00
O842   O     0.99589   0.99589   0.50411   0.01267  Uiso   1.00
Fe147  Fe    0.96942   0.53058   0.53058   0.01267  Uiso   1.00
O843   O     0.99589   0.50411   0.50411   0.01267  Uiso   1.00
Fe148  Fe    0.53058   0.96942   0.96942   0.01267  Uiso   1.00
O844   O     0.50411   0.99589   0.99589   0.01267  Uiso   1.00
Fe149  Fe    0.53058   0.96942   0.53058   0.01267  Uiso   1.00
O845   O     0.50411   0.99589   0.50411   0.01267  Uiso   1.00
Fe150  Fe    0.96942   0.53058   0.96942   0.01267  Uiso   1.00
O846   O     0.99589   0.50411   0.99589   0.01267  Uiso   1.00
Fe151  Fe    0.71942   0.71942   0.28058   0.01267  Uiso   1.00
O847   O     0.74589   0.74589   0.25411   0.01267  Uiso   1.00
Fe152  Fe    0.28058   0.28058   0.71942   0.01267  Uiso   1.00
O848   O     0.25411   0.25411   0.74589   0.01267  Uiso   1.00
Fe153  Fe    0.28058   0.71942   0.28058   0.01267  Uiso   1.00
O849   O     0.25411   0.74589   0.25411   0.01267  Uiso   1.00
Fe154  Fe    0.71942   0.28058   0.71942   0.01267  Uiso   1.00
O850   O     0.74589   0.25411   0.74589   0.01267  Uiso   1.00
Fe155  Fe    0.71942   0.28058   0.28058   0.01267  Uiso   1.00
O851   O     0.74589   0.25411   0.25411   0.01267  Uiso   1.00
Fe156  Fe    0.28058   0.71942   0.71942   0.01267  Uiso   1.00
O852   O     0.25411   0.74589   0.74589   0.01267  Uiso   1.00
Fe157  Fe    0.49086   0.49086   0.97698   0.01267  Uiso   1.00
C1057  C     0.70338   0.70338   0.75018   0.01267  Uiso   1.00
Fe158  Fe    0.49086   0.49086   0.04130   0.01267  Uiso   1.00
C1058  C     0.70338   0.70338   0.84306   0.01267  Uiso   1.00
Fe159  Fe    0.97698   0.04130   0.49086   0.01267  Uiso   1.00
C1059  C     0.75018   0.84306   0.70338   0.01267  Uiso   1.00
Fe160  Fe    0.04130   0.97698   0.49086   0.01267  Uiso   1.00
C1060  C     0.84306   0.75018   0.70338   0.01267  Uiso   1.00
Fe161  Fe    0.97698   0.49086   0.49086   0.01267  Uiso   1.00
C1061  C     0.75018   0.70338   0.70338   0.01267  Uiso   1.00
Fe162  Fe    0.04130   0.49086   0.49086   0.01267  Uiso   1.00
C1062  C     0.84306   0.70338   0.70338   0.01267  Uiso   1.00
Fe163  Fe    0.49086   0.97698   0.04130   0.01267  Uiso   1.00
C1063  C     0.70338   0.75018   0.84306   0.01267  Uiso   1.00
Fe164  Fe    0.49086   0.04130   0.97698   0.01267  Uiso   1.00
C1064  C     0.70338   0.84306   0.75018   0.01267  Uiso   1.00
Fe165  Fe    0.49086   0.97698   0.49086   0.01267  Uiso   1.00
C1065  C     0.70338   0.75018   0.70338   0.01267  Uiso   1.00
Fe166  Fe    0.49086   0.04130   0.49086   0.01267  Uiso   1.00
C1066  C     0.70338   0.84306   0.70338   0.01267  Uiso   1.00
Fe167  Fe    0.04130   0.49086   0.97698   0.01267  Uiso   1.00
C1067  C     0.84306   0.70338   0.75018   0.01267  Uiso   1.00
Fe168  Fe    0.97698   0.49086   0.04130   0.01267  Uiso   1.00
C1068  C     0.75018   0.70338   0.84306   0.01267  Uiso   1.00
Fe169  Fe    0.75914   0.75914   0.20870   0.01267  Uiso   1.00
C1069  C     0.54662   0.54662   0.40694   0.01267  Uiso   1.00
Fe170  Fe    0.75914   0.75914   0.27302   0.01267  Uiso   1.00
C1070  C     0.54662   0.54662   0.49982   0.01267  Uiso   1.00
Fe171  Fe    0.27302   0.20870   0.75914   0.01267  Uiso   1.00
C1071  C     0.49982   0.40694   0.54662   0.01267  Uiso   1.00
Fe172  Fe    0.20870   0.27302   0.75914   0.01267  Uiso   1.00
C1072  C     0.40694   0.49982   0.54662   0.01267  Uiso   1.00
Fe173  Fe    0.27302   0.75914   0.20870   0.01267  Uiso   1.00
C1073  C     0.49982   0.54662   0.40694   0.01267  Uiso   1.00
Fe174  Fe    0.20870   0.75914   0.27302   0.01267  Uiso   1.00
C1074  C     0.40694   0.54662   0.49982   0.01267  Uiso   1.00
Fe175  Fe    0.75914   0.27302   0.75914   0.01267  Uiso   1.00
C1075  C     0.54662   0.49982   0.54662   0.01267  Uiso   1.00
Fe176  Fe    0.75914   0.20870   0.75914   0.01267  Uiso   1.00
C1076  C     0.54662   0.40694   0.54662   0.01267  Uiso   1.00
Fe177  Fe    0.75914   0.27302   0.20870   0.01267  Uiso   1.00
C1077  C     0.54662   0.49982   0.40694   0.01267  Uiso   1.00
Fe178  Fe    0.75914   0.20870   0.27302   0.01267  Uiso   1.00
C1078  C     0.54662   0.40694   0.49982   0.01267  Uiso   1.00
Fe179  Fe    0.20870   0.75914   0.75914   0.01267  Uiso   1.00
C1079  C     0.40694   0.54662   0.54662   0.01267  Uiso   1.00
Fe180  Fe    0.27302   0.75914   0.75914   0.01267  Uiso   1.00
C1080  C     0.49982   0.54662   0.54662   0.01267  Uiso   1.00
Fe181  Fe    0.27736   0.62500   0.97264   0.01267  Uiso   1.00
O853   O     0.31454   0.62500   0.93546   0.01267  Uiso   1.00
Fe182  Fe    0.62500   0.27736   0.12500   0.01267  Uiso   1.00
O854   O     0.62500   0.31454   0.12500   0.01267  Uiso   1.00
Fe183  Fe    0.97264   0.12500   0.27736   0.01267  Uiso   1.00
O855   O     0.93546   0.12500   0.31454   0.01267  Uiso   1.00
Fe184  Fe    0.12500   0.97264   0.62500   0.01267  Uiso   1.00
O856   O     0.12500   0.93546   0.62500   0.01267  Uiso   1.00
Fe185  Fe    0.97264   0.27736   0.62500   0.01267  Uiso   1.00
O857   O     0.93546   0.31454   0.62500   0.01267  Uiso   1.00
Fe186  Fe    0.12500   0.62500   0.27736   0.01267  Uiso   1.00
O858   O     0.12500   0.62500   0.31454   0.01267  Uiso   1.00
Fe187  Fe    0.27736   0.97264   0.12500   0.01267  Uiso   1.00
O859   O     0.31454   0.93546   0.12500   0.01267  Uiso   1.00
Fe188  Fe    0.62500   0.12500   0.97264   0.01267  Uiso   1.00
O860   O     0.62500   0.12500   0.93546   0.01267  Uiso   1.00
Fe189  Fe    0.62500   0.97264   0.27736   0.01267  Uiso   1.00
O861   O     0.62500   0.93546   0.31454   0.01267  Uiso   1.00
Fe190  Fe    0.27736   0.12500   0.62500   0.01267  Uiso   1.00
O862   O     0.31454   0.12500   0.62500   0.01267  Uiso   1.00
Fe191  Fe    0.12500   0.27736   0.97264   0.01267  Uiso   1.00
O863   O     0.12500   0.31454   0.93546   0.01267  Uiso   1.00
Fe192  Fe    0.97264   0.62500   0.12500   0.01267  Uiso   1.00
O864   O     0.93546   0.62500   0.12500   0.01267  Uiso   1.00
Fe193  Fe    0.97264   0.62500   0.27736   0.01267  Uiso   1.00
O865   O     0.93546   0.62500   0.31454   0.01267  Uiso   1.00
Fe194  Fe    0.62500   0.97264   0.12500   0.01267  Uiso   1.00
O866   O     0.62500   0.93546   0.12500   0.01267  Uiso   1.00
Fe195  Fe    0.27736   0.12500   0.97264   0.01267  Uiso   1.00
O867   O     0.31454   0.12500   0.93546   0.01267  Uiso   1.00
Fe196  Fe    0.12500   0.27736   0.62500   0.01267  Uiso   1.00
O868   O     0.12500   0.31454   0.62500   0.01267  Uiso   1.00
Fe197  Fe    0.27736   0.97264   0.62500   0.01267  Uiso   1.00
O869   O     0.31454   0.93546   0.62500   0.01267  Uiso   1.00
Fe198  Fe    0.12500   0.62500   0.97264   0.01267  Uiso   1.00
O870   O     0.12500   0.62500   0.93546   0.01267  Uiso   1.00
Fe199  Fe    0.97264   0.27736   0.12500   0.01267  Uiso   1.00
O871   O     0.93546   0.31454   0.12500   0.01267  Uiso   1.00
Fe200  Fe    0.62500   0.12500   0.27736   0.01267  Uiso   1.00
O872   O     0.62500   0.12500   0.31454   0.01267  Uiso   1.00
Fe201  Fe    0.62500   0.27736   0.97264   0.01267  Uiso   1.00
O873   O     0.62500   0.31454   0.93546   0.01267  Uiso   1.00
Fe202  Fe    0.97264   0.12500   0.62500   0.01267  Uiso   1.00
O874   O     0.93546   0.12500   0.62500   0.01267  Uiso   1.00
Fe203  Fe    0.12500   0.97264   0.27736   0.01267  Uiso   1.00
O875   O     0.12500   0.93546   0.31454   0.01267  Uiso   1.00
Fe204  Fe    0.27736   0.62500   0.12500   0.01267  Uiso   1.00
O876   O     0.31454   0.62500   0.12500   0.01267  Uiso   1.00
O877   O     0.79594   0.61218   0.79594   0.01267  Uiso   1.00
O878   O     0.61218   0.79594   0.79594   0.01267  Uiso   1.00
O879   O     0.79594   0.79594   0.79594   0.01267  Uiso   1.00
O880   O     0.79594   0.79594   0.61218   0.01267  Uiso   1.00
O881   O     0.45406   0.63782   0.45406   0.01267  Uiso   1.00
O882   O     0.63782   0.45406   0.45406   0.01267  Uiso   1.00
O883   O     0.45406   0.45406   0.63782   0.01267  Uiso   1.00
O884   O     0.45406   0.45406   0.45406   0.01267  Uiso   1.00
C1081  C     0.85632   0.38400   0.85632   0.01267  Uiso   1.00
C1082  C     0.78315   0.56767   0.78315   0.01267  Uiso   1.00
C1083  C     0.78495   0.53705   0.78495   0.01267  Uiso   1.00
C1084  C     0.79543   0.47409   0.79543   0.01267  Uiso   1.00
C1085  C     0.38400   0.85632   0.90335   0.01267  Uiso   1.00
C1086  C     0.56767   0.78315   0.86604   0.01267  Uiso   1.00
C1087  C     0.53705   0.78495   0.89304   0.01267  Uiso   1.00
C1088  C     0.47409   0.79543   0.93505   0.01267  Uiso   1.00
C1089  C     0.85632   0.90335   0.85632   0.01267  Uiso   1.00
C1090  C     0.78315   0.86604   0.78315   0.01267  Uiso   1.00
C1091  C     0.78495   0.89304   0.78495   0.01267  Uiso   1.00
C1092  C     0.79543   0.93505   0.79543   0.01267  Uiso   1.00
C1093  C     0.90335   0.85632   0.38400   0.01267  Uiso   1.00
C1094  C     0.86604   0.78315   0.56767   0.01267  Uiso   1.00
C1095  C     0.89304   0.78495   0.53705   0.01267  Uiso   1.00
C1096  C     0.93505   0.79543   0.47409   0.01267  Uiso   1.00
C1097  C     0.85632   0.85632   0.38400   0.01267  Uiso   1.00
C1098  C     0.78315   0.78315   0.56767   0.01267  Uiso   1.00
C1099  C     0.78495   0.78495   0.53705   0.01267  Uiso   1.00
C1100  C     0.79543   0.79543   0.47409   0.01267  Uiso   1.00
C1101  C     0.90335   0.38400   0.85632   0.01267  Uiso   1.00
C1102  C     0.86604   0.56767   0.78315   0.01267  Uiso   1.00
C1103  C     0.89304   0.53705   0.78495   0.01267  Uiso   1.00
C1104  C     0.93505   0.47409   0.79543   0.01267  Uiso   1.00
C1105  C     0.85632   0.85632   0.90335   0.01267  Uiso   1.00
C1106  C     0.78315   0.78315   0.86604   0.01267  Uiso   1.00
C1107  C     0.78495   0.78495   0.89304   0.01267  Uiso   1.00
C1108  C     0.79543   0.79543   0.93505   0.01267  Uiso   1.00
C1109  C     0.38400   0.90335   0.85632   0.01267  Uiso   1.00
C1110  C     0.56767   0.86604   0.78315   0.01267  Uiso   1.00
C1111  C     0.53705   0.89304   0.78495   0.01267  Uiso   1.00
C1112  C     0.47409   0.93505   0.79543   0.01267  Uiso   1.00
C1113  C     0.38400   0.85632   0.85632   0.01267  Uiso   1.00
C1114  C     0.56767   0.78315   0.78315   0.01267  Uiso   1.00
C1115  C     0.53705   0.78495   0.78495   0.01267  Uiso   1.00
C1116  C     0.47409   0.79543   0.79543   0.01267  Uiso   1.00
C1117  C     0.85632   0.90335   0.38400   0.01267  Uiso   1.00
C1118  C     0.78315   0.86604   0.56767   0.01267  Uiso   1.00
C1119  C     0.78495   0.89304   0.53705   0.01267  Uiso   1.00
C1120  C     0.79543   0.93505   0.47409   0.01267  Uiso   1.00
C1121  C     0.90335   0.85632   0.85632   0.01267  Uiso   1.00
C1122  C     0.86604   0.78315   0.78315   0.01267  Uiso   1.00
C1123  C     0.89304   0.78495   0.78495   0.01267  Uiso   1.00
C1124  C     0.93505   0.79543   0.79543   0.01267  Uiso   1.00
C1125  C     0.85632   0.38400   0.90335   0.01267  Uiso   1.00
C1126  C     0.78315   0.56767   0.86604   0.01267  Uiso   1.00
C1127  C     0.78495   0.53705   0.89304   0.01267  Uiso   1.00
C1128  C     0.79543   0.47409   0.93505   0.01267  Uiso   1.00
C1129  C     0.39368   0.86600   0.34665   0.01267  Uiso   1.00
C1130  C     0.46685   0.68233   0.38396   0.01267  Uiso   1.00
C1131  C     0.46505   0.71295   0.35696   0.01267  Uiso   1.00
C1132  C     0.45457   0.77591   0.31495   0.01267  Uiso   1.00
C1133  C     0.86600   0.39368   0.39368   0.01267  Uiso   1.00
C1134  C     0.68233   0.46685   0.46685   0.01267  Uiso   1.00
C1135  C     0.71295   0.46505   0.46505   0.01267  Uiso   1.00
C1136  C     0.77591   0.45457   0.45457   0.01267  Uiso   1.00
C1137  C     0.39368   0.34665   0.86600   0.01267  Uiso   1.00
C1138  C     0.46685   0.38396   0.68233   0.01267  Uiso   1.00
C1139  C     0.46505   0.35696   0.71295   0.01267  Uiso   1.00
C1140  C     0.45457   0.31495   0.77591   0.01267  Uiso   1.00
C1141  C     0.34665   0.39368   0.39368   0.01267  Uiso   1.00
C1142  C     0.38396   0.46685   0.46685   0.01267  Uiso   1.00
C1143  C     0.35696   0.46505   0.46505   0.01267  Uiso   1.00
C1144  C     0.31495   0.45457   0.45457   0.01267  Uiso   1.00
C1145  C     0.39368   0.39368   0.34665   0.01267  Uiso   1.00
C1146  C     0.46685   0.46685   0.38396   0.01267  Uiso   1.00
C1147  C     0.46505   0.46505   0.35696   0.01267  Uiso   1.00
C1148  C     0.45457   0.45457   0.31495   0.01267  Uiso   1.00
C1149  C     0.34665   0.86600   0.39368   0.01267  Uiso   1.00
C1150  C     0.38396   0.68233   0.46685   0.01267  Uiso   1.00
C1151  C     0.35696   0.71295   0.46505   0.01267  Uiso   1.00
C1152  C     0.31495   0.77591   0.45457   0.01267  Uiso   1.00
C1153  C     0.39368   0.39368   0.86600   0.01267  Uiso   1.00
C1154  C     0.46685   0.46685   0.68233   0.01267  Uiso   1.00
C1155  C     0.46505   0.46505   0.71295   0.01267  Uiso   1.00
C1156  C     0.45457   0.45457   0.77591   0.01267  Uiso   1.00
C1157  C     0.86600   0.34665   0.39368   0.01267  Uiso   1.00
C1158  C     0.68233   0.38396   0.46685   0.01267  Uiso   1.00
C1159  C     0.71295   0.35696   0.46505   0.01267  Uiso   1.00
C1160  C     0.77591   0.31495   0.45457   0.01267  Uiso   1.00
C1161  C     0.86600   0.39368   0.34665   0.01267  Uiso   1.00
C1162  C     0.68233   0.46685   0.38396   0.01267  Uiso   1.00
C1163  C     0.71295   0.46505   0.35696   0.01267  Uiso   1.00
C1164  C     0.77591   0.45457   0.31495   0.01267  Uiso   1.00
C1165  C     0.39368   0.34665   0.39368   0.01267  Uiso   1.00
C1166  C     0.46685   0.38396   0.46685   0.01267  Uiso   1.00
C1167  C     0.46505   0.35696   0.46505   0.01267  Uiso   1.00
C1168  C     0.45457   0.31495   0.45457   0.01267  Uiso   1.00
C1169  C     0.34665   0.39368   0.86600   0.01267  Uiso   1.00
C1170  C     0.38396   0.46685   0.68233   0.01267  Uiso   1.00
C1171  C     0.35696   0.46505   0.71295   0.01267  Uiso   1.00
C1172  C     0.31495   0.45457   0.77591   0.01267  Uiso   1.00
C1173  C     0.39368   0.86600   0.39368   0.01267  Uiso   1.00
C1174  C     0.46685   0.68233   0.46685   0.01267  Uiso   1.00
C1175  C     0.46505   0.71295   0.46505   0.01267  Uiso   1.00
C1176  C     0.45457   0.77591   0.45457   0.01267  Uiso   1.00
C1177  C     0.73494   0.68746   0.73494   0.01267  Uiso   1.00
C1178  C     0.75349   0.65678   0.75349   0.01267  Uiso   1.00
C1179  C     0.68746   0.73494   0.84266   0.01267  Uiso   1.00
C1180  C     0.65678   0.75349   0.83623   0.01267  Uiso   1.00
C1181  C     0.73494   0.84266   0.73494   0.01267  Uiso   1.00
C1182  C     0.75349   0.83623   0.75349   0.01267  Uiso   1.00
C1183  C     0.84266   0.73494   0.68746   0.01267  Uiso   1.00
C1184  C     0.83623   0.75349   0.65678   0.01267  Uiso   1.00
C1185  C     0.73494   0.73494   0.68746   0.01267  Uiso   1.00
C1186  C     0.75349   0.75349   0.65678   0.01267  Uiso   1.00
C1187  C     0.84266   0.68746   0.73494   0.01267  Uiso   1.00
C1188  C     0.83623   0.65678   0.75349   0.01267  Uiso   1.00
C1189  C     0.73494   0.73494   0.84266   0.01267  Uiso   1.00
C1190  C     0.75349   0.75349   0.83623   0.01267  Uiso   1.00
C1191  C     0.68746   0.84266   0.73494   0.01267  Uiso   1.00
C1192  C     0.65678   0.83623   0.75349   0.01267  Uiso   1.00
C1193  C     0.68746   0.73494   0.73494   0.01267  Uiso   1.00
C1194  C     0.65678   0.75349   0.75349   0.01267  Uiso   1.00
C1195  C     0.73494   0.84266   0.68746   0.01267  Uiso   1.00
C1196  C     0.75349   0.83623   0.65678   0.01267  Uiso   1.00
C1197  C     0.84266   0.73494   0.73494   0.01267  Uiso   1.00
C1198  C     0.83623   0.75349   0.75349   0.01267  Uiso   1.00
C1199  C     0.73494   0.68746   0.84266   0.01267  Uiso   1.00
C1200  C     0.75349   0.65678   0.83623   0.01267  Uiso   1.00
C1201  C     0.51506   0.56254   0.40734   0.01267  Uiso   1.00
C1202  C     0.49651   0.59322   0.41377   0.01267  Uiso   1.00
C1203  C     0.56254   0.51506   0.51506   0.01267  Uiso   1.00
C1204  C     0.59322   0.49651   0.49651   0.01267  Uiso   1.00
C1205  C     0.51506   0.40734   0.56254   0.01267  Uiso   1.00
C1206  C     0.49651   0.41377   0.59322   0.01267  Uiso   1.00
C1207  C     0.40734   0.51506   0.51506   0.01267  Uiso   1.00
C1208  C     0.41377   0.49651   0.49651   0.01267  Uiso   1.00
C1209  C     0.51506   0.51506   0.40734   0.01267  Uiso   1.00
C1210  C     0.49651   0.49651   0.41377   0.01267  Uiso   1.00
C1211  C     0.40734   0.56254   0.51506   0.01267  Uiso   1.00
C1212  C     0.41377   0.59322   0.49651   0.01267  Uiso   1.00
C1213  C     0.51506   0.51506   0.56254   0.01267  Uiso   1.00
C1214  C     0.49651   0.49651   0.59322   0.01267  Uiso   1.00
C1215  C     0.56254   0.40734   0.51506   0.01267  Uiso   1.00
C1216  C     0.59322   0.41377   0.49651   0.01267  Uiso   1.00
C1217  C     0.56254   0.51506   0.40734   0.01267  Uiso   1.00
C1218  C     0.59322   0.49651   0.41377   0.01267  Uiso   1.00
C1219  C     0.51506   0.40734   0.51506   0.01267  Uiso   1.00
C1220  C     0.49651   0.41377   0.49651   0.01267  Uiso   1.00
C1221  C     0.40734   0.51506   0.56254   0.01267  Uiso   1.00
C1222  C     0.41377   0.49651   0.59322   0.01267  Uiso   1.00
C1223  C     0.51506   0.56254   0.51506   0.01267  Uiso   1.00
C1224  C     0.49651   0.59322   0.49651   0.01267  Uiso   1.00
H1     H     0.39138   0.53276   0.99640   0.01267  Uiso   1.00
H2     H     0.74478   0.53281   0.82747   0.01267  Uiso   1.00
H3     H     0.67125   0.40270   0.88953   0.01267  Uiso   1.00
H4     H     0.56977   0.43236   0.92626   0.01267  Uiso   1.00
H5     H     0.61801   0.48631   0.91592   0.01267  Uiso   1.00
H6     H     0.71267   0.33223   0.01888   0.01267  Uiso   1.00
H7     H     0.53276   0.39138   0.07947   0.01267  Uiso   1.00
H8     H     0.53281   0.74478   0.89494   0.01267  Uiso   1.00
H9     H     0.40270   0.67125   0.03652   0.01267  Uiso   1.00
H10    H     0.43236   0.56977   0.07160   0.01267  Uiso   1.00
H11    H     0.48631   0.61801   0.97976   0.01267  Uiso   1.00
H12    H     0.33223   0.71267   0.93622   0.01267  Uiso   1.00
H13    H     0.99640   0.07947   0.39138   0.01267  Uiso   1.00
H14    H     0.82747   0.89494   0.74478   0.01267  Uiso   1.00
H15    H     0.88953   0.03652   0.67125   0.01267  Uiso   1.00
H16    H     0.92626   0.07160   0.56977   0.01267  Uiso   1.00
H17    H     0.91592   0.97976   0.61801   0.01267  Uiso   1.00
H18    H     0.01888   0.93622   0.71267   0.01267  Uiso   1.00
H19    H     0.07947   0.99640   0.53276   0.01267  Uiso   1.00
H20    H     0.89494   0.82747   0.53281   0.01267  Uiso   1.00
H21    H     0.03652   0.88953   0.40270   0.01267  Uiso   1.00
H22    H     0.07160   0.92626   0.43236   0.01267  Uiso   1.00
H23    H     0.97976   0.91592   0.48631   0.01267  Uiso   1.00
H24    H     0.93622   0.01888   0.33223   0.01267  Uiso   1.00
H25    H     0.99640   0.39138   0.53276   0.01267  Uiso   1.00
H26    H     0.82747   0.74478   0.53281   0.01267  Uiso   1.00
H27    H     0.88953   0.67125   0.40270   0.01267  Uiso   1.00
H28    H     0.92626   0.56977   0.43236   0.01267  Uiso   1.00
H29    H     0.91592   0.61801   0.48631   0.01267  Uiso   1.00
H30    H     0.01888   0.71267   0.33223   0.01267  Uiso   1.00
H31    H     0.07947   0.53276   0.39138   0.01267  Uiso   1.00
H32    H     0.89494   0.53281   0.74478   0.01267  Uiso   1.00
H33    H     0.03652   0.40270   0.67125   0.01267  Uiso   1.00
H34    H     0.07160   0.43236   0.56977   0.01267  Uiso   1.00
H35    H     0.97976   0.48631   0.61801   0.01267  Uiso   1.00
H36    H     0.93622   0.33223   0.71267   0.01267  Uiso   1.00
H37    H     0.39138   0.99640   0.07947   0.01267  Uiso   1.00
H38    H     0.74478   0.82747   0.89494   0.01267  Uiso   1.00
H39    H     0.67125   0.88953   0.03652   0.01267  Uiso   1.00
H40    H     0.56977   0.92626   0.07160   0.01267  Uiso   1.00
H41    H     0.61801   0.91592   0.97976   0.01267  Uiso   1.00
H42    H     0.71267   0.01888   0.93622   0.01267  Uiso   1.00
H43    H     0.53276   0.07947   0.99640   0.01267  Uiso   1.00
H44    H     0.53281   0.89494   0.82747   0.01267  Uiso   1.00
H45    H     0.40270   0.03652   0.88953   0.01267  Uiso   1.00
H46    H     0.43236   0.07160   0.92626   0.01267  Uiso   1.00
H47    H     0.48631   0.97976   0.91592   0.01267  Uiso   1.00
H48    H     0.33223   0.93622   0.01888   0.01267  Uiso   1.00
H49    H     0.53276   0.99640   0.39138   0.01267  Uiso   1.00
H50    H     0.53281   0.82747   0.74478   0.01267  Uiso   1.00
H51    H     0.40270   0.88953   0.67125   0.01267  Uiso   1.00
H52    H     0.43236   0.92626   0.56977   0.01267  Uiso   1.00
H53    H     0.48631   0.91592   0.61801   0.01267  Uiso   1.00
H54    H     0.33223   0.01888   0.71267   0.01267  Uiso   1.00
H55    H     0.39138   0.07947   0.53276   0.01267  Uiso   1.00
H56    H     0.74478   0.89494   0.53281   0.01267  Uiso   1.00
H57    H     0.67125   0.03652   0.40270   0.01267  Uiso   1.00
H58    H     0.56977   0.07160   0.43236   0.01267  Uiso   1.00
H59    H     0.61801   0.97976   0.48631   0.01267  Uiso   1.00
H60    H     0.71267   0.93622   0.33223   0.01267  Uiso   1.00
H61    H     0.07947   0.39138   0.99640   0.01267  Uiso   1.00
H62    H     0.89494   0.74478   0.82747   0.01267  Uiso   1.00
H63    H     0.03652   0.67125   0.88953   0.01267  Uiso   1.00
H64    H     0.07160   0.56977   0.92626   0.01267  Uiso   1.00
H65    H     0.97976   0.61801   0.91592   0.01267  Uiso   1.00
H66    H     0.93622   0.71267   0.01888   0.01267  Uiso   1.00
H67    H     0.99640   0.53276   0.07947   0.01267  Uiso   1.00
H68    H     0.82747   0.53281   0.89494   0.01267  Uiso   1.00
H69    H     0.88953   0.40270   0.03652   0.01267  Uiso   1.00
H70    H     0.92626   0.43236   0.07160   0.01267  Uiso   1.00
H71    H     0.91592   0.48631   0.97976   0.01267  Uiso   1.00
H72    H     0.01888   0.33223   0.93622   0.01267  Uiso   1.00
H73    H     0.85862   0.71724   0.17053   0.01267  Uiso   1.00
H74    H     0.50522   0.71719   0.35506   0.01267  Uiso   1.00
H75    H     0.57875   0.84730   0.21348   0.01267  Uiso   1.00
H76    H     0.68023   0.81764   0.17840   0.01267  Uiso   1.00
H77    H     0.63199   0.76369   0.27024   0.01267  Uiso   1.00
H78    H     0.53733   0.91777   0.31378   0.01267  Uiso   1.00
H79    H     0.71724   0.85862   0.25360   0.01267  Uiso   1.00
H80    H     0.71719   0.50522   0.42253   0.01267  Uiso   1.00
H81    H     0.84730   0.57875   0.36047   0.01267  Uiso   1.00
H82    H     0.81764   0.68023   0.32374   0.01267  Uiso   1.00
H83    H     0.76369   0.63199   0.33408   0.01267  Uiso   1.00
H84    H     0.91777   0.53733   0.23112   0.01267  Uiso   1.00
H85    H     0.25360   0.17053   0.71724   0.01267  Uiso   1.00
H86    H     0.42253   0.35506   0.71719   0.01267  Uiso   1.00
H87    H     0.36047   0.21348   0.84730   0.01267  Uiso   1.00
H88    H     0.32374   0.17840   0.81764   0.01267  Uiso   1.00
H89    H     0.33408   0.27024   0.76369   0.01267  Uiso   1.00
H90    H     0.23112   0.31378   0.91777   0.01267  Uiso   1.00
H91    H     0.17053   0.25360   0.85862   0.01267  Uiso   1.00
H92    H     0.35506   0.42253   0.50522   0.01267  Uiso   1.00
H93    H     0.21348   0.36047   0.57875   0.01267  Uiso   1.00
H94    H     0.17840   0.32374   0.68023   0.01267  Uiso   1.00
H95    H     0.27024   0.33408   0.63199   0.01267  Uiso   1.00
H96    H     0.31378   0.23112   0.53733   0.01267  Uiso   1.00
H97    H     0.25360   0.85862   0.17053   0.01267  Uiso   1.00
H98    H     0.42253   0.50522   0.35506   0.01267  Uiso   1.00
H99    H     0.36047   0.57875   0.21348   0.01267  Uiso   1.00
H100   H     0.32374   0.68023   0.17840   0.01267  Uiso   1.00
H101   H     0.33408   0.63199   0.27024   0.01267  Uiso   1.00
H102   H     0.23112   0.53733   0.31378   0.01267  Uiso   1.00
H103   H     0.17053   0.71724   0.25360   0.01267  Uiso   1.00
H104   H     0.35506   0.71719   0.42253   0.01267  Uiso   1.00
H105   H     0.21348   0.84730   0.36047   0.01267  Uiso   1.00
H106   H     0.17840   0.81764   0.32374   0.01267  Uiso   1.00
H107   H     0.27024   0.76369   0.33408   0.01267  Uiso   1.00
H108   H     0.31378   0.91777   0.23112   0.01267  Uiso   1.00
H109   H     0.85862   0.25360   0.71724   0.01267  Uiso   1.00
H110   H     0.50522   0.42253   0.71719   0.01267  Uiso   1.00
H111   H     0.57875   0.36047   0.84730   0.01267  Uiso   1.00
H112   H     0.68023   0.32374   0.81764   0.01267  Uiso   1.00
H113   H     0.63199   0.33408   0.76369   0.01267  Uiso   1.00
H114   H     0.53733   0.23112   0.91777   0.01267  Uiso   1.00
H115   H     0.71724   0.17053   0.85862   0.01267  Uiso   1.00
H116   H     0.71719   0.35506   0.50522   0.01267  Uiso   1.00
H117   H     0.84730   0.21348   0.57875   0.01267  Uiso   1.00
H118   H     0.81764   0.17840   0.68023   0.01267  Uiso   1.00
H119   H     0.76369   0.27024   0.63199   0.01267  Uiso   1.00
H120   H     0.91777   0.31378   0.53733   0.01267  Uiso   1.00
H121   H     0.71724   0.25360   0.17053   0.01267  Uiso   1.00
H122   H     0.71719   0.42253   0.35506   0.01267  Uiso   1.00
H123   H     0.84730   0.36047   0.21348   0.01267  Uiso   1.00
H124   H     0.81764   0.32374   0.17840   0.01267  Uiso   1.00
H125   H     0.76369   0.33408   0.27024   0.01267  Uiso   1.00
H126   H     0.91777   0.23112   0.31378   0.01267  Uiso   1.00
H127   H     0.85862   0.17053   0.25360   0.01267  Uiso   1.00
H128   H     0.50522   0.35506   0.42253   0.01267  Uiso   1.00
H129   H     0.57875   0.21348   0.36047   0.01267  Uiso   1.00
H130   H     0.68023   0.17840   0.32374   0.01267  Uiso   1.00
H131   H     0.63199   0.27024   0.33408   0.01267  Uiso   1.00
H132   H     0.53733   0.31378   0.23112   0.01267  Uiso   1.00
H133   H     0.17053   0.85862   0.71724   0.01267  Uiso   1.00
H134   H     0.35506   0.50522   0.71719   0.01267  Uiso   1.00
H135   H     0.21348   0.57875   0.84730   0.01267  Uiso   1.00
H136   H     0.17840   0.68023   0.81764   0.01267  Uiso   1.00
H137   H     0.27024   0.63199   0.76369   0.01267  Uiso   1.00
H138   H     0.31378   0.53733   0.91777   0.01267  Uiso   1.00
H139   H     0.25360   0.71724   0.85862   0.01267  Uiso   1.00
H140   H     0.42253   0.71719   0.50522   0.01267  Uiso   1.00
H141   H     0.36047   0.84730   0.57875   0.01267  Uiso   1.00
H142   H     0.32374   0.81764   0.68023   0.01267  Uiso   1.00
H143   H     0.33408   0.76369   0.63199   0.01267  Uiso   1.00
H144   H     0.23112   0.91777   0.53733   0.01267  Uiso   1.00
H145   H     0.85862   0.71724   0.25360   0.01267  Uiso   1.00
H146   H     0.50522   0.71719   0.42253   0.01267  Uiso   1.00
H147   H     0.57875   0.84730   0.36047   0.01267  Uiso   1.00
H148   H     0.68023   0.81764   0.32374   0.01267  Uiso   1.00
H149   H     0.63199   0.76369   0.33408   0.01267  Uiso   1.00
H150   H     0.53733   0.91777   0.23112   0.01267  Uiso   1.00
H151   H     0.71724   0.85862   0.17053   0.01267  Uiso   1.00
H152   H     0.71719   0.50522   0.35506   0.01267  Uiso   1.00
H153   H     0.84730   0.57875   0.21348   0.01267  Uiso   1.00
H154   H     0.81764   0.68023   0.17840   0.01267  Uiso   1.00
H155   H     0.76369   0.63199   0.27024   0.01267  Uiso   1.00
H156   H     0.91777   0.53733   0.31378   0.01267  Uiso   1.00
H157   H     0.25360   0.17053   0.85862   0.01267  Uiso   1.00
H158   H     0.42253   0.35506   0.50522   0.01267  Uiso   1.00
H159   H     0.36047   0.21348   0.57875   0.01267  Uiso   1.00
H160   H     0.32374   0.17840   0.68023   0.01267  Uiso   1.00
H161   H     0.33408   0.27024   0.63199   0.01267  Uiso   1.00
H162   H     0.23112   0.31378   0.53733   0.01267  Uiso   1.00
H163   H     0.17053   0.25360   0.71724   0.01267  Uiso   1.00
H164   H     0.35506   0.42253   0.71719   0.01267  Uiso   1.00
H165   H     0.21348   0.36047   0.84730   0.01267  Uiso   1.00
H166   H     0.17840   0.32374   0.81764   0.01267  Uiso   1.00
H167   H     0.27024   0.33408   0.76369   0.01267  Uiso   1.00
H168   H     0.31378   0.23112   0.91777   0.01267  Uiso   1.00
H169   H     0.25360   0.85862   0.71724   0.01267  Uiso   1.00
H170   H     0.42253   0.50522   0.71719   0.01267  Uiso   1.00
H171   H     0.36047   0.57875   0.84730   0.01267  Uiso   1.00
H172   H     0.32374   0.68023   0.81764   0.01267  Uiso   1.00
H173   H     0.33408   0.63199   0.76369   0.01267  Uiso   1.00
H174   H     0.23112   0.53733   0.91777   0.01267  Uiso   1.00
H175   H     0.17053   0.71724   0.85862   0.01267  Uiso   1.00
H176   H     0.35506   0.71719   0.50522   0.01267  Uiso   1.00
H177   H     0.21348   0.84730   0.57875   0.01267  Uiso   1.00
H178   H     0.17840   0.81764   0.68023   0.01267  Uiso   1.00
H179   H     0.27024   0.76369   0.63199   0.01267  Uiso   1.00
H180   H     0.31378   0.91777   0.53733   0.01267  Uiso   1.00
H181   H     0.85862   0.25360   0.17053   0.01267  Uiso   1.00
H182   H     0.50522   0.42253   0.35506   0.01267  Uiso   1.00
H183   H     0.57875   0.36047   0.21348   0.01267  Uiso   1.00
H184   H     0.68023   0.32374   0.17840   0.01267  Uiso   1.00
H185   H     0.63199   0.33408   0.27024   0.01267  Uiso   1.00
H186   H     0.53733   0.23112   0.31378   0.01267  Uiso   1.00
H187   H     0.71724   0.17053   0.25360   0.01267  Uiso   1.00
H188   H     0.71719   0.35506   0.42253   0.01267  Uiso   1.00
H189   H     0.84730   0.21348   0.36047   0.01267  Uiso   1.00
H190   H     0.81764   0.17840   0.32374   0.01267  Uiso   1.00
H191   H     0.76369   0.27024   0.33408   0.01267  Uiso   1.00
H192   H     0.91777   0.31378   0.23112   0.01267  Uiso   1.00
H193   H     0.71724   0.25360   0.85862   0.01267  Uiso   1.00
H194   H     0.71719   0.42253   0.50522   0.01267  Uiso   1.00
H195   H     0.84730   0.36047   0.57875   0.01267  Uiso   1.00
H196   H     0.81764   0.32374   0.68023   0.01267  Uiso   1.00
H197   H     0.76369   0.33408   0.63199   0.01267  Uiso   1.00
H198   H     0.91777   0.23112   0.53733   0.01267  Uiso   1.00
H199   H     0.85862   0.17053   0.71724   0.01267  Uiso   1.00
H200   H     0.50522   0.35506   0.71719   0.01267  Uiso   1.00
H201   H     0.57875   0.21348   0.84730   0.01267  Uiso   1.00
H202   H     0.68023   0.17840   0.81764   0.01267  Uiso   1.00
H203   H     0.63199   0.27024   0.76369   0.01267  Uiso   1.00
H204   H     0.53733   0.31378   0.91777   0.01267  Uiso   1.00
H205   H     0.17053   0.85862   0.25360   0.01267  Uiso   1.00
H206   H     0.35506   0.50522   0.42253   0.01267  Uiso   1.00
H207   H     0.21348   0.57875   0.36047   0.01267  Uiso   1.00
H208   H     0.17840   0.68023   0.32374   0.01267  Uiso   1.00
H209   H     0.27024   0.63199   0.33408   0.01267  Uiso   1.00
H210   H     0.31378   0.53733   0.23112   0.01267  Uiso   1.00
H211   H     0.25360   0.71724   0.17053   0.01267  Uiso   1.00
H212   H     0.42253   0.71719   0.35506   0.01267  Uiso   1.00
H213   H     0.36047   0.84730   0.21348   0.01267  Uiso   1.00
H214   H     0.32374   0.81764   0.17840   0.01267  Uiso   1.00
H215   H     0.33408   0.76369   0.27024   0.01267  Uiso   1.00
H216   H     0.23112   0.91777   0.31378   0.01267  Uiso   1.00
H217   H     0.39138   0.53276   0.07947   0.01267  Uiso   1.00
H218   H     0.74478   0.53281   0.89494   0.01267  Uiso   1.00
H219   H     0.67125   0.40270   0.03652   0.01267  Uiso   1.00
H220   H     0.56977   0.43236   0.07160   0.01267  Uiso   1.00
H221   H     0.61801   0.48631   0.97976   0.01267  Uiso   1.00
H222   H     0.71267   0.33223   0.93622   0.01267  Uiso   1.00
H223   H     0.53276   0.39138   0.99640   0.01267  Uiso   1.00
H224   H     0.53281   0.74478   0.82747   0.01267  Uiso   1.00
H225   H     0.40270   0.67125   0.88953   0.01267  Uiso   1.00
H226   H     0.43236   0.56977   0.92626   0.01267  Uiso   1.00
H227   H     0.48631   0.61801   0.91592   0.01267  Uiso   1.00
H228   H     0.33223   0.71267   0.01888   0.01267  Uiso   1.00
H229   H     0.99640   0.07947   0.53276   0.01267  Uiso   1.00
H230   H     0.82747   0.89494   0.53281   0.01267  Uiso   1.00
H231   H     0.88953   0.03652   0.40270   0.01267  Uiso   1.00
H232   H     0.92626   0.07160   0.43236   0.01267  Uiso   1.00
H233   H     0.91592   0.97976   0.48631   0.01267  Uiso   1.00
H234   H     0.01888   0.93622   0.33223   0.01267  Uiso   1.00
H235   H     0.07947   0.99640   0.39138   0.01267  Uiso   1.00
H236   H     0.89494   0.82747   0.74478   0.01267  Uiso   1.00
H237   H     0.03652   0.88953   0.67125   0.01267  Uiso   1.00
H238   H     0.07160   0.92626   0.56977   0.01267  Uiso   1.00
H239   H     0.97976   0.91592   0.61801   0.01267  Uiso   1.00
H240   H     0.93622   0.01888   0.71267   0.01267  Uiso   1.00
H241   H     0.99640   0.39138   0.07947   0.01267  Uiso   1.00
H242   H     0.82747   0.74478   0.89494   0.01267  Uiso   1.00
H243   H     0.88953   0.67125   0.03652   0.01267  Uiso   1.00
H244   H     0.92626   0.56977   0.07160   0.01267  Uiso   1.00
H245   H     0.91592   0.61801   0.97976   0.01267  Uiso   1.00
H246   H     0.01888   0.71267   0.93622   0.01267  Uiso   1.00
H247   H     0.07947   0.53276   0.99640   0.01267  Uiso   1.00
H248   H     0.89494   0.53281   0.82747   0.01267  Uiso   1.00
H249   H     0.03652   0.40270   0.88953   0.01267  Uiso   1.00
H250   H     0.07160   0.43236   0.92626   0.01267  Uiso   1.00
H251   H     0.97976   0.48631   0.91592   0.01267  Uiso   1.00
H252   H     0.93622   0.33223   0.01888   0.01267  Uiso   1.00
H253   H     0.39138   0.99640   0.53276   0.01267  Uiso   1.00
H254   H     0.74478   0.82747   0.53281   0.01267  Uiso   1.00
H255   H     0.67125   0.88953   0.40270   0.01267  Uiso   1.00
H256   H     0.56977   0.92626   0.43236   0.01267  Uiso   1.00
H257   H     0.61801   0.91592   0.48631   0.01267  Uiso   1.00
H258   H     0.71267   0.01888   0.33223   0.01267  Uiso   1.00
H259   H     0.53276   0.07947   0.39138   0.01267  Uiso   1.00
H260   H     0.53281   0.89494   0.74478   0.01267  Uiso   1.00
H261   H     0.40270   0.03652   0.67125   0.01267  Uiso   1.00
H262   H     0.43236   0.07160   0.56977   0.01267  Uiso   1.00
H263   H     0.48631   0.97976   0.61801   0.01267  Uiso   1.00
H264   H     0.33223   0.93622   0.71267   0.01267  Uiso   1.00
H265   H     0.53276   0.99640   0.07947   0.01267  Uiso   1.00
H266   H     0.53281   0.82747   0.89494   0.01267  Uiso   1.00
H267   H     0.40270   0.88953   0.03652   0.01267  Uiso   1.00
H268   H     0.43236   0.92626   0.07160   0.01267  Uiso   1.00
H269   H     0.48631   0.91592   0.97976   0.01267  Uiso   1.00
H270   H     0.33223   0.01888   0.93622   0.01267  Uiso   1.00
H271   H     0.39138   0.07947   0.99640   0.01267  Uiso   1.00
H272   H     0.74478   0.89494   0.82747   0.01267  Uiso   1.00
H273   H     0.67125   0.03652   0.88953   0.01267  Uiso   1.00
H274   H     0.56977   0.07160   0.92626   0.01267  Uiso   1.00
H275   H     0.61801   0.97976   0.91592   0.01267  Uiso   1.00
H276   H     0.71267   0.93622   0.01888   0.01267  Uiso   1.00
H277   H     0.07947   0.39138   0.53276   0.01267  Uiso   1.00
H278   H     0.89494   0.74478   0.53281   0.01267  Uiso   1.00
H279   H     0.03652   0.67125   0.40270   0.01267  Uiso   1.00
H280   H     0.07160   0.56977   0.43236   0.01267  Uiso   1.00
H281   H     0.97976   0.61801   0.48631   0.01267  Uiso   1.00
H282   H     0.93622   0.71267   0.33223   0.01267  Uiso   1.00
H283   H     0.99640   0.53276   0.39138   0.01267  Uiso   1.00
H284   H     0.82747   0.53281   0.74478   0.01267  Uiso   1.00
H285   H     0.88953   0.40270   0.67125   0.01267  Uiso   1.00
H286   H     0.92626   0.43236   0.56977   0.01267  Uiso   1.00
H287   H     0.91592   0.48631   0.61801   0.01267  Uiso   1.00
H288   H     0.01888   0.33223   0.71267   0.01267  Uiso   1.00
H289   H     0.66364   0.27900   0.02868   0.01267  Uiso   1.00
H290   H     0.27900   0.66364   0.02868   0.01267  Uiso   1.00
H291   H     0.02868   0.02868   0.66364   0.01267  Uiso   1.00
H292   H     0.02868   0.02868   0.27900   0.01267  Uiso   1.00
H293   H     0.02868   0.66364   0.27900   0.01267  Uiso   1.00
H294   H     0.02868   0.27900   0.66364   0.01267  Uiso   1.00
H295   H     0.66364   0.02868   0.02868   0.01267  Uiso   1.00
H296   H     0.27900   0.02868   0.02868   0.01267  Uiso   1.00
H297   H     0.27900   0.02868   0.66364   0.01267  Uiso   1.00
H298   H     0.66364   0.02868   0.27900   0.01267  Uiso   1.00
H299   H     0.02868   0.66364   0.02868   0.01267  Uiso   1.00
H300   H     0.02868   0.27900   0.02868   0.01267  Uiso   1.00
H301   H     0.58636   0.97100   0.22132   0.01267  Uiso   1.00
H302   H     0.97100   0.58636   0.22132   0.01267  Uiso   1.00
H303   H     0.22132   0.22132   0.97100   0.01267  Uiso   1.00
H304   H     0.22132   0.22132   0.58636   0.01267  Uiso   1.00
H305   H     0.22132   0.58636   0.22132   0.01267  Uiso   1.00
H306   H     0.22132   0.97100   0.22132   0.01267  Uiso   1.00
H307   H     0.58636   0.22132   0.97100   0.01267  Uiso   1.00
H308   H     0.97100   0.22132   0.58636   0.01267  Uiso   1.00
H309   H     0.97100   0.22132   0.22132   0.01267  Uiso   1.00
H310   H     0.58636   0.22132   0.22132   0.01267  Uiso   1.00
H311   H     0.22132   0.58636   0.97100   0.01267  Uiso   1.00
H312   H     0.22132   0.97100   0.58636   0.01267  Uiso   1.00
H313   H     0.30719   0.58672   0.05305   0.01267  Uiso   1.00
H314   H     0.58672   0.30719   0.05305   0.01267  Uiso   1.00
H315   H     0.05305   0.05305   0.30719   0.01267  Uiso   1.00
H316   H     0.05305   0.05305   0.58672   0.01267  Uiso   1.00
H317   H     0.05305   0.30719   0.58672   0.01267  Uiso   1.00
H318   H     0.05305   0.58672   0.30719   0.01267  Uiso   1.00
H319   H     0.30719   0.05305   0.05305   0.01267  Uiso   1.00
H320   H     0.58672   0.05305   0.05305   0.01267  Uiso   1.00
H321   H     0.58672   0.05305   0.30719   0.01267  Uiso   1.00
H322   H     0.30719   0.05305   0.58672   0.01267  Uiso   1.00
H323   H     0.05305   0.30719   0.05305   0.01267  Uiso   1.00
H324   H     0.05305   0.58672   0.05305   0.01267  Uiso   1.00
H325   H     0.94281   0.66328   0.19695   0.01267  Uiso   1.00
H326   H     0.66328   0.94281   0.19695   0.01267  Uiso   1.00
H327   H     0.19695   0.19695   0.66328   0.01267  Uiso   1.00
H328   H     0.19695   0.19695   0.94281   0.01267  Uiso   1.00
H329   H     0.19695   0.94281   0.19695   0.01267  Uiso   1.00
H330   H     0.19695   0.66328   0.19695   0.01267  Uiso   1.00
H331   H     0.94281   0.19695   0.66328   0.01267  Uiso   1.00
H332   H     0.66328   0.19695   0.94281   0.01267  Uiso   1.00
H333   H     0.66328   0.19695   0.19695   0.01267  Uiso   1.00
H334   H     0.94281   0.19695   0.19695   0.01267  Uiso   1.00
H335   H     0.19695   0.94281   0.66328   0.01267  Uiso   1.00
H336   H     0.19695   0.66328   0.94281   0.01267  Uiso   1.00
H337   H     0.69189   0.69189   0.77478   0.01267  Uiso   1.00
H338   H     0.69189   0.69189   0.84144   0.01267  Uiso   1.00
H339   H     0.77478   0.84144   0.69189   0.01267  Uiso   1.00
H340   H     0.84144   0.77478   0.69189   0.01267  Uiso   1.00
H341   H     0.77478   0.69189   0.69189   0.01267  Uiso   1.00
H342   H     0.84144   0.69189   0.69189   0.01267  Uiso   1.00
H343   H     0.69189   0.77478   0.84144   0.01267  Uiso   1.00
H344   H     0.69189   0.84144   0.77478   0.01267  Uiso   1.00
H345   H     0.69189   0.77478   0.69189   0.01267  Uiso   1.00
H346   H     0.69189   0.84144   0.69189   0.01267  Uiso   1.00
H347   H     0.84144   0.69189   0.77478   0.01267  Uiso   1.00
H348   H     0.77478   0.69189   0.84144   0.01267  Uiso   1.00
H349   H     0.55811   0.55811   0.40856   0.01267  Uiso   1.00
H350   H     0.55811   0.55811   0.47522   0.01267  Uiso   1.00
H351   H     0.47522   0.40856   0.55811   0.01267  Uiso   1.00
H352   H     0.40856   0.47522   0.55811   0.01267  Uiso   1.00
H353   H     0.47522   0.55811   0.40856   0.01267  Uiso   1.00
H354   H     0.40856   0.55811   0.47522   0.01267  Uiso   1.00
H355   H     0.55811   0.47522   0.55811   0.01267  Uiso   1.00
H356   H     0.55811   0.40856   0.55811   0.01267  Uiso   1.00
H357   H     0.55811   0.47522   0.40856   0.01267  Uiso   1.00
H358   H     0.55811   0.40856   0.47522   0.01267  Uiso   1.00
H359   H     0.40856   0.55811   0.55811   0.01267  Uiso   1.00
H360   H     0.47522   0.55811   0.55811   0.01267  Uiso   1.00
H361   H     0.84382   0.38541   0.84382   0.01267  Uiso   1.00
H362   H     0.80050   0.44940   0.80050   0.01267  Uiso   1.00
H363   H     0.38541   0.84382   0.92695   0.01267  Uiso   1.00
H364   H     0.44940   0.80050   0.94959   0.01267  Uiso   1.00
H365   H     0.84382   0.92695   0.84382   0.01267  Uiso   1.00
H366   H     0.80050   0.94959   0.80050   0.01267  Uiso   1.00
H367   H     0.92695   0.84382   0.38541   0.01267  Uiso   1.00
H368   H     0.94959   0.80050   0.44940   0.01267  Uiso   1.00
H369   H     0.84382   0.84382   0.38541   0.01267  Uiso   1.00
H370   H     0.80050   0.80050   0.44940   0.01267  Uiso   1.00
H371   H     0.92695   0.38541   0.84382   0.01267  Uiso   1.00
H372   H     0.94959   0.44940   0.80050   0.01267  Uiso   1.00
H373   H     0.84382   0.84382   0.92695   0.01267  Uiso   1.00
H374   H     0.80050   0.80050   0.94959   0.01267  Uiso   1.00
H375   H     0.38541   0.92695   0.84382   0.01267  Uiso   1.00
H376   H     0.44940   0.94959   0.80050   0.01267  Uiso   1.00
H377   H     0.38541   0.84382   0.84382   0.01267  Uiso   1.00
H378   H     0.44940   0.80050   0.80050   0.01267  Uiso   1.00
H379   H     0.84382   0.92695   0.38541   0.01267  Uiso   1.00
H380   H     0.80050   0.94959   0.44940   0.01267  Uiso   1.00
H381   H     0.92695   0.84382   0.84382   0.01267  Uiso   1.00
H382   H     0.94959   0.80050   0.80050   0.01267  Uiso   1.00
H383   H     0.84382   0.38541   0.92695   0.01267  Uiso   1.00
H384   H     0.80050   0.44940   0.94959   0.01267  Uiso   1.00
H385   H     0.40618   0.86459   0.32305   0.01267  Uiso   1.00
H386   H     0.44950   0.80060   0.30041   0.01267  Uiso   1.00
H387   H     0.86459   0.40618   0.40618   0.01267  Uiso   1.00
H388   H     0.80060   0.44950   0.44950   0.01267  Uiso   1.00
H389   H     0.40618   0.32305   0.86459   0.01267  Uiso   1.00
H390   H     0.44950   0.30041   0.80060   0.01267  Uiso   1.00
H391   H     0.32305   0.40618   0.40618   0.01267  Uiso   1.00
H392   H     0.30041   0.44950   0.44950   0.01267  Uiso   1.00
H393   H     0.40618   0.40618   0.32305   0.01267  Uiso   1.00
H394   H     0.44950   0.44950   0.30041   0.01267  Uiso   1.00
H395   H     0.32305   0.86459   0.40618   0.01267  Uiso   1.00
H396   H     0.30041   0.80060   0.44950   0.01267  Uiso   1.00
H397   H     0.40618   0.40618   0.86459   0.01267  Uiso   1.00
H398   H     0.44950   0.44950   0.80060   0.01267  Uiso   1.00
H399   H     0.86459   0.32305   0.40618   0.01267  Uiso   1.00
H400   H     0.80060   0.30041   0.44950   0.01267  Uiso   1.00
H401   H     0.86459   0.40618   0.32305   0.01267  Uiso   1.00
H402   H     0.80060   0.44950   0.30041   0.01267  Uiso   1.00
H403   H     0.40618   0.32305   0.40618   0.01267  Uiso   1.00
H404   H     0.44950   0.30041   0.44950   0.01267  Uiso   1.00
H405   H     0.32305   0.40618   0.86459   0.01267  Uiso   1.00
H406   H     0.30041   0.44950   0.80060   0.01267  Uiso   1.00
H407   H     0.40618   0.86459   0.40618   0.01267  Uiso   1.00
H408   H     0.44950   0.80060   0.44950   0.01267  Uiso   1.00
