data_CIMTAV_charged
_audit_creation_date              2015-10-16
_audit_creation_method            'Materials Studio'
_symmetry_space_group_name_H-M    'P1'
_symmetry_Int_Tables_number       1
_symmetry_cell_setting            triclinic
loop_
_symmetry_equiv_pos_as_xyz
  x,y,z
_cell_length_a                    18.4835
_cell_length_b                    27.1472
_cell_length_c                    37.9270
_cell_angle_alpha                 90.0000
_cell_angle_beta                  90.0000
_cell_angle_gamma                 90.0000
loop_
_atom_site_label
_atom_site_type_symbol
_atom_site_fract_x
_atom_site_fract_y
_atom_site_fract_z
_atom_site_U_iso_or_equiv
_atom_site_adp_type
_atom_site_occupancy
La1    La    0.37381   0.25913   0.97661   0.01267  Uiso   1.00
La2    La    0.12619   0.75913   0.52339   0.01267  Uiso   1.00
La3    La    0.87381   0.75913   0.02339   0.01267  Uiso   1.00
La4    La    0.61948   0.74851   0.90057   0.01267  Uiso   1.00
La5    La    0.62619   0.74087   0.02339   0.01267  Uiso   1.00
La6    La    0.61948   0.25149   0.59943   0.01267  Uiso   1.00
La7    La    0.88052   0.75149   0.90057   0.01267  Uiso   1.00
La8    La    0.87381   0.24087   0.47661   0.01267  Uiso   1.00
La9    La    0.88052   0.24851   0.59943   0.01267  Uiso   1.00
La10   La    0.11948   0.75149   0.40057   0.01267  Uiso   1.00
La11   La    0.12619   0.24087   0.97661   0.01267  Uiso   1.00
La12   La    0.62619   0.25913   0.47661   0.01267  Uiso   1.00
La13   La    0.38052   0.74851   0.40057   0.01267  Uiso   1.00
La14   La    0.11948   0.24851   0.09943   0.01267  Uiso   1.00
La15   La    0.37381   0.74087   0.52339   0.01267  Uiso   1.00
La16   La    0.38052   0.25149   0.09943   0.01267  Uiso   1.00
B1     B     0.25580   0.93660   0.96750   0.01267  Uiso   1.00
B2     B     0.75000   0.25000   0.82500   0.01267  Uiso   1.00
B3     B     0.25000   0.75000   0.17500   0.01267  Uiso   1.00
B4     B     0.25000   0.25000   0.32500   0.01267  Uiso   1.00
B5     B     0.75580   0.43660   0.03250   0.01267  Uiso   1.00
B6     B     0.74420   0.06340   0.03250   0.01267  Uiso   1.00
B7     B     0.74420   0.93660   0.46750   0.01267  Uiso   1.00
B8     B     0.25000   0.75000   0.75320   0.01267  Uiso   1.00
B9     B     0.25580   0.06340   0.53250   0.01267  Uiso   1.00
B10    B     0.75000   0.75000   0.67500   0.01267  Uiso   1.00
B11    B     0.25000   0.25000   0.74680   0.01267  Uiso   1.00
B12    B     0.24420   0.56340   0.96750   0.01267  Uiso   1.00
B13    B     0.75000   0.75000   0.25320   0.01267  Uiso   1.00
B14    B     0.75580   0.56340   0.46750   0.01267  Uiso   1.00
B15    B     0.24420   0.43660   0.53250   0.01267  Uiso   1.00
B16    B     0.75000   0.25000   0.24680   0.01267  Uiso   1.00
H1     H     0.72830   0.35650   0.18700   0.01267  Uiso   1.00
H2     H     0.29080   0.63560   0.47250   0.01267  Uiso   1.00
H3     H     0.22660   0.80420   0.10850   0.01267  Uiso   1.00
H4     H     0.27160   0.15160   0.49210   0.01267  Uiso   1.00
H5     H     0.75620   0.15210   0.37990   0.01267  Uiso   1.00
H6     H     0.65080   0.17360   0.79670   0.01267  Uiso   1.00
H7     H     0.65310   0.80020   0.22060   0.01267  Uiso   1.00
H8     H     0.85820   0.48100   0.39780   0.01267  Uiso   1.00
H9     H     0.36770   0.82780   0.05990   0.01267  Uiso   1.00
H10    H     0.67590   0.09560   0.39470   0.01267  Uiso   1.00
H11    H     0.47280   0.61730   0.09960   0.01267  Uiso   1.00
H12    H     0.61850   0.20870   0.10150   0.01267  Uiso   1.00
H13    H     0.82410   0.40440   0.39470   0.01267  Uiso   1.00
H14    H     0.40300   0.48540   0.58140   0.01267  Uiso   1.00
H15    H     0.55000   0.83500   0.56860   0.01267  Uiso   1.00
H16    H     0.88150   0.70870   0.39850   0.01267  Uiso   1.00
H17    H     0.36770   0.17220   0.44010   0.01267  Uiso   1.00
H18    H     0.60820   0.13180   0.91300   0.01267  Uiso   1.00
H19    H     0.29270   0.85550   0.89330   0.01267  Uiso   1.00
H20    H     0.89100   0.84290   0.68070   0.01267  Uiso   1.00
H21    H     0.06490   0.73270   0.92550   0.01267  Uiso   1.00
H22    H     0.00500   0.40140   0.96700   0.01267  Uiso   1.00
H23    H     0.44460   0.27660   0.49280   0.01267  Uiso   1.00
H24    H     0.84240   0.52430   0.51240   0.01267  Uiso   1.00
H25    H     0.14890   0.90460   0.46830   0.01267  Uiso   1.00
H26    H     0.26760   0.86470   0.28680   0.01267  Uiso   1.00
H27    H     0.46350   0.19190   0.20380   0.01267  Uiso   1.00
H28    H     0.77340   0.19580   0.89150   0.01267  Uiso   1.00
H29    H     0.18490   0.86210   0.69720   0.01267  Uiso   1.00
H30    H     0.77170   0.14350   0.18700   0.01267  Uiso   1.00
H31    H     0.85110   0.09540   0.53170   0.01267  Uiso   1.00
H32    H     0.70920   0.63560   0.97250   0.01267  Uiso   1.00
H33    H     0.38790   0.96650   0.43420   0.01267  Uiso   1.00
H34    H     0.11210   0.53350   0.43420   0.01267  Uiso   1.00
H35    H     0.06950   0.70880   0.71820   0.01267  Uiso   1.00
H36    H     0.97280   0.11730   0.90040   0.01267  Uiso   1.00
H37    H     0.71960   0.18310   0.20300   0.01267  Uiso   1.00
H38    H     0.33490   0.68780   0.20250   0.01267  Uiso   1.00
H39    H     0.06180   0.86020   0.06550   0.01267  Uiso   1.00
H40    H     0.35110   0.59540   0.46830   0.01267  Uiso   1.00
H41    H     0.31440   0.54080   0.02240   0.01267  Uiso   1.00
H42    H     0.74810   0.84480   0.63520   0.01267  Uiso   1.00
H43    H     0.15310   0.30020   0.77940   0.01267  Uiso   1.00
H44    H     0.15080   0.67360   0.20330   0.01267  Uiso   1.00
H45    H     0.59700   0.51460   0.41860   0.01267  Uiso   1.00
H46    H     0.27340   0.69580   0.10850   0.01267  Uiso   1.00
H47    H     0.15270   0.65490   0.28800   0.01267  Uiso   1.00
H48    H     0.37990   0.61900   0.54040   0.01267  Uiso   1.00
H49    H     0.81510   0.13790   0.30280   0.01267  Uiso   1.00
H50    H     0.22660   0.19580   0.39150   0.01267  Uiso   1.00
H51    H     0.48870   0.92050   0.36220   0.01267  Uiso   1.00
H52    H     0.98900   0.37400   0.61330   0.01267  Uiso   1.00
H53    H     0.27230   0.14940   0.29760   0.01267  Uiso   1.00
H54    H     0.72240   0.59000   0.94800   0.01267  Uiso   1.00
H55    H     0.33660   0.87920   0.43360   0.01267  Uiso   1.00
H56    H     0.75190   0.65520   0.63520   0.01267  Uiso   1.00
H57    H     0.98190   0.93780   0.01100   0.01267  Uiso   1.00
H58    H     0.54900   0.01990   0.59160   0.01267  Uiso   1.00
H59    H     0.78040   0.31690   0.20300   0.01267  Uiso   1.00
H60    H     0.04410   0.91780   0.43330   0.01267  Uiso   1.00
H61    H     0.34690   0.80020   0.72060   0.01267  Uiso   1.00
H62    H     0.43820   0.36020   0.43450   0.01267  Uiso   1.00
H63    H     0.22910   0.88090   0.03510   0.01267  Uiso   1.00
H64    H     0.99720   0.18120   0.32530   0.01267  Uiso   1.00
H65    H     0.10460   0.40990   0.91680   0.01267  Uiso   1.00
H66    H     0.27170   0.35650   0.68700   0.01267  Uiso   1.00
H67    H     0.92270   0.08490   0.92440   0.01267  Uiso   1.00
H68    H     0.14180   0.51900   0.60220   0.01267  Uiso   1.00
H69    H     0.55540   0.27660   0.99280   0.01267  Uiso   1.00
H70    H     0.68810   0.36310   0.35060   0.01267  Uiso   1.00
H71    H     0.01130   0.93830   0.90560   0.01267  Uiso   1.00
H72    H     0.01520   0.11650   0.09690   0.01267  Uiso   1.00
H73    H     0.95000   0.66500   0.56860   0.01267  Uiso   1.00
H74    H     0.83490   0.81220   0.70250   0.01267  Uiso   1.00
H75    H     0.34310   0.31060   0.62380   0.01267  Uiso   1.00
H76    H     0.36400   0.55260   0.89390   0.01267  Uiso   1.00
H77    H     0.46430   0.92990   0.50030   0.01267  Uiso   1.00
H78    H     0.29030   0.67500   0.03070   0.01267  Uiso   1.00
H79    H     0.01100   0.62600   0.38670   0.01267  Uiso   1.00
H80    H     0.98480   0.88350   0.90310   0.01267  Uiso   1.00
H81    H     0.55540   0.72340   0.50720   0.01267  Uiso   1.00
H82    H     0.72840   0.84840   0.50790   0.01267  Uiso   1.00
H83    H     0.83930   0.17160   0.27130   0.01267  Uiso   1.00
H84    H     0.88890   0.44330   0.96190   0.01267  Uiso   1.00
H85    H     0.13020   0.14310   0.64480   0.01267  Uiso   1.00
H86    H     0.65080   0.82640   0.70330   0.01267  Uiso   1.00
H87    H     0.51100   0.12600   0.61330   0.01267  Uiso   1.00
H88    H     0.81440   0.95920   0.52240   0.01267  Uiso   1.00
H89    H     0.90300   0.01460   0.08140   0.01267  Uiso   1.00
H90    H     0.76760   0.36470   0.71320   0.01267  Uiso   1.00
H91    H     0.15310   0.69980   0.72060   0.01267  Uiso   1.00
H92    H     0.51130   0.43830   0.09440   0.01267  Uiso   1.00
H93    H     0.99500   0.59860   0.03300   0.01267  Uiso   1.00
H94    H     0.32410   0.09560   0.89470   0.01267  Uiso   1.00
H95    H     0.53650   0.80810   0.79620   0.01267  Uiso   1.00
H96    H     0.04900   0.51990   0.40840   0.01267  Uiso   1.00
H97    H     0.18560   0.04080   0.47760   0.01267  Uiso   1.00
H98    H     0.40040   0.16550   0.75870   0.01267  Uiso   1.00
H99    H     0.77760   0.91000   0.94800   0.01267  Uiso   1.00
H100   H     0.06490   0.26730   0.57450   0.01267  Uiso   1.00
H101   H     0.77230   0.35060   0.79760   0.01267  Uiso   1.00
H102   H     0.28040   0.81690   0.79700   0.01267  Uiso   1.00
H103   H     0.29770   0.02150   0.60130   0.01267  Uiso   1.00
H104   H     0.66070   0.67160   0.22870   0.01267  Uiso   1.00
H105   H     0.66420   0.32810   0.38130   0.01267  Uiso   1.00
H106   H     0.39100   0.34290   0.31930   0.01267  Uiso   1.00
H107   H     0.48190   0.43780   0.98900   0.01267  Uiso   1.00
H108   H     0.70230   0.02150   0.10130   0.01267  Uiso   1.00
H109   H     0.52580   0.53440   0.54030   0.01267  Uiso   1.00
H110   H     0.45100   0.98010   0.40840   0.01267  Uiso   1.00
H111   H     0.07390   0.82170   0.87310   0.01267  Uiso   1.00
H112   H     0.61210   0.03350   0.56580   0.01267  Uiso   1.00
H113   H     0.89100   0.15710   0.81930   0.01267  Uiso   1.00
H114   H     0.61110   0.94330   0.53810   0.01267  Uiso   1.00
H115   H     0.03880   0.43750   0.06420   0.01267  Uiso   1.00
H116   H     0.63020   0.64310   0.35520   0.01267  Uiso   1.00
H117   H     0.55900   0.46660   0.45920   0.01267  Uiso   1.00
H118   H     0.55580   0.23850   0.72640   0.01267  Uiso   1.00
H119   H     0.43050   0.20880   0.78180   0.01267  Uiso   1.00
H120   H     0.79030   0.82500   0.53070   0.01267  Uiso   1.00
H121   H     0.84920   0.67360   0.70330   0.01267  Uiso   1.00
H122   H     0.29060   0.49980   0.04910   0.01267  Uiso   1.00
H123   H     0.66420   0.67190   0.11870   0.01267  Uiso   1.00
H124   H     0.04900   0.48010   0.09160   0.01267  Uiso   1.00
H125   H     0.22830   0.85650   0.81300   0.01267  Uiso   1.00
H126   H     0.45100   0.01990   0.09160   0.01267  Uiso   1.00
H127   H     0.29080   0.36440   0.02750   0.01267  Uiso   1.00
H128   H     0.58200   0.30600   0.79040   0.01267  Uiso   1.00
H129   H     0.33580   0.32810   0.88130   0.01267  Uiso   1.00
H130   H     0.94100   0.96660   0.04080   0.01267  Uiso   1.00
H131   H     0.04410   0.08220   0.06670   0.01267  Uiso   1.00
H132   H     0.10900   0.15710   0.31930   0.01267  Uiso   1.00
H133   H     0.94100   0.03340   0.45920   0.01267  Uiso   1.00
H134   H     0.25620   0.65210   0.62010   0.01267  Uiso   1.00
H135   H     0.00280   0.18120   0.82530   0.01267  Uiso   1.00
H136   H     0.48870   0.56170   0.90560   0.01267  Uiso   1.00
H137   H     0.56100   0.12460   0.64660   0.01267  Uiso   1.00
H138   H     0.66340   0.12080   0.56640   0.01267  Uiso   1.00
H139   H     0.43510   0.23270   0.57450   0.01267  Uiso   1.00
H140   H     0.33930   0.67160   0.72870   0.01267  Uiso   1.00
H141   H     0.15270   0.34510   0.21200   0.01267  Uiso   1.00
H142   H     0.01100   0.37400   0.11330   0.01267  Uiso   1.00
H143   H     0.61210   0.96650   0.93420   0.01267  Uiso   1.00
H144   H     0.59960   0.83450   0.24130   0.01267  Uiso   1.00
H145   H     0.07730   0.91510   0.07560   0.01267  Uiso   1.00
H146   H     0.55000   0.16500   0.93140   0.01267  Uiso   1.00
H147   H     0.31190   0.36310   0.85060   0.01267  Uiso   1.00
H148   H     0.12010   0.11900   0.95960   0.01267  Uiso   1.00
H149   H     0.47420   0.46560   0.45970   0.01267  Uiso   1.00
H150   H     0.37990   0.38100   0.95960   0.01267  Uiso   1.00
H151   H     0.84310   0.81060   0.37620   0.01267  Uiso   1.00
H152   H     0.93510   0.26730   0.07450   0.01267  Uiso   1.00
H153   H     0.44100   0.53340   0.54080   0.01267  Uiso   1.00
H154   H     0.63670   0.50560   0.97180   0.01267  Uiso   1.00
H155   H     0.25620   0.34790   0.87990   0.01267  Uiso   1.00
H156   H     0.26670   0.37550   0.58090   0.01267  Uiso   1.00
H157   H     0.15760   0.52430   0.01240   0.01267  Uiso   1.00
H158   H     0.22910   0.11910   0.46490   0.01267  Uiso   1.00
H159   H     0.44420   0.72250   0.66170   0.01267  Uiso   1.00
H160   H     0.61850   0.79130   0.39850   0.01267  Uiso   1.00
H161   H     0.36330   0.49440   0.02820   0.01267  Uiso   1.00
H162   H     0.27090   0.61910   0.03510   0.01267  Uiso   1.00
H163   H     0.26030   0.34930   0.77260   0.01267  Uiso   1.00
H164   H     0.07390   0.17830   0.62690   0.01267  Uiso   1.00
H165   H     0.82410   0.59560   0.10530   0.01267  Uiso   1.00
H166   H     0.39320   0.30000   0.46450   0.01267  Uiso   1.00
H167   H     0.97280   0.88270   0.59960   0.01267  Uiso   1.00
H168   H     0.92270   0.91510   0.57560   0.01267  Uiso   1.00
H169   H     0.98190   0.06220   0.48900   0.01267  Uiso   1.00
H170   H     0.74380   0.65210   0.12010   0.01267  Uiso   1.00
H171   H     0.64180   0.01900   0.39780   0.01267  Uiso   1.00
H172   H     0.06100   0.37540   0.14660   0.01267  Uiso   1.00
H173   H     0.15520   0.63580   0.57740   0.01267  Uiso   1.00
H174   H     0.29060   0.50020   0.45090   0.01267  Uiso   1.00
H175   H     0.22240   0.91000   0.44800   0.01267  Uiso   1.00
H176   H     0.84920   0.32640   0.79670   0.01267  Uiso   1.00
H177   H     0.26670   0.62450   0.91910   0.01267  Uiso   1.00
H178   H     0.64850   0.23660   0.06840   0.01267  Uiso   1.00
H179   H     0.75400   0.31950   0.08040   0.01267  Uiso   1.00
H180   H     0.86400   0.05260   0.10610   0.01267  Uiso   1.00
H181   H     0.71870   0.84490   0.59640   0.01267  Uiso   1.00
H182   H     0.44670   0.87380   0.50530   0.01267  Uiso   1.00
H183   H     0.31900   0.47790   0.57870   0.01267  Uiso   1.00
H184   H     0.61110   0.05670   0.96190   0.01267  Uiso   1.00
H185   H     0.01420   0.30560   0.24370   0.01267  Uiso   1.00
H186   H     0.44420   0.76150   0.27360   0.01267  Uiso   1.00
H187   H     0.55580   0.76150   0.77360   0.01267  Uiso   1.00
H188   H     0.22770   0.64940   0.20240   0.01267  Uiso   1.00
H189   H     0.73240   0.86470   0.78680   0.01267  Uiso   1.00
H190   H     0.13940   0.76940   0.00420   0.01267  Uiso   1.00
H191   H     0.18810   0.13690   0.85060   0.01267  Uiso   1.00
H192   H     0.05900   0.03340   0.95920   0.01267  Uiso   1.00
H193   H     0.56490   0.76730   0.42550   0.01267  Uiso   1.00
H194   H     0.10820   0.63180   0.08700   0.01267  Uiso   1.00
H195   H     0.32410   0.90440   0.60530   0.01267  Uiso   1.00
H196   H     0.68560   0.45920   0.97760   0.01267  Uiso   1.00
H197   H     0.94460   0.22340   0.99280   0.01267  Uiso   1.00
H198   H     0.20940   0.99980   0.45090   0.01267  Uiso   1.00
H199   H     0.96430   0.42990   0.49970   0.01267  Uiso   1.00
H200   H     0.17590   0.59560   0.60530   0.01267  Uiso   1.00
H201   H     0.38150   0.20870   0.60150   0.01267  Uiso   1.00
H202   H     0.83580   0.82810   0.11870   0.01267  Uiso   1.00
H203   H     0.39540   0.90990   0.58320   0.01267  Uiso   1.00
H204   H     0.51130   0.56170   0.40560   0.01267  Uiso   1.00
H205   H     0.12010   0.88100   0.54040   0.01267  Uiso   1.00
H206   H     0.98580   0.30560   0.74370   0.01267  Uiso   1.00
H207   H     0.72840   0.15160   0.99210   0.01267  Uiso   1.00
H208   H     0.08200   0.19400   0.29040   0.01267  Uiso   1.00
H209   H     0.68810   0.63690   0.14940   0.01267  Uiso   1.00
H210   H     0.35150   0.23660   0.56840   0.01267  Uiso   1.00
H211   H     0.25400   0.81950   0.91960   0.01267  Uiso   1.00
H212   H     0.27090   0.38090   0.46490   0.01267  Uiso   1.00
H213   H     0.29030   0.32500   0.46930   0.01267  Uiso   1.00
H214   H     0.25190   0.84480   0.13520   0.01267  Uiso   1.00
H215   H     0.96120   0.56250   0.93580   0.01267  Uiso   1.00
H216   H     0.22840   0.34840   0.49210   0.01267  Uiso   1.00
H217   H     0.03650   0.69190   0.29620   0.01267  Uiso   1.00
H218   H     0.53650   0.19190   0.70380   0.01267  Uiso   1.00
H219   H     0.72660   0.30420   0.89150   0.01267  Uiso   1.00
H220   H     0.74810   0.15520   0.86480   0.01267  Uiso   1.00
H221   H     0.72240   0.41000   0.55200   0.01267  Uiso   1.00
H222   H     0.53880   0.06250   0.56420   0.01267  Uiso   1.00
H223   H     0.65520   0.86420   0.07740   0.01267  Uiso   1.00
H224   H     0.20940   0.00020   0.04910   0.01267  Uiso   1.00
H225   H     0.10460   0.59010   0.58320   0.01267  Uiso   1.00
H226   H     0.84690   0.69980   0.22060   0.01267  Uiso   1.00
H227   H     0.72910   0.38090   0.96490   0.01267  Uiso   1.00
H228   H     0.95590   0.08220   0.56670   0.01267  Uiso   1.00
H229   H     0.62010   0.61900   0.04040   0.01267  Uiso   1.00
H230   H     0.56180   0.36020   0.93450   0.01267  Uiso   1.00
H231   H     0.78130   0.34490   0.90360   0.01267  Uiso   1.00
H232   H     0.52790   0.68240   0.13530   0.01267  Uiso   1.00
H233   H     0.65690   0.68940   0.37620   0.01267  Uiso   1.00
H234   H     0.95100   0.48010   0.59160   0.01267  Uiso   1.00
H235   H     0.92700   0.52120   0.51120   0.01267  Uiso   1.00
H236   H     0.79080   0.13560   0.52750   0.01267  Uiso   1.00
H237   H     0.05330   0.62620   0.50530   0.01267  Uiso   1.00
H238   H     0.85150   0.73660   0.43160   0.01267  Uiso   1.00
H239   H     0.96430   0.57010   0.00030   0.01267  Uiso   1.00
H240   H     0.77340   0.80420   0.60850   0.01267  Uiso   1.00
H241   H     0.01130   0.06170   0.59440   0.01267  Uiso   1.00
H242   H     0.70920   0.36440   0.52750   0.01267  Uiso   1.00
H243   H     0.76760   0.63530   0.78680   0.01267  Uiso   1.00
H244   H     0.84690   0.30020   0.27940   0.01267  Uiso   1.00
H245   H     0.79270   0.64450   0.39330   0.01267  Uiso   1.00
H246   H     0.20970   0.82500   0.03070   0.01267  Uiso   1.00
H247   H     0.16070   0.82840   0.72870   0.01267  Uiso   1.00
H248   H     0.34690   0.19980   0.77940   0.01267  Uiso   1.00
H249   H     0.20730   0.64450   0.89330   0.01267  Uiso   1.00
H250   H     0.05580   0.77750   0.66170   0.01267  Uiso   1.00
H251   H     0.77090   0.88090   0.53510   0.01267  Uiso   1.00
H252   H     0.22240   0.09000   0.05200   0.01267  Uiso   1.00
H253   H     0.65520   0.13580   0.42260   0.01267  Uiso   1.00
H254   H     0.56490   0.23270   0.07450   0.01267  Uiso   1.00
H255   H     0.36870   0.97160   0.92080   0.01267  Uiso   1.00
H256   H     0.68100   0.47790   0.07870   0.01267  Uiso   1.00
H257   H     0.16340   0.62080   0.43360   0.01267  Uiso   1.00
H258   H     0.71870   0.15510   0.90360   0.01267  Uiso   1.00
H259   H     0.31900   0.52210   0.92130   0.01267  Uiso   1.00
H260   H     0.29270   0.14450   0.60670   0.01267  Uiso   1.00
H261   H     0.76020   0.31500   0.16290   0.01267  Uiso   1.00
H262   H     0.48900   0.87400   0.38670   0.01267  Uiso   1.00
H263   H     0.13600   0.05260   0.60610   0.01267  Uiso   1.00
H264   H     0.31510   0.36210   0.80280   0.01267  Uiso   1.00
H265   H     0.03650   0.30810   0.20380   0.01267  Uiso   1.00
H266   H     0.57390   0.32170   0.12690   0.01267  Uiso   1.00
H267   H     0.63600   0.44740   0.10610   0.01267  Uiso   1.00
H268   H     0.88790   0.53350   0.93420   0.01267  Uiso   1.00
H269   H     0.97210   0.81760   0.13530   0.01267  Uiso   1.00
H270   H     0.70730   0.14450   0.10670   0.01267  Uiso   1.00
H271   H     0.47210   0.68240   0.63530   0.01267  Uiso   1.00
H272   H     0.21870   0.34490   0.40360   0.01267  Uiso   1.00
H273   H     0.76670   0.87550   0.41910   0.01267  Uiso   1.00
H274   H     0.79030   0.17500   0.96930   0.01267  Uiso   1.00
H275   H     0.02720   0.88270   0.09960   0.01267  Uiso   1.00
H276   H     0.84730   0.65490   0.78800   0.01267  Uiso   1.00
H277   H     0.54410   0.58220   0.93330   0.01267  Uiso   1.00
H278   H     0.65690   0.31060   0.12380   0.01267  Uiso   1.00
H279   H     0.28040   0.18310   0.70300   0.01267  Uiso   1.00
H280   H     0.63600   0.55260   0.39390   0.01267  Uiso   1.00
H281   H     0.60460   0.09010   0.41680   0.01267  Uiso   1.00
H282   H     0.47280   0.38270   0.40040   0.01267  Uiso   1.00
H283   H     0.35150   0.76340   0.93160   0.01267  Uiso   1.00
H284   H     0.34920   0.82640   0.20330   0.01267  Uiso   1.00
H285   H     0.72770   0.85060   0.70240   0.01267  Uiso   1.00
H286   H     0.16420   0.17190   0.88130   0.01267  Uiso   1.00
H287   H     0.36060   0.73060   0.00420   0.01267  Uiso   1.00
H288   H     0.03570   0.57010   0.50030   0.01267  Uiso   1.00
H289   H     0.64890   0.59540   0.96830   0.01267  Uiso   1.00
H290   H     0.98870   0.93830   0.40560   0.01267  Uiso   1.00
H291   H     0.26760   0.13530   0.21320   0.01267  Uiso   1.00
H292   H     0.11110   0.55670   0.03810   0.01267  Uiso   1.00
H293   H     0.10820   0.36820   0.41300   0.01267  Uiso   1.00
H294   H     0.24810   0.34480   0.36480   0.01267  Uiso   1.00
H295   H     0.66070   0.32840   0.27130   0.01267  Uiso   1.00
H296   H     0.39180   0.13180   0.41300   0.01267  Uiso   1.00
H297   H     0.05000   0.66500   0.06860   0.01267  Uiso   1.00
H298   H     0.46430   0.07010   0.99970   0.01267  Uiso   1.00
H299   H     0.39540   0.09010   0.91680   0.01267  Uiso   1.00
H300   H     0.16070   0.17160   0.77130   0.01267  Uiso   1.00
H301   H     0.94420   0.73850   0.77360   0.01267  Uiso   1.00
H302   H     0.05900   0.96660   0.54080   0.01267  Uiso   1.00
H303   H     0.46120   0.06250   0.06420   0.01267  Uiso   1.00
H304   H     0.86770   0.32780   0.94010   0.01267  Uiso   1.00
H305   H     0.94420   0.77750   0.16170   0.01267  Uiso   1.00
H306   H     0.49500   0.90140   0.53300   0.01267  Uiso   1.00
H307   H     0.41800   0.30600   0.29040   0.01267  Uiso   1.00
H308   H     0.79060   0.99980   0.95090   0.01267  Uiso   1.00
H309   H     0.27230   0.85060   0.20240   0.01267  Uiso   1.00
H310   H     0.87990   0.88100   0.04040   0.01267  Uiso   1.00
H311   H     0.42270   0.41510   0.42440   0.01267  Uiso   1.00
H312   H     0.88890   0.55670   0.53810   0.01267  Uiso   1.00
H313   H     0.32340   0.85950   0.23480   0.01267  Uiso   1.00
H314   H     0.89320   0.20000   0.96450   0.01267  Uiso   1.00
H315   H     0.81510   0.86210   0.19720   0.01267  Uiso   1.00
H316   H     0.18490   0.13790   0.80280   0.01267  Uiso   1.00
H317   H     0.70730   0.85550   0.39330   0.01267  Uiso   1.00
H318   H     0.11850   0.29130   0.60150   0.01267  Uiso   1.00
H319   H     0.55330   0.87380   0.00530   0.01267  Uiso   1.00
H320   H     0.44420   0.27750   0.83830   0.01267  Uiso   1.00
H321   H     0.13230   0.67220   0.05990   0.01267  Uiso   1.00
H322   H     0.63940   0.26940   0.99580   0.01267  Uiso   1.00
H323   H     0.86400   0.94740   0.39390   0.01267  Uiso   1.00
H324   H     0.06950   0.29120   0.78180   0.01267  Uiso   1.00
H325   H     0.21870   0.65510   0.09640   0.01267  Uiso   1.00
H326   H     0.98580   0.69440   0.75630   0.01267  Uiso   1.00
H327   H     0.52720   0.61730   0.59960   0.01267  Uiso   1.00
H328   H     0.65760   0.97570   0.51240   0.01267  Uiso   1.00
H329   H     0.75620   0.84790   0.12010   0.01267  Uiso   1.00
H330   H     0.70940   0.50020   0.95090   0.01267  Uiso   1.00
H331   H     0.72830   0.64350   0.31300   0.01267  Uiso   1.00
H332   H     0.39100   0.65710   0.18070   0.01267  Uiso   1.00
H333   H     0.66340   0.87920   0.93360   0.01267  Uiso   1.00
H334   H     0.48190   0.56220   0.51100   0.01267  Uiso   1.00
H335   H     0.67660   0.85950   0.73480   0.01267  Uiso   1.00
H336   H     0.65270   0.84510   0.78800   0.01267  Uiso   1.00
H337   H     0.48900   0.12600   0.11330   0.01267  Uiso   1.00
H338   H     0.33580   0.67190   0.61870   0.01267  Uiso   1.00
H339   H     0.24600   0.31950   0.58040   0.01267  Uiso   1.00
H340   H     0.01810   0.93780   0.51100   0.01267  Uiso   1.00
H341   H     0.50500   0.90140   0.03300   0.01267  Uiso   1.00
H342   H     0.20230   0.47850   0.60130   0.01267  Uiso   1.00
H343   H     0.47420   0.53440   0.04030   0.01267  Uiso   1.00
H344   H     0.27160   0.84840   0.00790   0.01267  Uiso   1.00
H345   H     0.96350   0.69190   0.79620   0.01267  Uiso   1.00
H346   H     0.64850   0.76340   0.43160   0.01267  Uiso   1.00
H347   H     0.68490   0.36210   0.30280   0.01267  Uiso   1.00
H348   H     0.96350   0.30810   0.70380   0.01267  Uiso   1.00
H349   H     0.24810   0.65520   0.13520   0.01267  Uiso   1.00
H350   H     0.54900   0.98010   0.90840   0.01267  Uiso   1.00
H351   H     0.49720   0.31880   0.82530   0.01267  Uiso   1.00
H352   H     0.92700   0.47880   0.98880   0.01267  Uiso   1.00
H353   H     0.09700   0.98540   0.91860   0.01267  Uiso   1.00
H354   H     0.50280   0.68120   0.17470   0.01267  Uiso   1.00
H355   H     0.59960   0.16550   0.25870   0.01267  Uiso   1.00
H356   H     0.26020   0.81500   0.83710   0.01267  Uiso   1.00
H357   H     0.73970   0.34930   0.27260   0.01267  Uiso   1.00
H358   H     0.23970   0.15070   0.77260   0.01267  Uiso   1.00
H359   H     0.65310   0.19980   0.27940   0.01267  Uiso   1.00
H360   H     0.36060   0.26940   0.49580   0.01267  Uiso   1.00
H361   H     0.88790   0.46650   0.56580   0.01267  Uiso   1.00
H362   H     0.78130   0.65510   0.59640   0.01267  Uiso   1.00
H363   H     0.48870   0.43830   0.59440   0.01267  Uiso   1.00
H364   H     0.56100   0.87540   0.85340   0.01267  Uiso   1.00
H365   H     0.26030   0.65070   0.72740   0.01267  Uiso   1.00
H366   H     0.73330   0.37550   0.08090   0.01267  Uiso   1.00
H367   H     0.77160   0.34840   0.99210   0.01267  Uiso   1.00
H368   H     0.76670   0.12450   0.08090   0.01267  Uiso   1.00
H369   H     0.49500   0.09860   0.96700   0.01267  Uiso   1.00
H370   H     0.13670   0.99440   0.47180   0.01267  Uiso   1.00
H371   H     0.98480   0.11650   0.59690   0.01267  Uiso   1.00
H372   H     0.54410   0.41780   0.56670   0.01267  Uiso   1.00
H373   H     0.33490   0.31220   0.29750   0.01267  Uiso   1.00
H374   H     0.05540   0.77660   0.00720   0.01267  Uiso   1.00
H375   H     0.38890   0.94330   0.03810   0.01267  Uiso   1.00
H376   H     0.31190   0.63690   0.64940   0.01267  Uiso   1.00
H377   H     0.74600   0.81950   0.41960   0.01267  Uiso   1.00
H378   H     0.23240   0.63530   0.28680   0.01267  Uiso   1.00
H379   H     0.93050   0.70880   0.21820   0.01267  Uiso   1.00
H380   H     0.20690   0.66860   0.31820   0.01267  Uiso   1.00
H381   H     0.78040   0.68310   0.29700   0.01267  Uiso   1.00
H382   H     0.72770   0.14940   0.79760   0.01267  Uiso   1.00
H383   H     0.81190   0.13690   0.35060   0.01267  Uiso   1.00
H384   H     0.57730   0.41510   0.92440   0.01267  Uiso   1.00
H385   H     0.93900   0.37540   0.64660   0.01267  Uiso   1.00
H386   H     0.84310   0.18940   0.12380   0.01267  Uiso   1.00
H387   H     0.63130   0.02840   0.07920   0.01267  Uiso   1.00
H388   H     0.94420   0.22250   0.33830   0.01267  Uiso   1.00
H389   H     0.51130   0.92050   0.86220   0.01267  Uiso   1.00
H390   H     0.20230   0.52150   0.89870   0.01267  Uiso   1.00
H391   H     0.45590   0.58220   0.43330   0.01267  Uiso   1.00
H392   H     0.27170   0.64350   0.81300   0.01267  Uiso   1.00
H393   H     0.79770   0.47850   0.10130   0.01267  Uiso   1.00
H394   H     0.21960   0.31690   0.70300   0.01267  Uiso   1.00
H395   H     0.13600   0.94740   0.89390   0.01267  Uiso   1.00
H396   H     0.86980   0.14310   0.14480   0.01267  Uiso   1.00
H397   H     0.43900   0.87540   0.35340   0.01267  Uiso   1.00
H398   H     0.00280   0.81880   0.67470   0.01267  Uiso   1.00
H399   H     0.85820   0.51900   0.10220   0.01267  Uiso   1.00
H400   H     0.25400   0.18050   0.58040   0.01267  Uiso   1.00
H401   H     0.40040   0.83450   0.74130   0.01267  Uiso   1.00
H402   H     0.81900   0.02210   0.07870   0.01267  Uiso   1.00
H403   H     0.18100   0.02210   0.57870   0.01267  Uiso   1.00
H404   H     0.11110   0.44330   0.46190   0.01267  Uiso   1.00
H405   H     0.70690   0.83140   0.81820   0.01267  Uiso   1.00
H406   H     0.33660   0.12080   0.06640   0.01267  Uiso   1.00
H407   H     0.76030   0.84930   0.22740   0.01267  Uiso   1.00
H408   H     0.20970   0.17500   0.46930   0.01267  Uiso   1.00
H409   H     0.23330   0.12450   0.58090   0.01267  Uiso   1.00
H410   H     0.94420   0.26150   0.72640   0.01267  Uiso   1.00
H411   H     0.89540   0.40990   0.41680   0.01267  Uiso   1.00
H412   H     0.29310   0.16860   0.18180   0.01267  Uiso   1.00
H413   H     0.09960   0.33450   0.75870   0.01267  Uiso   1.00
H414   H     0.14180   0.48100   0.89780   0.01267  Uiso   1.00
H415   H     0.14850   0.26340   0.56840   0.01267  Uiso   1.00
H416   H     0.13670   0.00560   0.02820   0.01267  Uiso   1.00
H417   H     0.05580   0.73850   0.27360   0.01267  Uiso   1.00
H418   H     0.86060   0.76940   0.50420   0.01267  Uiso   1.00
H419   H     0.52580   0.46560   0.95970   0.01267  Uiso   1.00
H420   H     0.66510   0.68780   0.70250   0.01267  Uiso   1.00
H421   H     0.63020   0.35690   0.14480   0.01267  Uiso   1.00
H422   H     0.38790   0.03350   0.06580   0.01267  Uiso   1.00
H423   H     0.79080   0.86440   0.97250   0.01267  Uiso   1.00
H424   H     0.24380   0.15210   0.87990   0.01267  Uiso   1.00
H425   H     0.32340   0.14050   0.26520   0.01267  Uiso   1.00
H426   H     0.90040   0.66550   0.24130   0.01267  Uiso   1.00
H427   H     0.39320   0.70000   0.03550   0.01267  Uiso   1.00
H428   H     0.17590   0.40440   0.89470   0.01267  Uiso   1.00
H429   H     0.41800   0.69400   0.20960   0.01267  Uiso   1.00
H430   H     0.23980   0.31500   0.66290   0.01267  Uiso   1.00
H431   H     0.27760   0.41000   0.05200   0.01267  Uiso   1.00
H432   H     0.92610   0.82170   0.37310   0.01267  Uiso   1.00
H433   H     0.83660   0.37920   0.56640   0.01267  Uiso   1.00
H434   H     0.00500   0.59860   0.53300   0.01267  Uiso   1.00
H435   H     0.43050   0.79120   0.71820   0.01267  Uiso   1.00
H436   H     0.76020   0.68500   0.33710   0.01267  Uiso   1.00
H437   H     0.95100   0.51990   0.90840   0.01267  Uiso   1.00
H438   H     0.34240   0.97570   0.01240   0.01267  Uiso   1.00
H439   H     0.44420   0.23850   0.22640   0.01267  Uiso   1.00
H440   H     0.68560   0.54080   0.52240   0.01267  Uiso   1.00
H441   H     0.51100   0.87400   0.88670   0.01267  Uiso   1.00
H442   H     0.20920   0.13560   0.02750   0.01267  Uiso   1.00
H443   H     0.57300   0.97880   0.51120   0.01267  Uiso   1.00
H444   H     0.74380   0.34790   0.37990   0.01267  Uiso   1.00
H445   H     0.96120   0.43750   0.56420   0.01267  Uiso   1.00
H446   H     0.51810   0.56220   0.01100   0.01267  Uiso   1.00
H447   H     0.23970   0.84930   0.72740   0.01267  Uiso   1.00
H448   H     0.73980   0.18500   0.16290   0.01267  Uiso   1.00
H449   H     0.08200   0.80600   0.20960   0.01267  Uiso   1.00
H450   H     0.89320   0.80000   0.53550   0.01267  Uiso   1.00
H451   H     0.70230   0.97850   0.39870   0.01267  Uiso   1.00
H452   H     0.85110   0.90460   0.96830   0.01267  Uiso   1.00
H453   H     0.09700   0.01460   0.58140   0.01267  Uiso   1.00
H454   H     0.47210   0.31760   0.86470   0.01267  Uiso   1.00
H455   H     0.36400   0.44740   0.60610   0.01267  Uiso   1.00
H456   H     0.01420   0.69440   0.25630   0.01267  Uiso   1.00
H457   H     0.15080   0.32640   0.29670   0.01267  Uiso   1.00
H458   H     0.64180   0.98100   0.10220   0.01267  Uiso   1.00
H459   H     0.05540   0.22340   0.49280   0.01267  Uiso   1.00
H460   H     0.43510   0.76730   0.92550   0.01267  Uiso   1.00
H461   H     0.44460   0.72340   0.00720   0.01267  Uiso   1.00
H462   H     0.33930   0.32840   0.77130   0.01267  Uiso   1.00
H463   H     0.34480   0.86420   0.57740   0.01267  Uiso   1.00
H464   H     0.85150   0.26340   0.06840   0.01267  Uiso   1.00
H465   H     0.94670   0.37380   0.49470   0.01267  Uiso   1.00
H466   H     0.28130   0.15510   0.40360   0.01267  Uiso   1.00
H467   H     0.93820   0.13980   0.93450   0.01267  Uiso   1.00
H468   H     0.97420   0.03440   0.95970   0.01267  Uiso   1.00
H469   H     0.63130   0.97160   0.42080   0.01267  Uiso   1.00
H470   H     0.34480   0.13580   0.92260   0.01267  Uiso   1.00
H471   H     0.35820   0.01900   0.89780   0.01267  Uiso   1.00
H472   H     0.35820   0.98100   0.60220   0.01267  Uiso   1.00
H473   H     0.13020   0.85690   0.85520   0.01267  Uiso   1.00
H474   H     0.45590   0.41780   0.06670   0.01267  Uiso   1.00
H475   H     0.51130   0.07950   0.63780   0.01267  Uiso   1.00
H476   H     0.75400   0.68050   0.41960   0.01267  Uiso   1.00
H477   H     0.15760   0.47570   0.48760   0.01267  Uiso   1.00
H478   H     0.02580   0.96560   0.04030   0.01267  Uiso   1.00
H479   H     0.86980   0.85690   0.35520   0.01267  Uiso   1.00
H480   H     0.05580   0.26150   0.22640   0.01267  Uiso   1.00
H481   H     0.98870   0.06170   0.09440   0.01267  Uiso   1.00
H482   H     0.89540   0.59010   0.08320   0.01267  Uiso   1.00
H483   H     0.63230   0.82780   0.55990   0.01267  Uiso   1.00
H484   H     0.38150   0.79130   0.89850   0.01267  Uiso   1.00
H485   H     0.05000   0.33500   0.43140   0.01267  Uiso   1.00
H486   H     0.86060   0.23060   0.99580   0.01267  Uiso   1.00
H487   H     0.51810   0.43780   0.48900   0.01267  Uiso   1.00
H488   H     0.93050   0.29120   0.28180   0.01267  Uiso   1.00
H489   H     0.60460   0.90990   0.08320   0.01267  Uiso   1.00
H490   H     0.79310   0.33140   0.68180   0.01267  Uiso   1.00
H491   H     0.60900   0.65710   0.68070   0.01267  Uiso   1.00
H492   H     0.23980   0.68500   0.83710   0.01267  Uiso   1.00
H493   H     0.46350   0.80810   0.29620   0.01267  Uiso   1.00
H494   H     0.50280   0.31880   0.32530   0.01267  Uiso   1.00
H495   H     0.77230   0.64940   0.70240   0.01267  Uiso   1.00
H496   H     0.46120   0.93750   0.43580   0.01267  Uiso   1.00
H497   H     0.93510   0.73270   0.42550   0.01267  Uiso   1.00
H498   H     0.31440   0.45920   0.47760   0.01267  Uiso   1.00
H499   H     0.17660   0.64050   0.23480   0.01267  Uiso   1.00
H500   H     0.51420   0.80560   0.75630   0.01267  Uiso   1.00
H501   H     0.66510   0.31220   0.79750   0.01267  Uiso   1.00
H502   H     0.60680   0.70000   0.53550   0.01267  Uiso   1.00
H503   H     0.22840   0.65160   0.00790   0.01267  Uiso   1.00
H504   H     0.20730   0.35550   0.60670   0.01267  Uiso   1.00
H505   H     0.36330   0.50560   0.47180   0.01267  Uiso   1.00
H506   H     0.68100   0.52210   0.42130   0.01267  Uiso   1.00
H507   H     0.56950   0.20880   0.28180   0.01267  Uiso   1.00
H508   H     0.42610   0.67830   0.87310   0.01267  Uiso   1.00
H509   H     0.25190   0.15520   0.36480   0.01267  Uiso   1.00
H510   H     0.22830   0.14350   0.68700   0.01267  Uiso   1.00
H511   H     0.91800   0.80600   0.70960   0.01267  Uiso   1.00
H512   H     0.94670   0.62620   0.00530   0.01267  Uiso   1.00
H513   H     0.82340   0.64050   0.73480   0.01267  Uiso   1.00
H514   H     0.57730   0.58490   0.57560   0.01267  Uiso   1.00
H515   H     0.14890   0.09540   0.03170   0.01267  Uiso   1.00
H516   H     0.48870   0.07950   0.13780   0.01267  Uiso   1.00
H517   H     0.36980   0.64310   0.85520   0.01267  Uiso   1.00
H518   H     0.48580   0.19440   0.24370   0.01267  Uiso   1.00
H519   H     0.89180   0.36820   0.91300   0.01267  Uiso   1.00
H520   H     0.97420   0.96560   0.54030   0.01267  Uiso   1.00
H521   H     0.16340   0.37920   0.06640   0.01267  Uiso   1.00
H522   H     0.02720   0.11730   0.40040   0.01267  Uiso   1.00
H523   H     0.01130   0.57950   0.36220   0.01267  Uiso   1.00
H524   H     0.77160   0.65160   0.50790   0.01267  Uiso   1.00
H525   H     0.58200   0.69400   0.70960   0.01267  Uiso   1.00
H526   H     0.48480   0.38350   0.09690   0.01267  Uiso   1.00
H527   H     0.45000   0.16500   0.43140   0.01267  Uiso   1.00
H528   H     0.62010   0.38100   0.45960   0.01267  Uiso   1.00
H529   H     0.73240   0.13530   0.71320   0.01267  Uiso   1.00
H530   H     0.81900   0.97790   0.42130   0.01267  Uiso   1.00
H531   H     0.09960   0.66550   0.74130   0.01267  Uiso   1.00
H532   H     0.01810   0.06220   0.98900   0.01267  Uiso   1.00
H533   H     0.43900   0.12460   0.14660   0.01267  Uiso   1.00
H534   H     0.84480   0.36420   0.42260   0.01267  Uiso   1.00
H535   H     0.36980   0.35690   0.64480   0.01267  Uiso   1.00
H536   H     0.05330   0.37380   0.99470   0.01267  Uiso   1.00
H537   H     0.23240   0.36470   0.21320   0.01267  Uiso   1.00
H538   H     0.70970   0.67500   0.53070   0.01267  Uiso   1.00
H539   H     0.29310   0.83140   0.31820   0.01267  Uiso   1.00
H540   H     0.51520   0.61650   0.90310   0.01267  Uiso   1.00
H541   H     0.42270   0.58490   0.07560   0.01267  Uiso   1.00
H542   H     0.01520   0.88350   0.40310   0.01267  Uiso   1.00
H543   H     0.74600   0.18050   0.08040   0.01267  Uiso   1.00
H544   H     0.10900   0.84290   0.18070   0.01267  Uiso   1.00
H545   H     0.53570   0.07010   0.49970   0.01267  Uiso   1.00
H546   H     0.71960   0.81690   0.29700   0.01267  Uiso   1.00
H547   H     0.79310   0.66860   0.81820   0.01267  Uiso   1.00
H548   H     0.55580   0.72250   0.16170   0.01267  Uiso   1.00
H549   H     0.55580   0.27750   0.33830   0.01267  Uiso   1.00
H550   H     0.77170   0.85650   0.31300   0.01267  Uiso   1.00
H551   H     0.35110   0.40460   0.03170   0.01267  Uiso   1.00
H552   H     0.60680   0.30000   0.96450   0.01267  Uiso   1.00
H553   H     0.13130   0.47160   0.57920   0.01267  Uiso   1.00
H554   H     0.81440   0.04080   0.97760   0.01267  Uiso   1.00
H555   H     0.60820   0.86820   0.58700   0.01267  Uiso   1.00
H556   H     0.63230   0.17220   0.94010   0.01267  Uiso   1.00
H557   H     0.70940   0.49980   0.54910   0.01267  Uiso   1.00
H558   H     0.07730   0.08490   0.42440   0.01267  Uiso   1.00
H559   H     0.56180   0.63980   0.56550   0.01267  Uiso   1.00
H560   H     0.51420   0.19440   0.74370   0.01267  Uiso   1.00
H561   H     0.34730   0.84510   0.28800   0.01267  Uiso   1.00
H562   H     0.60900   0.34290   0.81930   0.01267  Uiso   1.00
H563   H     0.38890   0.05670   0.46190   0.01267  Uiso   1.00
H564   H     0.18100   0.97790   0.92130   0.01267  Uiso   1.00
H565   H     0.68490   0.63790   0.19720   0.01267  Uiso   1.00
H566   H     0.73980   0.81500   0.33710   0.01267  Uiso   1.00
H567   H     0.48580   0.80560   0.25630   0.01267  Uiso   1.00
H568   H     0.89180   0.63180   0.58700   0.01267  Uiso   1.00
H569   H     0.07300   0.52120   0.01120   0.01267  Uiso   1.00
H570   H     0.52720   0.38270   0.90040   0.01267  Uiso   1.00
H571   H     0.02790   0.81760   0.63530   0.01267  Uiso   1.00
H572   H     0.70970   0.32500   0.96930   0.01267  Uiso   1.00
H573   H     0.84240   0.47570   0.98760   0.01267  Uiso   1.00
H574   H     0.84730   0.34510   0.71200   0.01267  Uiso   1.00
H575   H     0.34730   0.15490   0.21200   0.01267  Uiso   1.00
H576   H     0.67660   0.14050   0.76520   0.01267  Uiso   1.00
H577   H     0.13940   0.23060   0.49580   0.01267  Uiso   1.00
H578   H     0.65270   0.15490   0.71200   0.01267  Uiso   1.00
H579   H     0.03880   0.56250   0.43580   0.01267  Uiso   1.00
H580   H     0.15690   0.81060   0.87620   0.01267  Uiso   1.00
H581   H     0.53880   0.93750   0.93580   0.01267  Uiso   1.00
H582   H     0.97210   0.18240   0.36470   0.01267  Uiso   1.00
H583   H     0.34240   0.02430   0.48760   0.01267  Uiso   1.00
H584   H     0.17660   0.35950   0.26520   0.01267  Uiso   1.00
H585   H     0.42700   0.97880   0.01120   0.01267  Uiso   1.00
H586   H     0.13130   0.52840   0.92080   0.01267  Uiso   1.00
H587   H     0.99500   0.40140   0.46700   0.01267  Uiso   1.00
H588   H     0.20690   0.33140   0.18180   0.01267  Uiso   1.00
H589   H     0.21960   0.68310   0.79700   0.01267  Uiso   1.00
H590   H     0.70690   0.16860   0.68180   0.01267  Uiso   1.00
H591   H     0.23330   0.87550   0.91910   0.01267  Uiso   1.00
H592   H     0.77760   0.09000   0.55200   0.01267  Uiso   1.00
H593   H     0.01130   0.42050   0.13780   0.01267  Uiso   1.00
H594   H     0.15690   0.18940   0.62380   0.01267  Uiso   1.00
H595   H     0.63670   0.49440   0.52820   0.01267  Uiso   1.00
H596   H     0.55900   0.53340   0.04080   0.01267  Uiso   1.00
H597   H     0.93820   0.86020   0.56550   0.01267  Uiso   1.00
H598   H     0.82340   0.35950   0.76520   0.01267  Uiso   1.00
H599   H     0.64890   0.40460   0.53170   0.01267  Uiso   1.00
H600   H     0.56950   0.79120   0.21820   0.01267  Uiso   1.00
H601   H     0.79770   0.52150   0.39870   0.01267  Uiso   1.00
H602   H     0.86770   0.67220   0.55990   0.01267  Uiso   1.00
H603   H     0.94460   0.77660   0.50720   0.01267  Uiso   1.00
H604   H     0.03570   0.42990   0.99970   0.01267  Uiso   1.00
H605   H     0.72660   0.69580   0.60850   0.01267  Uiso   1.00
H606   H     0.39180   0.86820   0.08700   0.01267  Uiso   1.00
H607   H     0.27340   0.30420   0.39150   0.01267  Uiso   1.00
H608   H     0.99720   0.81880   0.17470   0.01267  Uiso   1.00
H609   H     0.86330   0.99440   0.97180   0.01267  Uiso   1.00
H610   H     0.83930   0.82840   0.22870   0.01267  Uiso   1.00
H611   H     0.77090   0.11910   0.96490   0.01267  Uiso   1.00
H612   H     0.15520   0.36420   0.92260   0.01267  Uiso   1.00
H613   H     0.18560   0.95920   0.02240   0.01267  Uiso   1.00
H614   H     0.29770   0.97850   0.89870   0.01267  Uiso   1.00
H615   H     0.40300   0.51460   0.91860   0.01267  Uiso   1.00
H616   H     0.73970   0.65070   0.22740   0.01267  Uiso   1.00
H617   H     0.26020   0.18500   0.66290   0.01267  Uiso   1.00
H618   H     0.98900   0.62600   0.88670   0.01267  Uiso   1.00
H619   H     0.24600   0.68050   0.91960   0.01267  Uiso   1.00
H620   H     0.02790   0.18240   0.86470   0.01267  Uiso   1.00
H621   H     0.06180   0.13980   0.43450   0.01267  Uiso   1.00
H622   H     0.24380   0.84790   0.62010   0.01267  Uiso   1.00
H623   H     0.18810   0.86310   0.64940   0.01267  Uiso   1.00
H624   H     0.44100   0.46660   0.95920   0.01267  Uiso   1.00
H625   H     0.07300   0.47880   0.48880   0.01267  Uiso   1.00
H626   H     0.53570   0.92990   0.00030   0.01267  Uiso   1.00
H627   H     0.10680   0.20000   0.46450   0.01267  Uiso   1.00
H628   H     0.34310   0.68940   0.87620   0.01267  Uiso   1.00
H629   H     0.86870   0.52840   0.42080   0.01267  Uiso   1.00
H630   H     0.13230   0.32780   0.44010   0.01267  Uiso   1.00
H631   H     0.92610   0.17830   0.12690   0.01267  Uiso   1.00
H632   H     0.84480   0.63580   0.07740   0.01267  Uiso   1.00
H633   H     0.48480   0.61650   0.40310   0.01267  Uiso   1.00
H634   H     0.16510   0.18780   0.29750   0.01267  Uiso   1.00
H635   H     0.06100   0.62460   0.35340   0.01267  Uiso   1.00
H636   H     0.81190   0.86310   0.14940   0.01267  Uiso   1.00
H637   H     0.52790   0.31760   0.36470   0.01267  Uiso   1.00
H638   H     0.90300   0.98540   0.41860   0.01267  Uiso   1.00
H639   H     0.42700   0.02120   0.48880   0.01267  Uiso   1.00
H640   H     0.59700   0.48540   0.08140   0.01267  Uiso   1.00
H641   H     0.86330   0.00560   0.52820   0.01267  Uiso   1.00
H642   H     0.45000   0.83500   0.06860   0.01267  Uiso   1.00
H643   H     0.83490   0.18780   0.79750   0.01267  Uiso   1.00
H644   H     0.02580   0.03440   0.45970   0.01267  Uiso   1.00
H645   H     0.10680   0.80000   0.03550   0.01267  Uiso   1.00
H646   H     0.11210   0.46650   0.06580   0.01267  Uiso   1.00
H647   H     0.87990   0.11900   0.45960   0.01267  Uiso   1.00
H648   H     0.75190   0.34480   0.86480   0.01267  Uiso   1.00
H649   H     0.57390   0.67830   0.37310   0.01267  Uiso   1.00
H650   H     0.16420   0.82810   0.61870   0.01267  Uiso   1.00
H651   H     0.20920   0.86440   0.47250   0.01267  Uiso   1.00
H652   H     0.93900   0.62460   0.85340   0.01267  Uiso   1.00
H653   H     0.95590   0.91780   0.93330   0.01267  Uiso   1.00
H654   H     0.36870   0.02840   0.57920   0.01267  Uiso   1.00
H655   H     0.91800   0.19400   0.79040   0.01267  Uiso   1.00
H656   H     0.72910   0.61910   0.53510   0.01267  Uiso   1.00
H657   H     0.79270   0.35550   0.10670   0.01267  Uiso   1.00
H658   H     0.50500   0.09860   0.46700   0.01267  Uiso   1.00
H659   H     0.16510   0.81220   0.20250   0.01267  Uiso   1.00
H660   H     0.95000   0.33500   0.93140   0.01267  Uiso   1.00
H661   H     0.31510   0.63790   0.69720   0.01267  Uiso   1.00
H662   H     0.76030   0.15070   0.27260   0.01267  Uiso   1.00
H663   H     0.98870   0.57950   0.86220   0.01267  Uiso   1.00
H664   H     0.44670   0.12620   0.99470   0.01267  Uiso   1.00
H665   H     0.67590   0.90440   0.10530   0.01267  Uiso   1.00
H666   H     0.57300   0.02120   0.98880   0.01267  Uiso   1.00
H667   H     0.51520   0.38350   0.59690   0.01267  Uiso   1.00
H668   H     0.86870   0.47160   0.07920   0.01267  Uiso   1.00
H669   H     0.14850   0.73660   0.93160   0.01267  Uiso   1.00
H670   H     0.90040   0.33450   0.25870   0.01267  Uiso   1.00
H671   H     0.11850   0.70870   0.89850   0.01267  Uiso   1.00
H672   H     0.79060   0.00020   0.54910   0.01267  Uiso   1.00
H673   H     0.22770   0.35060   0.29760   0.01267  Uiso   1.00
H674   H     0.27760   0.59000   0.44800   0.01267  Uiso   1.00
H675   H     0.55330   0.12620   0.49470   0.01267  Uiso   1.00
H676   H     0.73330   0.62450   0.41910   0.01267  Uiso   1.00
H677   H     0.83660   0.62080   0.93360   0.01267  Uiso   1.00
H678   H     0.65760   0.02430   0.98760   0.01267  Uiso   1.00
H679   H     0.49720   0.68120   0.67470   0.01267  Uiso   1.00
H680   H     0.28130   0.84490   0.09640   0.01267  Uiso   1.00
H681   H     0.83580   0.17190   0.38130   0.01267  Uiso   1.00
H682   H     0.98870   0.42050   0.63780   0.01267  Uiso   1.00
H683   H     0.42610   0.32170   0.62690   0.01267  Uiso   1.00
H684   H     0.43820   0.63980   0.06550   0.01267  Uiso   1.00
H685   H     0.34920   0.17360   0.29670   0.01267  Uiso   1.00
H686   H     0.05580   0.22250   0.83830   0.01267  Uiso   1.00
H687   H     0.63940   0.73060   0.50420   0.01267  Uiso   1.00
H688   H     0.88150   0.29130   0.10150   0.01267  Uiso   1.00
C1     C     0.25000   0.25000   0.16932   0.01267  Uiso   1.00
C2     C     0.32550   0.75750   0.15463   0.01267  Uiso   1.00
C3     C     0.76650   0.67560   0.61570   0.01267  Uiso   1.00
C4     C     0.52560   0.22440   0.40000   0.01267  Uiso   1.00
C5     C     0.14800   0.62300   0.41030   0.01267  Uiso   1.00
C6     C     0.12400   0.07881   0.55533   0.01267  Uiso   1.00
C7     C     0.61190   0.91553   0.48713   0.01267  Uiso   1.00
C8     C     0.18560   0.00600   0.47298   0.01267  Uiso   1.00
C9     C     0.25000   0.25000   0.20924   0.01267  Uiso   1.00
C10    C     0.01600   0.68990   0.46521   0.01267  Uiso   1.00
C11    C     0.82140   0.90828   0.46812   0.01267  Uiso   1.00
C12    C     0.11270   0.26590   0.73372   0.01267  Uiso   1.00
C13    C     0.84610   0.39880   0.41727   0.01267  Uiso   1.00
C14    C     0.79660   0.83700   0.13400   0.01267  Uiso   1.00
C15    C     0.18560   0.99400   0.02702   0.01267  Uiso   1.00
C16    C     0.92700   0.54640   0.92050   0.01267  Uiso   1.00
C17    C     0.45530   0.76890   0.11853   0.01267  Uiso   1.00
C18    C     0.51660   0.67750   0.96340   0.01267  Uiso   1.00
C19    C     0.23350   0.67560   0.11570   0.01267  Uiso   1.00
C20    C     0.70220   0.16250   0.70665   0.01267  Uiso   1.00
C21    C     0.24270   0.17740   0.68612   0.01267  Uiso   1.00
C22    C     0.15390   0.39880   0.91727   0.01267  Uiso   1.00
C23    C     0.27350   0.52128   0.50309   0.01267  Uiso   1.00
C24    C     0.01660   0.17750   0.03660   0.01267  Uiso   1.00
C25    C     0.24060   0.49589   0.53057   0.01267  Uiso   1.00
C26    C     0.04160   0.11060   0.42420   0.01267  Uiso   1.00
C27    C     0.95530   0.26890   0.88147   0.01267  Uiso   1.00
C28    C     0.29820   0.02147   0.94392   0.01267  Uiso   1.00
C29    C     0.98470   0.20220   0.34470   0.01267  Uiso   1.00
C30    C     0.67450   0.24250   0.84537   0.01267  Uiso   1.00
C31    C     0.44750   0.64738   0.96486   0.01267  Uiso   1.00
C32    C     0.70340   0.66300   0.13400   0.01267  Uiso   1.00
C33    C     0.22400   0.34628   0.97498   0.01267  Uiso   1.00
C34    C     0.10710   0.83971   0.98831   0.01267  Uiso   1.00
C35    C     0.75000   0.25000   0.66932   0.01267  Uiso   1.00
C36    C     0.44630   0.73410   0.81811   0.01267  Uiso   1.00
C37    C     0.89830   0.20820   0.98900   0.01267  Uiso   1.00
C38    C     0.16920   0.63713   0.94436   0.01267  Uiso   1.00
C39    C     0.98340   0.17750   0.53660   0.01267  Uiso   1.00
C40    C     0.77660   0.70930   0.73560   0.01267  Uiso   1.00
C41    C     0.75000   0.75000   0.21137   0.01267  Uiso   1.00
C42    C     0.68560   0.49400   0.97298   0.01267  Uiso   1.00
C43    C     0.39290   0.33971   0.51169   0.01267  Uiso   1.00
C44    C     0.27220   0.14764   0.58351   0.01267  Uiso   1.00
C45    C     0.05140   0.38515   0.51297   0.01267  Uiso   1.00
C46    C     0.27660   0.20930   0.26440   0.01267  Uiso   1.00
C47    C     0.83080   0.63713   0.44436   0.01267  Uiso   1.00
C48    C     0.66950   0.79120   0.62717   0.01267  Uiso   1.00
C49    C     0.77350   0.97872   0.00309   0.01267  Uiso   1.00
C50    C     0.99710   0.09020   0.58100   0.01267  Uiso   1.00
C51    C     0.07300   0.45360   0.07950   0.01267  Uiso   1.00
C52    C     0.95840   0.11060   0.92420   0.01267  Uiso   1.00
C53    C     0.90190   0.66420   0.57810   0.01267  Uiso   1.00
C54    C     0.82510   0.76018   0.27492   0.01267  Uiso   1.00
C55    C     0.33410   0.00490   0.58768   0.01267  Uiso   1.00
C56    C     0.82140   0.09172   0.03188   0.01267  Uiso   1.00
C57    C     0.72500   0.70880   0.19280   0.01267  Uiso   1.00
C58    C     0.97440   0.27560   0.40000   0.01267  Uiso   1.00
C59    C     0.94750   0.14738   0.03514   0.01267  Uiso   1.00
C60    C     0.45030   0.73520   0.14599   0.01267  Uiso   1.00
C61    C     0.61960   0.67670   0.36110   0.01267  Uiso   1.00
C62    C     0.74270   0.32260   0.18612   0.01267  Uiso   1.00
C63    C     0.33050   0.20880   0.37283   0.01267  Uiso   1.00
C64    C     0.38970   0.21599   0.57704   0.01267  Uiso   1.00
C65    C     0.24060   0.50411   0.96943   0.01267  Uiso   1.00
C66    C     0.32350   0.28910   0.69485   0.01267  Uiso   1.00
C67    C     0.69170   0.16400   0.78267   0.01267  Uiso   1.00
C68    C     0.51720   0.10110   0.49156   0.01267  Uiso   1.00
C69    C     0.11190   0.58447   0.98713   0.01267  Uiso   1.00
C70    C     0.94630   0.23410   0.18189   0.01267  Uiso   1.00
C71    C     0.16950   0.70880   0.12717   0.01267  Uiso   1.00
C72    C     0.75000   0.75000   0.13833   0.01267  Uiso   1.00
C73    C     0.61360   0.04270   0.98516   0.01267  Uiso   1.00
C74    C     0.82350   0.21090   0.19485   0.01267  Uiso   1.00
C75    C     0.67860   0.40828   0.03188   0.01267  Uiso   1.00
C76    C     0.74270   0.67740   0.31388   0.01267  Uiso   1.00
C77    C     0.49300   0.26200   0.15560   0.01267  Uiso   1.00
C78    C     0.75000   0.75000   0.83068   0.01267  Uiso   1.00
C79    C     0.25000   0.75000   0.45050   0.01267  Uiso   1.00
C80    C     0.60830   0.19858   0.26662   0.01267  Uiso   1.00
C81    C     0.39290   0.66029   0.98831   0.01267  Uiso   1.00
C82    C     0.99710   0.90980   0.91900   0.01267  Uiso   1.00
C83    C     0.92050   0.87070   0.05290   0.01267  Uiso   1.00
C84    C     0.20220   0.66250   0.29335   0.01267  Uiso   1.00
C85    C     0.77220   0.64764   0.41649   0.01267  Uiso   1.00
C86    C     0.77100   0.40216   0.47337   0.01267  Uiso   1.00
C87    C     0.25000   0.25000   0.28318   0.01267  Uiso   1.00
C88    C     0.01600   0.31010   0.03479   0.01267  Uiso   1.00
C89    C     0.77500   0.79120   0.19280   0.01267  Uiso   1.00
C90    C     0.61360   0.95730   0.51484   0.01267  Uiso   1.00
C91    C     0.01530   0.79780   0.65530   0.01267  Uiso   1.00
C92    C     0.77350   0.02128   0.49691   0.01267  Uiso   1.00
C93    C     0.75000   0.25000   0.70924   0.01267  Uiso   1.00
C94    C     0.82510   0.23982   0.22508   0.01267  Uiso   1.00
C95    C     0.94860   0.38515   0.01297   0.01267  Uiso   1.00
C96    C     0.97960   0.28679   0.72249   0.01267  Uiso   1.00
C97    C     0.86440   0.96180   0.41702   0.01267  Uiso   1.00
C98    C     0.95020   0.34363   0.03440   0.01267  Uiso   1.00
C99    C     0.25000   0.75000   0.33068   0.01267  Uiso   1.00
C100   C     0.27600   0.84628   0.52502   0.01267  Uiso   1.00
C101   C     0.11460   0.77060   0.16404   0.01267  Uiso   1.00
C102   C     0.33410   0.99510   0.91232   0.01267  Uiso   1.00
C103   C     0.02560   0.72440   0.60000   0.01267  Uiso   1.00
C104   C     0.33050   0.79120   0.12717   0.01267  Uiso   1.00
C105   C     0.05370   0.76590   0.81811   0.01267  Uiso   1.00
C106   C     0.05200   0.26306   0.71213   0.01267  Uiso   1.00
C107   C     0.98280   0.60110   0.00844   0.01267  Uiso   1.00
C108   C     0.42050   0.37070   0.94710   0.01267  Uiso   1.00
C109   C     0.29660   0.33700   0.86600   0.01267  Uiso   1.00
C110   C     0.61800   0.68820   0.69180   0.01267  Uiso   1.00
C111   C     0.61460   0.27060   0.83596   0.01267  Uiso   1.00
C112   C     0.63560   0.53820   0.41702   0.01267  Uiso   1.00
C113   C     0.17650   0.78910   0.80515   0.01267  Uiso   1.00
C114   C     0.60710   0.33971   0.01169   0.01267  Uiso   1.00
C115   C     0.67860   0.59172   0.46812   0.01267  Uiso   1.00
C116   C     0.48470   0.29780   0.84470   0.01267  Uiso   1.00
C117   C     0.89170   0.69858   0.23338   0.01267  Uiso   1.00
C118   C     0.40190   0.16420   0.42190   0.01267  Uiso   1.00
C119   C     0.27660   0.79070   0.23560   0.01267  Uiso   1.00
C120   C     0.54160   0.61060   0.57580   0.01267  Uiso   1.00
C121   C     0.22530   0.14580   0.48141   0.01267  Uiso   1.00
C122   C     0.80830   0.33600   0.78267   0.01267  Uiso   1.00
C123   C     0.22650   0.02128   0.99691   0.01267  Uiso   1.00
C124   C     0.75000   0.75000   0.95050   0.01267  Uiso   1.00
C125   C     0.83050   0.70880   0.62717   0.01267  Uiso   1.00
C126   C     0.06090   0.89336   0.94304   0.01267  Uiso   1.00
C127   C     0.75730   0.82260   0.31388   0.01267  Uiso   1.00
C128   C     0.31440   0.50600   0.02702   0.01267  Uiso   1.00
C129   C     0.67650   0.28910   0.19485   0.01267  Uiso   1.00
C130   C     0.10830   0.69858   0.73338   0.01267  Uiso   1.00
C131   C     0.99300   0.76200   0.84440   0.01267  Uiso   1.00
C132   C     0.79820   0.52147   0.05608   0.01267  Uiso   1.00
C133   C     0.70180   0.02147   0.44392   0.01267  Uiso   1.00
C134   C     0.64800   0.87700   0.91030   0.01267  Uiso   1.00
C135   C     0.75000   0.25000   0.40215   0.01267  Uiso   1.00
C136   C     0.20180   0.52147   0.55608   0.01267  Uiso   1.00
C137   C     0.55140   0.88515   0.48703   0.01267  Uiso   1.00
C138   C     0.38540   0.27060   0.33596   0.01267  Uiso   1.00
C139   C     0.27500   0.70880   0.69280   0.01267  Uiso   1.00
C140   C     0.89130   0.33249   0.05574   0.01267  Uiso   1.00
C141   C     0.22900   0.40216   0.97337   0.01267  Uiso   1.00
C142   C     0.38410   0.70810   0.82675   0.01267  Uiso   1.00
C143   C     0.51530   0.29780   0.34470   0.01267  Uiso   1.00
C144   C     0.48280   0.10110   0.99156   0.01267  Uiso   1.00
C145   C     0.72400   0.15372   0.47498   0.01267  Uiso   1.00
C146   C     0.75730   0.17740   0.18612   0.01267  Uiso   1.00
C147   C     0.19170   0.66400   0.21733   0.01267  Uiso   1.00
C148   C     0.23230   0.92775   0.50112   0.01267  Uiso   1.00
C149   C     0.73230   0.42775   0.49888   0.01267  Uiso   1.00
C150   C     0.46000   0.10530   0.12790   0.01267  Uiso   1.00
C151   C     0.72530   0.35420   0.98141   0.01267  Uiso   1.00
C152   C     0.98470   0.79780   0.15530   0.01267  Uiso   1.00
C153   C     0.67010   0.36754   0.01006   0.01267  Uiso   1.00
C154   C     0.51600   0.81010   0.96521   0.01267  Uiso   1.00
C155   C     0.56090   0.60664   0.44304   0.01267  Uiso   1.00
C156   C     0.77420   0.20790   0.34385   0.01267  Uiso   1.00
C157   C     0.96000   0.60530   0.87210   0.01267  Uiso   1.00
C158   C     0.42700   0.95360   0.42050   0.01267  Uiso   1.00
C159   C     0.72900   0.09784   0.47337   0.01267  Uiso   1.00
C160   C     0.50290   0.59020   0.91900   0.01267  Uiso   1.00
C161   C     0.89290   0.83971   0.48831   0.01267  Uiso   1.00
C162   C     0.27450   0.79100   0.27261   0.01267  Uiso   1.00
C163   C     0.48400   0.81010   0.46521   0.01267  Uiso   1.00
C164   C     0.20020   0.83710   0.71350   0.01267  Uiso   1.00
C165   C     0.04470   0.73110   0.11853   0.01267  Uiso   1.00
C166   C     0.88200   0.18820   0.80820   0.01267  Uiso   1.00
C167   C     0.20010   0.10110   0.03053   0.01267  Uiso   1.00
C168   C     0.22550   0.29100   0.22739   0.01267  Uiso   1.00
C169   C     0.77660   0.29070   0.76440   0.01267  Uiso   1.00
C170   C     0.45030   0.26480   0.35401   0.01267  Uiso   1.00
C171   C     0.88640   0.45730   0.98516   0.01267  Uiso   1.00
C172   C     0.39540   0.79690   0.10912   0.01267  Uiso   1.00
C173   C     0.61030   0.21599   0.07704   0.01267  Uiso   1.00
C174   C     0.89830   0.79180   0.51100   0.01267  Uiso   1.00
C175   C     0.04970   0.23520   0.35401   0.01267  Uiso   1.00
C176   C     0.74060   0.99589   0.46943   0.01267  Uiso   1.00
C177   C     0.98280   0.05300   0.46450   0.01267  Uiso   1.00
C178   C     0.84610   0.60120   0.08273   0.01267  Uiso   1.00
C179   C     0.39130   0.16751   0.55574   0.01267  Uiso   1.00
C180   C     0.00700   0.23800   0.15560   0.01267  Uiso   1.00
C181   C     0.11590   0.79190   0.82675   0.01267  Uiso   1.00
C182   C     0.86440   0.03820   0.08298   0.01267  Uiso   1.00
C183   C     0.29980   0.33710   0.78650   0.01267  Uiso   1.00
C184   C     0.11590   0.20810   0.67325   0.01267  Uiso   1.00
C185   C     0.54000   0.10530   0.62790   0.01267  Uiso   1.00
C186   C     0.54970   0.26480   0.85401   0.01267  Uiso   1.00
C187   C     0.17010   0.13246   0.51006   0.01267  Uiso   1.00
C188   C     0.55370   0.73410   0.31811   0.01267  Uiso   1.00
C189   C     0.04000   0.39470   0.12790   0.01267  Uiso   1.00
C190   C     0.32990   0.36754   0.51006   0.01267  Uiso   1.00
C191   C     0.02040   0.28679   0.22249   0.01267  Uiso   1.00
C192   C     0.79980   0.16290   0.28650   0.01267  Uiso   1.00
C193   C     0.22500   0.20880   0.80720   0.01267  Uiso   1.00
C194   C     0.79990   0.10110   0.53053   0.01267  Uiso   1.00
C195   C     0.98400   0.68990   0.96521   0.01267  Uiso   1.00
C196   C     0.70020   0.66290   0.21350   0.01267  Uiso   1.00
C197   C     0.11360   0.45730   0.48516   0.01267  Uiso   1.00
C198   C     0.62400   0.57881   0.44467   0.01267  Uiso   1.00
C199   C     0.50700   0.73800   0.84440   0.01267  Uiso   1.00
C200   C     0.48280   0.44700   0.96450   0.01267  Uiso   1.00
C201   C     0.72400   0.84628   0.02502   0.01267  Uiso   1.00
C202   C     0.17010   0.86754   0.98994   0.01267  Uiso   1.00
C203   C     0.38810   0.08447   0.51287   0.01267  Uiso   1.00
C204   C     0.62400   0.42119   0.05533   0.01267  Uiso   1.00
C205   C     0.54980   0.15637   0.03440   0.01267  Uiso   1.00
C206   C     0.88730   0.26590   0.23372   0.01267  Uiso   1.00
C207   C     0.17450   0.74250   0.15463   0.01267  Uiso   1.00
C208   C     0.33080   0.13713   0.55564   0.01267  Uiso   1.00
C209   C     0.10870   0.33249   0.55574   0.01267  Uiso   1.00
C210   C     0.25000   0.75000   0.71137   0.01267  Uiso   1.00
C211   C     0.66590   0.99510   0.41232   0.01267  Uiso   1.00
C212   C     0.59810   0.16420   0.92190   0.01267  Uiso   1.00
C213   C     0.17490   0.23982   0.72508   0.01267  Uiso   1.00
C214   C     0.37600   0.57881   0.94467   0.01267  Uiso   1.00
C215   C     0.95020   0.65637   0.46560   0.01267  Uiso   1.00
C216   C     0.16590   0.49510   0.58768   0.01267  Uiso   1.00
C217   C     0.27470   0.35420   0.48141   0.01267  Uiso   1.00
C218   C     0.69600   0.07245   0.44589   0.01267  Uiso   1.00
C219   C     0.05140   0.61485   0.98703   0.01267  Uiso   1.00
C220   C     0.10830   0.30142   0.76662   0.01267  Uiso   1.00
C221   C     0.35200   0.12300   0.08970   0.01267  Uiso   1.00
C222   C     0.44630   0.26590   0.68189   0.01267  Uiso   1.00
C223   C     0.61030   0.78401   0.42296   0.01267  Uiso   1.00
C224   C     0.22780   0.64764   0.91649   0.01267  Uiso   1.00
C225   C     0.55250   0.35262   0.03514   0.01267  Uiso   1.00
C226   C     0.32990   0.63246   0.98994   0.01267  Uiso   1.00
C227   C     0.94800   0.73694   0.28787   0.01267  Uiso   1.00
C228   C     0.60830   0.80142   0.23338   0.01267  Uiso   1.00
C229   C     0.67080   0.90439   0.46579   0.01267  Uiso   1.00
C230   C     0.48280   0.89890   0.50844   0.01267  Uiso   1.00
C231   C     0.79820   0.47853   0.44392   0.01267  Uiso   1.00
C232   C     0.82990   0.86754   0.48994   0.01267  Uiso   1.00
C233   C     0.89290   0.16029   0.01169   0.01267  Uiso   1.00
C234   C     0.88040   0.82330   0.36110   0.01267  Uiso   1.00
C235   C     0.39170   0.19858   0.76662   0.01267  Uiso   1.00
C236   C     0.11960   0.17670   0.63890   0.01267  Uiso   1.00
C237   C     0.55200   0.23694   0.21213   0.01267  Uiso   1.00
C238   C     0.80400   0.42755   0.44589   0.01267  Uiso   1.00
C239   C     0.19600   0.57245   0.55411   0.01267  Uiso   1.00
C240   C     0.88540   0.77060   0.66404   0.01267  Uiso   1.00
C241   C     0.29780   0.83750   0.29335   0.01267  Uiso   1.00
C242   C     0.29990   0.39890   0.03053   0.01267  Uiso   1.00
C243   C     0.67650   0.71090   0.30515   0.01267  Uiso   1.00
C244   C     0.38040   0.32330   0.63890   0.01267  Uiso   1.00
C245   C     0.01720   0.39890   0.99156   0.01267  Uiso   1.00
C246   C     0.27450   0.20900   0.22739   0.01267  Uiso   1.00
C247   C     0.75000   0.75000   0.71682   0.01267  Uiso   1.00
C248   C     0.66950   0.20880   0.87283   0.01267  Uiso   1.00
C249   C     0.97440   0.72440   0.10000   0.01267  Uiso   1.00
C250   C     0.17860   0.09172   0.53188   0.01267  Uiso   1.00
C251   C     0.79660   0.16300   0.36600   0.01267  Uiso   1.00
C252   C     0.77500   0.20880   0.30720   0.01267  Uiso   1.00
C253   C     0.37600   0.42119   0.55533   0.01267  Uiso   1.00
C254   C     0.04980   0.65637   0.96560   0.01267  Uiso   1.00
C255   C     0.51720   0.44700   0.46450   0.01267  Uiso   1.00
C256   C     0.75000   0.75000   0.09785   0.01267  Uiso   1.00
C257   C     0.20020   0.16290   0.78650   0.01267  Uiso   1.00
C258   C     0.59810   0.83580   0.57810   0.01267  Uiso   1.00
C259   C     0.00290   0.09020   0.08100   0.01267  Uiso   1.00
C260   C     0.74060   0.00411   0.03057   0.01267  Uiso   1.00
C261   C     0.73230   0.57225   0.00112   0.01267  Uiso   1.00
C262   C     0.30830   0.83600   0.21733   0.01267  Uiso   1.00
C263   C     0.11800   0.18820   0.30820   0.01267  Uiso   1.00
C264   C     0.22340   0.70930   0.23560   0.01267  Uiso   1.00
C265   C     0.65390   0.89880   0.08273   0.01267  Uiso   1.00
C266   C     0.88810   0.41553   0.01287   0.01267  Uiso   1.00
C267   C     0.26650   0.17560   0.38430   0.01267  Uiso   1.00
C268   C     0.50700   0.26200   0.65560   0.01267  Uiso   1.00
C269   C     0.25000   0.25000   0.90215   0.01267  Uiso   1.00
C270   C     0.11460   0.22940   0.33596   0.01267  Uiso   1.00
C271   C     0.51660   0.32250   0.53660   0.01267  Uiso   1.00
C272   C     0.95840   0.88940   0.57580   0.01267  Uiso   1.00
C273   C     0.27420   0.29210   0.84385   0.01267  Uiso   1.00
C274   C     0.67080   0.09561   0.03421   0.01267  Uiso   1.00
C275   C     0.89130   0.66751   0.44426   0.01267  Uiso   1.00
C276   C     0.72580   0.29210   0.34385   0.01267  Uiso   1.00
C277   C     0.20340   0.83700   0.63400   0.01267  Uiso   1.00
C278   C     0.79780   0.33750   0.70665   0.01267  Uiso   1.00
C279   C     0.90190   0.33580   0.92190   0.01267  Uiso   1.00
C280   C     0.61460   0.72940   0.66404   0.01267  Uiso   1.00
C281   C     0.72900   0.90216   0.02663   0.01267  Uiso   1.00
C282   C     0.73350   0.17560   0.88430   0.01267  Uiso   1.00
C283   C     0.70180   0.97853   0.05608   0.01267  Uiso   1.00
C284   C     0.36440   0.53820   0.91702   0.01267  Uiso   1.00
C285   C     0.51720   0.55300   0.03550   0.01267  Uiso   1.00
C286   C     0.22340   0.29070   0.26440   0.01267  Uiso   1.00
C287   C     0.81440   0.99400   0.52702   0.01267  Uiso   1.00
C288   C     0.10460   0.29690   0.39088   0.01267  Uiso   1.00
C289   C     0.69600   0.92755   0.05411   0.01267  Uiso   1.00
C290   C     0.55200   0.76306   0.28787   0.01267  Uiso   1.00
C291   C     0.23350   0.32440   0.38430   0.01267  Uiso   1.00
C292   C     0.88810   0.58447   0.48713   0.01267  Uiso   1.00
C293   C     0.94750   0.85262   0.46486   0.01267  Uiso   1.00
C294   C     0.68560   0.50600   0.52702   0.01267  Uiso   1.00
C295   C     0.95030   0.76480   0.64599   0.01267  Uiso   1.00
C296   C     0.05250   0.85262   0.96486   0.01267  Uiso   1.00
C297   C     0.60870   0.83249   0.44426   0.01267  Uiso   1.00
C298   C     0.38540   0.72940   0.16404   0.01267  Uiso   1.00
C299   C     0.11960   0.82330   0.86110   0.01267  Uiso   1.00
C300   C     0.38040   0.67670   0.86110   0.01267  Uiso   1.00
C301   C     0.77470   0.14580   0.98141   0.01267  Uiso   1.00
C302   C     0.32510   0.26018   0.72508   0.01267  Uiso   1.00
C303   C     0.01720   0.94700   0.53550   0.01267  Uiso   1.00
C304   C     0.32140   0.59172   0.96812   0.01267  Uiso   1.00
C305   C     0.29990   0.60110   0.46947   0.01267  Uiso   1.00
C306   C     0.94630   0.76590   0.31811   0.01267  Uiso   1.00
C307   C     0.32920   0.90439   0.96579   0.01267  Uiso   1.00
C308   C     0.16950   0.29120   0.37283   0.01267  Uiso   1.00
C309   C     0.39830   0.29180   0.48900   0.01267  Uiso   1.00
C310   C     0.17450   0.25750   0.34537   0.01267  Uiso   1.00
C311   C     0.80400   0.57245   0.05411   0.01267  Uiso   1.00
C312   C     0.14800   0.37700   0.08970   0.01267  Uiso   1.00
C313   C     0.38730   0.23410   0.73372   0.01267  Uiso   1.00
C314   C     0.70020   0.33710   0.28650   0.01267  Uiso   1.00
C315   C     0.31440   0.49400   0.47298   0.01267  Uiso   1.00
C316   C     0.27100   0.90216   0.52663   0.01267  Uiso   1.00
C317   C     0.48340   0.67750   0.46340   0.01267  Uiso   1.00
C318   C     0.51530   0.70220   0.15530   0.01267  Uiso   1.00
C319   C     0.22550   0.70900   0.27261   0.01267  Uiso   1.00
C320   C     0.11190   0.41553   0.51287   0.01267  Uiso   1.00
C321   C     0.38200   0.68820   0.19180   0.01267  Uiso   1.00
C322   C     0.04470   0.26890   0.38147   0.01267  Uiso   1.00
C323   C     0.13560   0.96180   0.91702   0.01267  Uiso   1.00
C324   C     0.44860   0.11485   0.51297   0.01267  Uiso   1.00
C325   C     0.27100   0.09784   0.97337   0.01267  Uiso   1.00
C326   C     0.35200   0.87700   0.41030   0.01267  Uiso   1.00
C327   C     0.83050   0.29120   0.87283   0.01267  Uiso   1.00
C328   C     0.81440   0.00600   0.97298   0.01267  Uiso   1.00
C329   C     0.19600   0.42755   0.94589   0.01267  Uiso   1.00
C330   C     0.07300   0.54640   0.42050   0.01267  Uiso   1.00
C331   C     0.17080   0.59561   0.96579   0.01267  Uiso   1.00
C332   C     0.61960   0.32330   0.13890   0.01267  Uiso   1.00
C333   C     0.55140   0.11485   0.01297   0.01267  Uiso   1.00
C334   C     0.87600   0.92119   0.44467   0.01267  Uiso   1.00
C335   C     0.20340   0.16300   0.86600   0.01267  Uiso   1.00
C336   C     0.76650   0.32440   0.88430   0.01267  Uiso   1.00
C337   C     0.42700   0.04640   0.07950   0.01267  Uiso   1.00
C338   C     0.54000   0.89470   0.87210   0.01267  Uiso   1.00
C339   C     0.69170   0.83600   0.71733   0.01267  Uiso   1.00
C340   C     0.22580   0.79210   0.65615   0.01267  Uiso   1.00
C341   C     0.25000   0.75000   0.21682   0.01267  Uiso   1.00
C342   C     0.29820   0.97853   0.55608   0.01267  Uiso   1.00
C343   C     0.89170   0.30142   0.26662   0.01267  Uiso   1.00
C344   C     0.70340   0.33700   0.36600   0.01267  Uiso   1.00
C345   C     0.38810   0.91553   0.98713   0.01267  Uiso   1.00
C346   C     0.25000   0.25000   0.04950   0.01267  Uiso   1.00
C347   C     0.02040   0.71321   0.27751   0.01267  Uiso   1.00
C348   C     0.38640   0.04270   0.48516   0.01267  Uiso   1.00
C349   C     0.60710   0.66029   0.48831   0.01267  Uiso   1.00
C350   C     0.07950   0.12930   0.94710   0.01267  Uiso   1.00
C351   C     0.60170   0.29180   0.98900   0.01267  Uiso   1.00
C352   C     0.75000   0.25000   0.36167   0.01267  Uiso   1.00
C353   C     0.88970   0.28401   0.07704   0.01267  Uiso   1.00
C354   C     0.63560   0.46180   0.08298   0.01267  Uiso   1.00
C355   C     0.25730   0.32260   0.68612   0.01267  Uiso   1.00
C356   C     0.51600   0.18990   0.53479   0.01267  Uiso   1.00
C357   C     0.45840   0.38940   0.42420   0.01267  Uiso   1.00
C358   C     0.54970   0.73520   0.64599   0.01267  Uiso   1.00
C359   C     0.34610   0.10120   0.91727   0.01267  Uiso   1.00
C360   C     0.30400   0.92755   0.55411   0.01267  Uiso   1.00
C361   C     0.61270   0.23410   0.23372   0.01267  Uiso   1.00
C362   C     0.45530   0.23110   0.38147   0.01267  Uiso   1.00
C363   C     0.26650   0.82440   0.11570   0.01267  Uiso   1.00
C364   C     0.39130   0.83249   0.94426   0.01267  Uiso   1.00
C365   C     0.77100   0.59784   0.02663   0.01267  Uiso   1.00
C366   C     0.15390   0.60120   0.58273   0.01267  Uiso   1.00
C367   C     0.05370   0.23410   0.68189   0.01267  Uiso   1.00
C368   C     0.05200   0.73694   0.78787   0.01267  Uiso   1.00
C369   C     0.01530   0.20220   0.84470   0.01267  Uiso   1.00
C370   C     0.25940   0.00411   0.53057   0.01267  Uiso   1.00
C371   C     0.85200   0.62300   0.91030   0.01267  Uiso   1.00
C372   C     0.27220   0.85236   0.91649   0.01267  Uiso   1.00
C373   C     0.10170   0.79180   0.01100   0.01267  Uiso   1.00
C374   C     0.47440   0.77560   0.60000   0.01267  Uiso   1.00
C375   C     0.98280   0.94700   0.03550   0.01267  Uiso   1.00
C376   C     0.77450   0.29100   0.72739   0.01267  Uiso   1.00
C377   C     0.82550   0.25750   0.84537   0.01267  Uiso   1.00
C378   C     0.48470   0.70220   0.65530   0.01267  Uiso   1.00
C379   C     0.70010   0.60110   0.96947   0.01267  Uiso   1.00
C380   C     0.44800   0.23694   0.71213   0.01267  Uiso   1.00
C381   C     0.92700   0.45360   0.57950   0.01267  Uiso   1.00
C382   C     0.93910   0.89336   0.44304   0.01267  Uiso   1.00
C383   C     0.49300   0.73800   0.34440   0.01267  Uiso   1.00
C384   C     0.72650   0.47872   0.49691   0.01267  Uiso   1.00
C385   C     0.83410   0.50490   0.41232   0.01267  Uiso   1.00
C386   C     0.20180   0.47853   0.94392   0.01267  Uiso   1.00
C387   C     0.70220   0.83750   0.79335   0.01267  Uiso   1.00
C388   C     0.51720   0.89890   0.00844   0.01267  Uiso   1.00
C389   C     0.88200   0.81180   0.69180   0.01267  Uiso   1.00
C390   C     0.88730   0.73410   0.26628   0.01267  Uiso   1.00
C391   C     0.22580   0.20790   0.84385   0.01267  Uiso   1.00
C392   C     0.75000   0.25000   0.28863   0.01267  Uiso   1.00
C393   C     0.73350   0.82440   0.61570   0.01267  Uiso   1.00
C394   C     0.09810   0.66420   0.07810   0.01267  Uiso   1.00
C395   C     0.83410   0.49510   0.08768   0.01267  Uiso   1.00
C396   C     0.76770   0.92775   0.00112   0.01267  Uiso   1.00
C397   C     0.95030   0.23520   0.85401   0.01267  Uiso   1.00
C398   C     0.94800   0.26306   0.21213   0.01267  Uiso   1.00
C399   C     0.77470   0.85420   0.51859   0.01267  Uiso   1.00
C400   C     0.36440   0.46180   0.58298   0.01267  Uiso   1.00
C401   C     0.25730   0.67740   0.81388   0.01267  Uiso   1.00
C402   C     0.44750   0.35262   0.53514   0.01267  Uiso   1.00
C403   C     0.10870   0.66751   0.94426   0.01267  Uiso   1.00
C404   C     0.66920   0.86287   0.44436   0.01267  Uiso   1.00
C405   C     0.47960   0.78679   0.27751   0.01267  Uiso   1.00
C406   C     0.72650   0.52128   0.00309   0.01267  Uiso   1.00
C407   C     0.93910   0.10664   0.05696   0.01267  Uiso   1.00
C408   C     0.82550   0.74250   0.65463   0.01267  Uiso   1.00
C409   C     0.99300   0.23800   0.65560   0.01267  Uiso   1.00
C410   C     0.44860   0.88515   0.98703   0.01267  Uiso   1.00
C411   C     0.48340   0.32250   0.03660   0.01267  Uiso   1.00
C412   C     0.75940   0.49589   0.03057   0.01267  Uiso   1.00
C413   C     0.01720   0.60110   0.50844   0.01267  Uiso   1.00
C414   C     0.57950   0.62930   0.05290   0.01267  Uiso   1.00
C415   C     0.25000   0.75000   0.29076   0.01267  Uiso   1.00
C416   C     0.75940   0.50411   0.46943   0.01267  Uiso   1.00
C417   C     0.01720   0.05300   0.96450   0.01267  Uiso   1.00
C418   C     0.80830   0.66400   0.71733   0.01267  Uiso   1.00
C419   C     0.60460   0.79690   0.60912   0.01267  Uiso   1.00
C420   C     0.82350   0.78910   0.30515   0.01267  Uiso   1.00
C421   C     0.20220   0.33750   0.20665   0.01267  Uiso   1.00
C422   C     0.34610   0.89880   0.58273   0.01267  Uiso   1.00
C423   C     0.17650   0.21090   0.69485   0.01267  Uiso   1.00
C424   C     0.54160   0.38940   0.92420   0.01267  Uiso   1.00
C425   C     0.25940   0.99589   0.96943   0.01267  Uiso   1.00
C426   C     0.79990   0.89890   0.96947   0.01267  Uiso   1.00
C427   C     0.42050   0.62930   0.55290   0.01267  Uiso   1.00
C428   C     0.55250   0.64738   0.46486   0.01267  Uiso   1.00
C429   C     0.75000   0.75000   0.79076   0.01267  Uiso   1.00
C430   C     0.11800   0.81180   0.19180   0.01267  Uiso   1.00
C431   C     0.27470   0.64580   0.01859   0.01267  Uiso   1.00
C432   C     0.60170   0.70820   0.51100   0.01267  Uiso   1.00
C433   C     0.49710   0.40980   0.08100   0.01267  Uiso   1.00
C434   C     0.27420   0.70790   0.65615   0.01267  Uiso   1.00
C435   C     0.61590   0.29190   0.17325   0.01267  Uiso   1.00
C436   C     0.48280   0.55300   0.53550   0.01267  Uiso   1.00
C437   C     0.24270   0.82260   0.81388   0.01267  Uiso   1.00
C438   C     0.88410   0.20810   0.17325   0.01267  Uiso   1.00
C439   C     0.38410   0.29190   0.67325   0.01267  Uiso   1.00
C440   C     0.89540   0.29690   0.89088   0.01267  Uiso   1.00
C441   C     0.88040   0.17670   0.13890   0.01267  Uiso   1.00
C442   C     0.95530   0.73110   0.61853   0.01267  Uiso   1.00
C443   C     0.10460   0.70310   0.10912   0.01267  Uiso   1.00
C444   C     0.20010   0.89890   0.46947   0.01267  Uiso   1.00
C445   C     0.01660   0.82250   0.46340   0.01267  Uiso   1.00
C446   C     0.29660   0.66300   0.63400   0.01267  Uiso   1.00
C447   C     0.10710   0.16029   0.51169   0.01267  Uiso   1.00
C448   C     0.22780   0.35236   0.58351   0.01267  Uiso   1.00
C449   C     0.66590   0.00490   0.08768   0.01267  Uiso   1.00
C450   C     0.11030   0.71599   0.92296   0.01267  Uiso   1.00
C451   C     0.33080   0.86287   0.94436   0.01267  Uiso   1.00
C452   C     0.27500   0.29120   0.80720   0.01267  Uiso   1.00
C453   C     0.23230   0.07225   0.99888   0.01267  Uiso   1.00
C454   C     0.19170   0.33600   0.28267   0.01267  Uiso   1.00
C455   C     0.79980   0.83710   0.21350   0.01267  Uiso   1.00
C456   C     0.09810   0.33580   0.42190   0.01267  Uiso   1.00
C457   C     0.38640   0.95730   0.01484   0.01267  Uiso   1.00
C458   C     0.61270   0.76590   0.26628   0.01267  Uiso   1.00
C459   C     0.38970   0.78401   0.92296   0.01267  Uiso   1.00
C460   C     0.66920   0.13713   0.05564   0.01267  Uiso   1.00
C461   C     0.45840   0.61060   0.07580   0.01267  Uiso   1.00
C462   C     0.43910   0.60664   0.94304   0.01267  Uiso   1.00
C463   C     0.17490   0.76018   0.77492   0.01267  Uiso   1.00
C464   C     0.25000   0.25000   0.78863   0.01267  Uiso   1.00
C465   C     0.82920   0.59561   0.46579   0.01267  Uiso   1.00
C466   C     0.22500   0.79120   0.69280   0.01267  Uiso   1.00
C467   C     0.57300   0.04640   0.57950   0.01267  Uiso   1.00
C468   C     0.27600   0.15372   0.97498   0.01267  Uiso   1.00
C469   C     0.61800   0.31180   0.80820   0.01267  Uiso   1.00
C470   C     0.17860   0.90828   0.96812   0.01267  Uiso   1.00
C471   C     0.04980   0.34363   0.53440   0.01267  Uiso   1.00
C472   C     0.54470   0.76890   0.61853   0.01267  Uiso   1.00
C473   C     0.32350   0.71090   0.80515   0.01267  Uiso   1.00
C474   C     0.04160   0.88940   0.07580   0.01267  Uiso   1.00
C475   C     0.00700   0.76200   0.34440   0.01267  Uiso   1.00
C476   C     0.57950   0.37070   0.44710   0.01267  Uiso   1.00
C477   C     0.39830   0.70820   0.01100   0.01267  Uiso   1.00
C478   C     0.88970   0.71599   0.42296   0.01267  Uiso   1.00
C479   C     0.25000   0.75000   0.59785   0.01267  Uiso   1.00
C480   C     0.67010   0.63246   0.48994   0.01267  Uiso   1.00
C481   C     0.87600   0.07881   0.05533   0.01267  Uiso   1.00
C482   C     0.77600   0.34628   0.47498   0.01267  Uiso   1.00
C483   C     0.52040   0.21321   0.72249   0.01267  Uiso   1.00
C484   C     0.04970   0.76480   0.14599   0.01267  Uiso   1.00
C485   C     0.39170   0.80142   0.73338   0.01267  Uiso   1.00
C486   C     0.55370   0.26590   0.18189   0.01267  Uiso   1.00
C487   C     0.60870   0.16751   0.05574   0.01267  Uiso   1.00
C488   C     0.25000   0.25000   0.86167   0.01267  Uiso   1.00
C489   C     0.94860   0.61485   0.48703   0.01267  Uiso   1.00
C490   C     0.72780   0.14764   0.08351   0.01267  Uiso   1.00
C491   C     0.98400   0.31010   0.53479   0.01267  Uiso   1.00
C492   C     0.22530   0.85420   0.01859   0.01267  Uiso   1.00
C493   C     0.77450   0.70900   0.77261   0.01267  Uiso   1.00
C494   C     0.29980   0.66290   0.71350   0.01267  Uiso   1.00
C495   C     0.40190   0.83580   0.07810   0.01267  Uiso   1.00
C496   C     0.82990   0.13246   0.01006   0.01267  Uiso   1.00
C497   C     0.65390   0.10120   0.41727   0.01267  Uiso   1.00
C498   C     0.82920   0.40439   0.03421   0.01267  Uiso   1.00
C499   C     0.06090   0.10664   0.55696   0.01267  Uiso   1.00
C500   C     0.72780   0.85236   0.41649   0.01267  Uiso   1.00
C501   C     0.04000   0.60530   0.37210   0.01267  Uiso   1.00
C502   C     0.38200   0.31180   0.30820   0.01267  Uiso   1.00
C503   C     0.88540   0.22940   0.83596   0.01267  Uiso   1.00
C504   C     0.22900   0.59784   0.52663   0.01267  Uiso   1.00
C505   C     0.43910   0.39336   0.55696   0.01267  Uiso   1.00
C506   C     0.26770   0.57225   0.50112   0.01267  Uiso   1.00
C507   C     0.75000   0.25000   0.54950   0.01267  Uiso   1.00
C508   C     0.30830   0.16400   0.28267   0.01267  Uiso   1.00
C509   C     0.67490   0.26018   0.22508   0.01267  Uiso   1.00
C510   C     0.88640   0.54270   0.51484   0.01267  Uiso   1.00
C511   C     0.97960   0.71321   0.77751   0.01267  Uiso   1.00
C512   C     0.70010   0.39890   0.53053   0.01267  Uiso   1.00
C513   C     0.61190   0.08447   0.01287   0.01267  Uiso   1.00
C514   C     0.77220   0.35236   0.08351   0.01267  Uiso   1.00
C515   C     0.72550   0.20900   0.72739   0.01267  Uiso   1.00
C516   C     0.32510   0.73982   0.77492   0.01267  Uiso   1.00
C517   C     0.88410   0.79190   0.32675   0.01267  Uiso   1.00
C518   C     0.39540   0.20310   0.39088   0.01267  Uiso   1.00
C519   C     0.67490   0.73982   0.27492   0.01267  Uiso   1.00
C520   C     0.54980   0.84363   0.46560   0.01267  Uiso   1.00
C521   C     0.05250   0.14738   0.53514   0.01267  Uiso   1.00
C522   C     0.77420   0.79210   0.15615   0.01267  Uiso   1.00
C523   C     0.17080   0.40439   0.53421   0.01267  Uiso   1.00
C524   C     0.12400   0.92119   0.94467   0.01267  Uiso   1.00
C525   C     0.57300   0.95360   0.92050   0.01267  Uiso   1.00
C526   C     0.76770   0.07225   0.49888   0.01267  Uiso   1.00
C527   C     0.11360   0.54270   0.01484   0.01267  Uiso   1.00
C528   C     0.79780   0.66250   0.79335   0.01267  Uiso   1.00
C529   C     0.30400   0.07245   0.94589   0.01267  Uiso   1.00
C530   C     0.47440   0.22440   0.90000   0.01267  Uiso   1.00
C531   C     0.16590   0.50490   0.91232   0.01267  Uiso   1.00
C532   C     0.52560   0.77560   0.10000   0.01267  Uiso   1.00
C533   C     0.72550   0.79100   0.77261   0.01267  Uiso   1.00
C534   C     0.27350   0.47872   0.99691   0.01267  Uiso   1.00
C535   C     0.75000   0.25000   0.78318   0.01267  Uiso   1.00
C536   C     0.46000   0.89470   0.37210   0.01267  Uiso   1.00
C537   C     0.72530   0.64580   0.51859   0.01267  Uiso   1.00
C538   C     0.32920   0.09561   0.53421   0.01267  Uiso   1.00
C539   C     0.72340   0.20930   0.76440   0.01267  Uiso   1.00
C540   C     0.38730   0.76590   0.76628   0.01267  Uiso   1.00
C541   C     0.00290   0.90980   0.41900   0.01267  Uiso   1.00
C542   C     0.07950   0.87070   0.55290   0.01267  Uiso   1.00
C543   C     0.45020   0.84363   0.96560   0.01267  Uiso   1.00
C544   C     0.72580   0.70790   0.15615   0.01267  Uiso   1.00
C545   C     0.96000   0.39470   0.62790   0.01267  Uiso   1.00
C546   C     0.25000   0.75000   0.63833   0.01267  Uiso   1.00
C547   C     0.52040   0.78679   0.77751   0.01267  Uiso   1.00
C548   C     0.13560   0.03820   0.58298   0.01267  Uiso   1.00
C549   C     0.56090   0.39336   0.05696   0.01267  Uiso   1.00
C550   C     0.11030   0.28401   0.57704   0.01267  Uiso   1.00
C551   C     0.26770   0.42775   0.99888   0.01267  Uiso   1.00
C552   C     0.72340   0.79070   0.73560   0.01267  Uiso   1.00
C553   C     0.22650   0.97872   0.50309   0.01267  Uiso   1.00
C554   C     0.44800   0.76306   0.78787   0.01267  Uiso   1.00
C555   C     0.48400   0.18990   0.03479   0.01267  Uiso   1.00
C556   C     0.60460   0.20310   0.89088   0.01267  Uiso   1.00
C557   C     0.72500   0.29120   0.30720   0.01267  Uiso   1.00
C558   C     0.11270   0.73410   0.76628   0.01267  Uiso   1.00
C559   C     0.98280   0.39890   0.49156   0.01267  Uiso   1.00
C560   C     0.92050   0.12930   0.44710   0.01267  Uiso   1.00
C561   C     0.83080   0.36287   0.05564   0.01267  Uiso   1.00
C562   C     0.47960   0.21321   0.22249   0.01267  Uiso   1.00
C563   C     0.32140   0.40828   0.53188   0.01267  Uiso   1.00
C564   C     0.02560   0.27560   0.90000   0.01267  Uiso   1.00
C565   C     0.61590   0.70810   0.32675   0.01267  Uiso   1.00
C566   C     0.29780   0.16250   0.20665   0.01267  Uiso   1.00
C567   C     0.89540   0.70310   0.60912   0.01267  Uiso   1.00
C568   C     0.49710   0.59020   0.41900   0.01267  Uiso   1.00
C569   C     0.22400   0.65372   0.52502   0.01267  Uiso   1.00
C570   C     0.50290   0.40980   0.58100   0.01267  Uiso   1.00
C571   C     0.67450   0.75750   0.65463   0.01267  Uiso   1.00
C572   C     0.64800   0.12300   0.58970   0.01267  Uiso   1.00
C573   C     0.10170   0.20820   0.48900   0.01267  Uiso   1.00
C574   C     0.85200   0.37700   0.58970   0.01267  Uiso   1.00
C575   C     0.77600   0.65372   0.02502   0.01267  Uiso   1.00
C576   C     0.54470   0.23110   0.88147   0.01267  Uiso   1.00
C577   C     0.32550   0.24250   0.34537   0.01267  Uiso   1.00
C578   C     0.98340   0.82250   0.96340   0.01267  Uiso   1.00
C579   C     0.16920   0.36287   0.55564   0.01267  Uiso   1.00
C580   C     0.45020   0.15637   0.53440   0.01267  Uiso   1.00
N1     N     0.01770   0.90410   0.55650   0.01267  Uiso   1.00
N2     N     0.98230   0.90410   0.05650   0.01267  Uiso   1.00
N3     N     0.48230   0.59590   0.55650   0.01267  Uiso   1.00
N4     N     0.98230   0.09590   0.44350   0.01267  Uiso   1.00
N5     N     0.48230   0.40410   0.94350   0.01267  Uiso   1.00
N6     N     0.39870   0.91730   0.39420   0.01267  Uiso   1.00
N7     N     0.60130   0.08270   0.60580   0.01267  Uiso   1.00
N8     N     0.51770   0.40410   0.44350   0.01267  Uiso   1.00
N9     N     0.51770   0.59590   0.05650   0.01267  Uiso   1.00
N10    N     0.89870   0.41730   0.60580   0.01267  Uiso   1.00
N11    N     0.10130   0.41730   0.10580   0.01267  Uiso   1.00
N12    N     0.89870   0.58270   0.89420   0.01267  Uiso   1.00
N13    N     0.01770   0.09590   0.94350   0.01267  Uiso   1.00
N14    N     0.60130   0.91730   0.89420   0.01267  Uiso   1.00
N15    N     0.10130   0.58270   0.39420   0.01267  Uiso   1.00
N16    N     0.39870   0.08270   0.10580   0.01267  Uiso   1.00
O1     O     0.17480   0.84000   0.39370   0.01267  Uiso   1.00
O2     O     0.07860   0.82880   0.56610   0.01267  Uiso   1.00
O3     O     0.44480   0.67930   0.49060   0.01267  Uiso   1.00
O4     O     0.45810   0.29990   0.14720   0.01267  Uiso   1.00
O5     O     0.82520   0.84000   0.89370   0.01267  Uiso   1.00
O6     O     0.03270   0.26920   0.93100   0.01267  Uiso   1.00
O7     O     0.18900   0.75390   0.46570   0.01267  Uiso   1.00
O8     O     0.42140   0.32880   0.93390   0.01267  Uiso   1.00
O9     O     0.03120   0.28720   0.00690   0.01267  Uiso   1.00
O10    O     0.94860   0.30830   0.56300   0.01267  Uiso   1.00
O11    O     0.44480   0.32070   0.00940   0.01267  Uiso   1.00
O12    O     0.04190   0.79990   0.35280   0.01267  Uiso   1.00
O13    O     0.42140   0.67120   0.56610   0.01267  Uiso   1.00
O14    O     0.46880   0.21280   0.00690   0.01267  Uiso   1.00
O15    O     0.94480   0.82070   0.99060   0.01267  Uiso   1.00
O16    O     0.45810   0.70010   0.35280   0.01267  Uiso   1.00
O17    O     0.21920   0.82180   0.52760   0.01267  Uiso   1.00
O18    O     0.75000   0.75000   0.91650   0.01267  Uiso   1.00
O19    O     0.53210   0.69860   0.93470   0.01267  Uiso   1.00
O20    O     0.69170   0.23990   0.41770   0.01267  Uiso   1.00
O21    O     0.95810   0.79990   0.85280   0.01267  Uiso   1.00
O22    O     0.17480   0.16000   0.10630   0.01267  Uiso   1.00
O23    O     0.69170   0.76010   0.08230   0.01267  Uiso   1.00
O24    O     0.19170   0.26010   0.91770   0.01267  Uiso   1.00
O25    O     0.78080   0.82180   0.02760   0.01267  Uiso   1.00
O26    O     0.81100   0.24610   0.53430   0.01267  Uiso   1.00
O27    O     0.46880   0.78720   0.49310   0.01267  Uiso   1.00
O28    O     0.25000   0.25000   0.08350   0.01267  Uiso   1.00
O29    O     0.55140   0.19170   0.56300   0.01267  Uiso   1.00
O30    O     0.69000   0.74930   0.84520   0.01267  Uiso   1.00
O31    O     0.68900   0.74610   0.96570   0.01267  Uiso   1.00
O32    O     0.69000   0.25070   0.65480   0.01267  Uiso   1.00
O33    O     0.81000   0.24930   0.65480   0.01267  Uiso   1.00
O34    O     0.96790   0.19860   0.56530   0.01267  Uiso   1.00
O35    O     0.66440   0.16070   0.60900   0.01267  Uiso   1.00
O36    O     0.57860   0.32880   0.43390   0.01267  Uiso   1.00
O37    O     0.31100   0.74610   0.46570   0.01267  Uiso   1.00
O38    O     0.31000   0.74930   0.34520   0.01267  Uiso   1.00
O39    O     0.16310   0.67230   0.52080   0.01267  Uiso   1.00
O40    O     0.41880   0.78890   0.62090   0.01267  Uiso   1.00
O41    O     0.83690   0.32770   0.47920   0.01267  Uiso   1.00
O42    O     0.33690   0.82770   0.52080   0.01267  Uiso   1.00
O43    O     0.05520   0.82070   0.49060   0.01267  Uiso   1.00
O44    O     0.54190   0.29990   0.64720   0.01267  Uiso   1.00
O45    O     0.03270   0.73080   0.56900   0.01267  Uiso   1.00
O46    O     0.08120   0.28890   0.87910   0.01267  Uiso   1.00
O47    O     0.55140   0.80830   0.93700   0.01267  Uiso   1.00
O48    O     0.33560   0.83930   0.39100   0.01267  Uiso   1.00
O49    O     0.44860   0.80830   0.43700   0.01267  Uiso   1.00
O50    O     0.71920   0.32180   0.47240   0.01267  Uiso   1.00
O51    O     0.94860   0.69170   0.93700   0.01267  Uiso   1.00
O52    O     0.96880   0.28720   0.50690   0.01267  Uiso   1.00
O53    O     0.67480   0.34000   0.60630   0.01267  Uiso   1.00
O54    O     0.58120   0.78890   0.12090   0.01267  Uiso   1.00
O55    O     0.95810   0.20010   0.64720   0.01267  Uiso   1.00
O56    O     0.96880   0.71280   0.99310   0.01267  Uiso   1.00
O57    O     0.16310   0.32770   0.97920   0.01267  Uiso   1.00
O58    O     0.94480   0.17930   0.50940   0.01267  Uiso   1.00
O59    O     0.52190   0.22090   0.64180   0.01267  Uiso   1.00
O60    O     0.32520   0.66000   0.39370   0.01267  Uiso   1.00
O61    O     0.96730   0.73080   0.06900   0.01267  Uiso   1.00
O62    O     0.71920   0.67820   0.02760   0.01267  Uiso   1.00
O63    O     0.33690   0.17230   0.97920   0.01267  Uiso   1.00
O64    O     0.16440   0.33930   0.10900   0.01267  Uiso   1.00
O65    O     0.96730   0.26920   0.43100   0.01267  Uiso   1.00
O66    O     0.47810   0.77910   0.35820   0.01267  Uiso   1.00
O67    O     0.83560   0.33930   0.60900   0.01267  Uiso   1.00
O68    O     0.08120   0.71110   0.62090   0.01267  Uiso   1.00
O69    O     0.46790   0.30140   0.06530   0.01267  Uiso   1.00
O70    O     0.96790   0.80140   0.93470   0.01267  Uiso   1.00
O71    O     0.05140   0.69170   0.43700   0.01267  Uiso   1.00
O72    O     0.57860   0.67120   0.06610   0.01267  Uiso   1.00
O73    O     0.07860   0.17120   0.93390   0.01267  Uiso   1.00
O74    O     0.92140   0.82880   0.06610   0.01267  Uiso   1.00
O75    O     0.75000   0.25000   0.58350   0.01267  Uiso   1.00
O76    O     0.30830   0.76010   0.58230   0.01267  Uiso   1.00
O77    O     0.83690   0.67230   0.02080   0.01267  Uiso   1.00
O78    O     0.80830   0.73990   0.08230   0.01267  Uiso   1.00
O79    O     0.66440   0.83930   0.89100   0.01267  Uiso   1.00
O80    O     0.25000   0.75000   0.41650   0.01267  Uiso   1.00
O81    O     0.02190   0.27910   0.14180   0.01267  Uiso   1.00
O82    O     0.02190   0.72090   0.35820   0.01267  Uiso   1.00
O83    O     0.05520   0.17930   0.00940   0.01267  Uiso   1.00
O84    O     0.41880   0.21110   0.87910   0.01267  Uiso   1.00
O85    O     0.55520   0.32070   0.50940   0.01267  Uiso   1.00
O86    O     0.53120   0.78720   0.99310   0.01267  Uiso   1.00
O87    O     0.46730   0.23080   0.93100   0.01267  Uiso   1.00
O88    O     0.91880   0.28890   0.37910   0.01267  Uiso   1.00
O89    O     0.44860   0.19170   0.06300   0.01267  Uiso   1.00
O90    O     0.04190   0.20010   0.14720   0.01267  Uiso   1.00
O91    O     0.91880   0.71110   0.12090   0.01267  Uiso   1.00
O92    O     0.97810   0.27910   0.64180   0.01267  Uiso   1.00
O93    O     0.81000   0.75070   0.84520   0.01267  Uiso   1.00
O94    O     0.55520   0.67930   0.99060   0.01267  Uiso   1.00
O95    O     0.18900   0.24610   0.03430   0.01267  Uiso   1.00
O96    O     0.83560   0.66070   0.89100   0.01267  Uiso   1.00
O97    O     0.30830   0.23990   0.91770   0.01267  Uiso   1.00
O98    O     0.16440   0.66070   0.39100   0.01267  Uiso   1.00
O99    O     0.53270   0.76920   0.06900   0.01267  Uiso   1.00
O100   O     0.19170   0.73990   0.58230   0.01267  Uiso   1.00
O101   O     0.03120   0.71280   0.49310   0.01267  Uiso   1.00
O102   O     0.21920   0.17820   0.97240   0.01267  Uiso   1.00
O103   O     0.54190   0.70010   0.85280   0.01267  Uiso   1.00
O104   O     0.03210   0.19860   0.06530   0.01267  Uiso   1.00
O105   O     0.19000   0.75070   0.34520   0.01267  Uiso   1.00
O106   O     0.97810   0.72090   0.85820   0.01267  Uiso   1.00
O107   O     0.53120   0.21280   0.50690   0.01267  Uiso   1.00
O108   O     0.31100   0.25390   0.03430   0.01267  Uiso   1.00
O109   O     0.03210   0.80140   0.43470   0.01267  Uiso   1.00
O110   O     0.52190   0.77910   0.85820   0.01267  Uiso   1.00
O111   O     0.05140   0.30830   0.06300   0.01267  Uiso   1.00
O112   O     0.66310   0.82770   0.02080   0.01267  Uiso   1.00
O113   O     0.92140   0.17120   0.43390   0.01267  Uiso   1.00
O114   O     0.31000   0.25070   0.15480   0.01267  Uiso   1.00
O115   O     0.46730   0.76920   0.56900   0.01267  Uiso   1.00
O116   O     0.28080   0.32180   0.97240   0.01267  Uiso   1.00
O117   O     0.68900   0.25390   0.53430   0.01267  Uiso   1.00
O118   O     0.28080   0.67820   0.52760   0.01267  Uiso   1.00
O119   O     0.33560   0.16070   0.10900   0.01267  Uiso   1.00
O120   O     0.19000   0.24930   0.15480   0.01267  Uiso   1.00
O121   O     0.32520   0.34000   0.10630   0.01267  Uiso   1.00
O122   O     0.66310   0.17230   0.47920   0.01267  Uiso   1.00
O123   O     0.81100   0.75390   0.96570   0.01267  Uiso   1.00
O124   O     0.53210   0.30140   0.56530   0.01267  Uiso   1.00
O125   O     0.80830   0.26010   0.41770   0.01267  Uiso   1.00
O126   O     0.47810   0.22090   0.14180   0.01267  Uiso   1.00
O127   O     0.78080   0.17820   0.47240   0.01267  Uiso   1.00
O128   O     0.53270   0.23080   0.43100   0.01267  Uiso   1.00
O129   O     0.58120   0.21110   0.37910   0.01267  Uiso   1.00
O130   O     0.46790   0.69860   0.43470   0.01267  Uiso   1.00
O131   O     0.82520   0.16000   0.60630   0.01267  Uiso   1.00
O132   O     0.67480   0.66000   0.89370   0.01267  Uiso   1.00
H689   H     0.01030   0.92090   0.27980   0.01267  Uiso   1.00
H690   H     0.14970   0.88550   0.34230   0.01267  Uiso   1.00
H691   H     0.01800   0.87390   0.25610   0.01267  Uiso   1.00
H692   H     0.98150   0.87000   0.29330   0.01267  Uiso   1.00
H693   H     0.06690   0.87760   0.34930   0.01267  Uiso   1.00
H694   H     0.09490   0.92840   0.33520   0.01267  Uiso   1.00
C581   C     0.01900   0.88610   0.27990   0.01267  Uiso   1.00
C582   C     0.10200   0.89340   0.33440   0.01267  Uiso   1.00
N17    N     0.09200   0.87540   0.29640   0.01267  Uiso   1.00
H695   H     0.98200   0.87390   0.75610   0.01267  Uiso   1.00
H696   H     0.85030   0.88550   0.84230   0.01267  Uiso   1.00
H697   H     0.93310   0.87760   0.84930   0.01267  Uiso   1.00
H698   H     0.98970   0.92090   0.77980   0.01267  Uiso   1.00
H699   H     0.01850   0.87000   0.79330   0.01267  Uiso   1.00
H700   H     0.90510   0.92840   0.83520   0.01267  Uiso   1.00
C583   C     0.89800   0.89340   0.83440   0.01267  Uiso   1.00
C584   C     0.98100   0.88610   0.77990   0.01267  Uiso   1.00
N18    N     0.90800   0.87540   0.79640   0.01267  Uiso   1.00
H701   H     0.98150   0.13000   0.20670   0.01267  Uiso   1.00
H702   H     0.01030   0.07910   0.22020   0.01267  Uiso   1.00
H703   H     0.09490   0.07160   0.16480   0.01267  Uiso   1.00
H704   H     0.01800   0.12610   0.24390   0.01267  Uiso   1.00
H705   H     0.14970   0.11450   0.15770   0.01267  Uiso   1.00
H706   H     0.06690   0.12240   0.15070   0.01267  Uiso   1.00
C585   C     0.10200   0.10660   0.16560   0.01267  Uiso   1.00
C586   C     0.01900   0.11390   0.22010   0.01267  Uiso   1.00
N19    N     0.09200   0.12460   0.20360   0.01267  Uiso   1.00
H707   H     0.48970   0.42090   0.22020   0.01267  Uiso   1.00
H708   H     0.51850   0.37000   0.20670   0.01267  Uiso   1.00
H709   H     0.43310   0.37760   0.15070   0.01267  Uiso   1.00
H710   H     0.40510   0.42840   0.16480   0.01267  Uiso   1.00
H711   H     0.35030   0.38550   0.15770   0.01267  Uiso   1.00
H712   H     0.48200   0.37390   0.24390   0.01267  Uiso   1.00
C587   C     0.39800   0.39340   0.16560   0.01267  Uiso   1.00
C588   C     0.48100   0.38610   0.22010   0.01267  Uiso   1.00
N20    N     0.40800   0.37540   0.20360   0.01267  Uiso   1.00
H713   H     0.98200   0.12610   0.74390   0.01267  Uiso   1.00
H714   H     0.98970   0.07910   0.72020   0.01267  Uiso   1.00
H715   H     0.01850   0.13000   0.70670   0.01267  Uiso   1.00
H716   H     0.85030   0.11450   0.65770   0.01267  Uiso   1.00
H717   H     0.90510   0.07160   0.66480   0.01267  Uiso   1.00
H718   H     0.93310   0.12240   0.65070   0.01267  Uiso   1.00
C589   C     0.89800   0.10660   0.66560   0.01267  Uiso   1.00
C590   C     0.98100   0.11390   0.72010   0.01267  Uiso   1.00
N21    N     0.90800   0.12460   0.70360   0.01267  Uiso   1.00
H719   H     0.51800   0.37390   0.74390   0.01267  Uiso   1.00
H720   H     0.64970   0.38550   0.65770   0.01267  Uiso   1.00
H721   H     0.51030   0.42090   0.72020   0.01267  Uiso   1.00
H722   H     0.56690   0.37760   0.65070   0.01267  Uiso   1.00
H723   H     0.48150   0.37000   0.70670   0.01267  Uiso   1.00
H724   H     0.59490   0.42840   0.66480   0.01267  Uiso   1.00
C591   C     0.60200   0.39340   0.66560   0.01267  Uiso   1.00
C592   C     0.51900   0.38610   0.72010   0.01267  Uiso   1.00
N22    N     0.59200   0.37540   0.70360   0.01267  Uiso   1.00
H725   H     0.56690   0.62240   0.84930   0.01267  Uiso   1.00
H726   H     0.51030   0.57910   0.77980   0.01267  Uiso   1.00
H727   H     0.48150   0.63000   0.79330   0.01267  Uiso   1.00
H728   H     0.51800   0.62610   0.75610   0.01267  Uiso   1.00
H729   H     0.59490   0.57160   0.83520   0.01267  Uiso   1.00
H730   H     0.64970   0.61450   0.84230   0.01267  Uiso   1.00
C593   C     0.60200   0.60660   0.83440   0.01267  Uiso   1.00
C594   C     0.51900   0.61390   0.77990   0.01267  Uiso   1.00
N23    N     0.59200   0.62460   0.79640   0.01267  Uiso   1.00
H731   H     0.43310   0.62240   0.34930   0.01267  Uiso   1.00
H732   H     0.51850   0.63000   0.29330   0.01267  Uiso   1.00
H733   H     0.35030   0.61450   0.34230   0.01267  Uiso   1.00
H734   H     0.48200   0.62610   0.25610   0.01267  Uiso   1.00
H735   H     0.48970   0.57910   0.27980   0.01267  Uiso   1.00
H736   H     0.40510   0.57160   0.33520   0.01267  Uiso   1.00
C595   C     0.39800   0.60660   0.33440   0.01267  Uiso   1.00
C596   C     0.48100   0.61390   0.27990   0.01267  Uiso   1.00
N24    N     0.40800   0.62460   0.29640   0.01267  Uiso   1.00
