data_CIMTEZ_charged
_audit_creation_date              2015-10-16
_audit_creation_method            'Materials Studio'
_symmetry_space_group_name_H-M    'P1'
_symmetry_Int_Tables_number       1
_symmetry_cell_setting            triclinic
loop_
_symmetry_equiv_pos_as_xyz
  x,y,z
_cell_length_a                    18.2151
_cell_length_b                    27.2860
_cell_length_c                    37.6140
_cell_angle_alpha                 90.0000
_cell_angle_beta                  90.0000
_cell_angle_gamma                 90.0000
loop_
_atom_site_label
_atom_site_type_symbol
_atom_site_fract_x
_atom_site_fract_y
_atom_site_fract_z
_atom_site_U_iso_or_equiv
_atom_site_adp_type
_atom_site_occupancy
Nd1    Nd    0.62616   0.24457   0.52671   0.01267  Uiso   1.00
Nd2    Nd    0.12616   0.74457   0.47329   0.01267  Uiso   1.00
Nd3    Nd    0.12156   0.25160   0.90436   0.01267  Uiso   1.00
Nd4    Nd    0.12616   0.25543   0.02671   0.01267  Uiso   1.00
Nd5    Nd    0.87844   0.74840   0.09564   0.01267  Uiso   1.00
Nd6    Nd    0.62156   0.24840   0.40436   0.01267  Uiso   1.00
Nd7    Nd    0.62616   0.75543   0.97329   0.01267  Uiso   1.00
Nd8    Nd    0.12156   0.74840   0.59564   0.01267  Uiso   1.00
Nd9    Nd    0.37384   0.24457   0.02671   0.01267  Uiso   1.00
Nd10   Nd    0.87384   0.74457   0.97329   0.01267  Uiso   1.00
Nd11   Nd    0.87844   0.25160   0.40436   0.01267  Uiso   1.00
Nd12   Nd    0.87384   0.25543   0.52671   0.01267  Uiso   1.00
Nd13   Nd    0.37844   0.75160   0.59564   0.01267  Uiso   1.00
Nd14   Nd    0.62156   0.75160   0.09564   0.01267  Uiso   1.00
Nd15   Nd    0.37384   0.75543   0.47329   0.01267  Uiso   1.00
Nd16   Nd    0.37844   0.24840   0.90436   0.01267  Uiso   1.00
B1     B     0.75000   0.75000   0.32260   0.01267  Uiso   1.00
B2     B     0.24430   0.06250   0.46800   0.01267  Uiso   1.00
B3     B     0.75000   0.75000   0.74450   0.01267  Uiso   1.00
B4     B     0.25570   0.56250   0.03200   0.01267  Uiso   1.00
B5     B     0.25000   0.75000   0.24450   0.01267  Uiso   1.00
B6     B     0.25000   0.25000   0.25550   0.01267  Uiso   1.00
B7     B     0.75570   0.06250   0.96800   0.01267  Uiso   1.00
B8     B     0.24430   0.93750   0.03200   0.01267  Uiso   1.00
B9     B     0.74430   0.43750   0.96800   0.01267  Uiso   1.00
B10    B     0.25570   0.43750   0.46800   0.01267  Uiso   1.00
B11    B     0.75570   0.93750   0.53200   0.01267  Uiso   1.00
B12    B     0.25000   0.75000   0.82260   0.01267  Uiso   1.00
B13    B     0.74430   0.56250   0.53200   0.01267  Uiso   1.00
B14    B     0.75000   0.25000   0.17740   0.01267  Uiso   1.00
B15    B     0.75000   0.25000   0.75550   0.01267  Uiso   1.00
B16    B     0.25000   0.25000   0.67740   0.01267  Uiso   1.00
H1     H     0.74100   0.31420   0.83940   0.01267  Uiso   1.00
H2     H     0.40980   0.03450   0.40400   0.01267  Uiso   1.00
H3     H     0.82970   0.96140   0.58430   0.01267  Uiso   1.00
H4     H     0.11800   0.14440   0.57670   0.01267  Uiso   1.00
H5     H     0.00600   0.59300   0.10390   0.01267  Uiso   1.00
H6     H     0.56290   0.68120   0.44090   0.01267  Uiso   1.00
H7     H     0.99400   0.59300   0.60390   0.01267  Uiso   1.00
H8     H     0.39240   0.74140   0.05950   0.01267  Uiso   1.00
H9     H     0.83560   0.66150   0.63420   0.01267  Uiso   1.00
H10    H     0.64860   0.20980   0.02660   0.01267  Uiso   1.00
H11    H     0.48490   0.55700   0.57260   0.01267  Uiso   1.00
H12    H     0.76450   0.13580   0.28970   0.01267  Uiso   1.00
H13    H     0.99840   0.07670   0.38880   0.01267  Uiso   1.00
H14    H     0.25350   0.82330   0.98380   0.01267  Uiso   1.00
H15    H     0.14860   0.70980   0.97340   0.01267  Uiso   1.00
H16    H     0.48770   0.42680   0.02510   0.01267  Uiso   1.00
H17    H     0.84020   0.97750   0.48850   0.01267  Uiso   1.00
H18    H     0.72460   0.66120   0.40410   0.01267  Uiso   1.00
H19    H     0.44040   0.76980   0.34110   0.01267  Uiso   1.00
H20    H     0.48490   0.44300   0.92740   0.01267  Uiso   1.00
H21    H     0.72090   0.19790   0.11410   0.01267  Uiso   1.00
H22    H     0.72670   0.14810   0.92800   0.01267  Uiso   1.00
H23    H     0.97300   0.56230   0.07260   0.01267  Uiso   1.00
H24    H     0.66010   0.63590   0.92090   0.01267  Uiso   1.00
H25    H     0.72720   0.38070   0.89970   0.01267  Uiso   1.00
H26    H     0.76580   0.63670   0.85880   0.01267  Uiso   1.00
H27    H     0.89240   0.24140   0.94050   0.01267  Uiso   1.00
H28    H     0.85140   0.29020   0.02660   0.01267  Uiso   1.00
H29    H     0.70940   0.82800   0.88940   0.01267  Uiso   1.00
H30    H     0.75900   0.81420   0.66060   0.01267  Uiso   1.00
H31    H     0.77280   0.88070   0.60030   0.01267  Uiso   1.00
H32    H     0.60950   0.19820   0.88390   0.01267  Uiso   1.00
H33    H     0.43870   0.40280   0.99570   0.01267  Uiso   1.00
H34    H     0.64770   0.31080   0.05500   0.01267  Uiso   1.00
H35    H     0.35520   0.67450   0.26100   0.01267  Uiso   1.00
H36    H     0.61800   0.64440   0.42330   0.01267  Uiso   1.00
H37    H     0.00160   0.07670   0.88880   0.01267  Uiso   1.00
H38    H     0.54120   0.69300   0.19810   0.01267  Uiso   1.00
H39    H     0.50160   0.42330   0.38880   0.01267  Uiso   1.00
H40    H     0.45260   0.11780   0.92330   0.01267  Uiso   1.00
H41    H     0.61230   0.50380   0.91380   0.01267  Uiso   1.00
H42    H     0.42070   0.64580   0.63010   0.01267  Uiso   1.00
H43    H     0.61780   0.71800   0.78490   0.01267  Uiso   1.00
H44    H     0.92070   0.85420   0.13010   0.01267  Uiso   1.00
H45    H     0.42820   0.80010   0.78860   0.01267  Uiso   1.00
H46    H     0.38770   0.49620   0.08620   0.01267  Uiso   1.00
H47    H     0.61230   0.49620   0.58620   0.01267  Uiso   1.00
H48    H     0.89050   0.30180   0.88390   0.01267  Uiso   1.00
H49    H     0.56260   0.79320   0.47300   0.01267  Uiso   1.00
H50    H     0.98490   0.94300   0.07260   0.01267  Uiso   1.00
H51    H     0.31590   0.50670   0.39080   0.01267  Uiso   1.00
H52    H     0.52220   0.30550   0.26130   0.01267  Uiso   1.00
H53    H     0.28210   0.97510   0.96120   0.01267  Uiso   1.00
H54    H     0.60290   0.23520   0.99650   0.01267  Uiso   1.00
H55    H     0.10290   0.73520   0.00350   0.01267  Uiso   1.00
H56    H     0.74350   0.34450   0.13630   0.01267  Uiso   1.00
H57    H     0.56290   0.31880   0.05910   0.01267  Uiso   1.00
H58    H     0.88630   0.05260   0.03920   0.01267  Uiso   1.00
H59    H     0.89050   0.69820   0.61610   0.01267  Uiso   1.00
H60    H     0.29170   0.33120   0.82120   0.01267  Uiso   1.00
H61    H     0.84720   0.21550   0.91040   0.01267  Uiso   1.00
H62    H     0.89290   0.66080   0.31390   0.01267  Uiso   1.00
H63    H     0.22560   0.64450   0.18460   0.01267  Uiso   1.00
H64    H     0.68010   0.45900   0.42370   0.01267  Uiso   1.00
H65    H     0.18010   0.04100   0.92370   0.01267  Uiso   1.00
H66    H     0.51230   0.57320   0.97490   0.01267  Uiso   1.00
H67    H     0.61370   0.55260   0.46080   0.01267  Uiso   1.00
H68    H     0.07960   0.34710   0.36260   0.01267  Uiso   1.00
H69    H     0.35280   0.42800   0.95490   0.01267  Uiso   1.00
H70    H     0.95880   0.80700   0.19810   0.01267  Uiso   1.00
H71    H     0.43940   0.68460   0.26530   0.01267  Uiso   1.00
H72    H     0.39050   0.80180   0.11610   0.01267  Uiso   1.00
H73    H     0.76860   0.63560   0.78980   0.01267  Uiso   1.00
H74    H     0.47780   0.30550   0.76130   0.01267  Uiso   1.00
H75    H     0.79200   0.64040   0.45740   0.01267  Uiso   1.00
H76    H     0.51440   0.81300   0.82440   0.01267  Uiso   1.00
H77    H     0.34250   0.80440   0.79140   0.01267  Uiso   1.00
H78    H     0.05960   0.73020   0.34110   0.01267  Uiso   1.00
H79    H     0.65350   0.84340   0.85980   0.01267  Uiso   1.00
H80    H     0.75650   0.84450   0.36370   0.01267  Uiso   1.00
H81    H     0.11800   0.85560   0.92330   0.01267  Uiso   1.00
H82    H     0.34250   0.19560   0.70860   0.01267  Uiso   1.00
H83    H     0.46240   0.81500   0.36450   0.01267  Uiso   1.00
H84    H     0.03120   0.12910   0.02710   0.01267  Uiso   1.00
H85    H     0.11780   0.78200   0.28490   0.01267  Uiso   1.00
H86    H     0.54740   0.88220   0.07670   0.01267  Uiso   1.00
H87    H     0.95260   0.38220   0.42330   0.01267  Uiso   1.00
H88    H     0.53120   0.37090   0.52710   0.01267  Uiso   1.00
H89    H     0.32570   0.95330   0.09710   0.01267  Uiso   1.00
H90    H     0.17620   0.09420   0.10680   0.01267  Uiso   1.00
H91    H     0.65030   0.84510   0.79070   0.01267  Uiso   1.00
H92    H     0.15280   0.78450   0.08960   0.01267  Uiso   1.00
H93    H     0.20220   0.33060   0.24080   0.01267  Uiso   1.00
H94    H     0.32380   0.40580   0.10680   0.01267  Uiso   1.00
H95    H     0.65420   0.65450   0.20950   0.01267  Uiso   1.00
H96    H     0.85280   0.92800   0.04510   0.01267  Uiso   1.00
H97    H     0.51230   0.42680   0.52510   0.01267  Uiso   1.00
H98    H     0.75650   0.15550   0.13630   0.01267  Uiso   1.00
H99    H     0.64480   0.67450   0.76100   0.01267  Uiso   1.00
H100   H     0.93940   0.81540   0.76530   0.01267  Uiso   1.00
H101   H     0.65260   0.87650   0.01820   0.01267  Uiso   1.00
H102   H     0.42070   0.35420   0.86990   0.01267  Uiso   1.00
H103   H     0.99400   0.40700   0.89610   0.01267  Uiso   1.00
H104   H     0.46880   0.37090   0.02710   0.01267  Uiso   1.00
H105   H     0.76450   0.86420   0.21030   0.01267  Uiso   1.00
H106   H     0.75900   0.18580   0.83940   0.01267  Uiso   1.00
H107   H     0.65350   0.15660   0.64020   0.01267  Uiso   1.00
H108   H     0.40980   0.96550   0.09600   0.01267  Uiso   1.00
H109   H     0.02700   0.56230   0.57260   0.01267  Uiso   1.00
H110   H     0.88200   0.14440   0.07670   0.01267  Uiso   1.00
H111   H     0.23550   0.86420   0.71030   0.01267  Uiso   1.00
H112   H     0.99840   0.92330   0.11120   0.01267  Uiso   1.00
H113   H     0.35470   0.02510   0.51650   0.01267  Uiso   1.00
H114   H     0.85150   0.84400   0.27370   0.01267  Uiso   1.00
H115   H     0.31990   0.45900   0.92370   0.01267  Uiso   1.00
H116   H     0.28210   0.02490   0.53880   0.01267  Uiso   1.00
H117   H     0.33800   0.98140   0.54230   0.01267  Uiso   1.00
H118   H     0.16200   0.48140   0.95770   0.01267  Uiso   1.00
H119   H     0.02220   0.80550   0.73870   0.01267  Uiso   1.00
H120   H     0.76860   0.36440   0.71020   0.01267  Uiso   1.00
H121   H     0.66380   0.07820   0.45680   0.01267  Uiso   1.00
H122   H     0.06260   0.70680   0.97300   0.01267  Uiso   1.00
H123   H     0.88770   0.99620   0.91380   0.01267  Uiso   1.00
H124   H     0.89400   0.09150   0.58280   0.01267  Uiso   1.00
H125   H     0.70800   0.85960   0.45740   0.01267  Uiso   1.00
H126   H     0.02700   0.43770   0.92740   0.01267  Uiso   1.00
H127   H     0.84020   0.02250   0.01150   0.01267  Uiso   1.00
H128   H     0.66010   0.36410   0.57910   0.01267  Uiso   1.00
H129   H     0.20570   0.09530   0.92940   0.01267  Uiso   1.00
H130   H     0.65260   0.12350   0.48180   0.01267  Uiso   1.00
H131   H     0.35140   0.79020   0.97340   0.01267  Uiso   1.00
H132   H     0.11370   0.05260   0.53920   0.01267  Uiso   1.00
H133   H     0.70220   0.16940   0.74080   0.01267  Uiso   1.00
H134   H     0.06290   0.81880   0.94090   0.01267  Uiso   1.00
H135   H     0.33990   0.36410   0.07910   0.01267  Uiso   1.00
H136   H     0.88630   0.94740   0.46080   0.01267  Uiso   1.00
H137   H     0.14770   0.81080   0.94500   0.01267  Uiso   1.00
H138   H     0.56680   0.28420   0.90880   0.01267  Uiso   1.00
H139   H     0.27910   0.68330   0.20100   0.01267  Uiso   1.00
H140   H     0.70940   0.17200   0.61060   0.01267  Uiso   1.00
H141   H     0.48560   0.81300   0.32440   0.01267  Uiso   1.00
H142   H     0.09020   0.46550   0.40400   0.01267  Uiso   1.00
H143   H     0.10950   0.30180   0.38390   0.01267  Uiso   1.00
H144   H     0.35570   0.00820   0.43020   0.01267  Uiso   1.00
H145   H     0.33560   0.83850   0.13420   0.01267  Uiso   1.00
H146   H     0.27540   0.66120   0.90410   0.01267  Uiso   1.00
H147   H     0.77540   0.83880   0.40410   0.01267  Uiso   1.00
H148   H     0.57960   0.15290   0.86260   0.01267  Uiso   1.00
H149   H     0.92820   0.69990   0.28860   0.01267  Uiso   1.00
H150   H     0.26580   0.13670   0.14120   0.01267  Uiso   1.00
H151   H     0.71510   0.32430   0.90470   0.01267  Uiso   1.00
H152   H     0.06060   0.81540   0.26530   0.01267  Uiso   1.00
H153   H     0.56180   0.26090   0.27920   0.01267  Uiso   1.00
H154   H     0.33560   0.16150   0.36580   0.01267  Uiso   1.00
H155   H     0.72720   0.61930   0.60030   0.01267  Uiso   1.00
H156   H     0.65980   0.47750   0.01150   0.01267  Uiso   1.00
H157   H     0.60600   0.59150   0.91720   0.01267  Uiso   1.00
H158   H     0.56260   0.20680   0.02700   0.01267  Uiso   1.00
H159   H     0.42610   0.51850   0.98830   0.01267  Uiso   1.00
H160   H     0.35230   0.68920   0.94500   0.01267  Uiso   1.00
H161   H     0.57930   0.35420   0.36990   0.01267  Uiso   1.00
H162   H     0.61800   0.35560   0.07670   0.01267  Uiso   1.00
H163   H     0.89290   0.33920   0.18610   0.01267  Uiso   1.00
H164   H     0.52700   0.06230   0.42740   0.01267  Uiso   1.00
H165   H     0.18010   0.95900   0.57630   0.01267  Uiso   1.00
H166   H     0.30000   0.66790   0.80600   0.01267  Uiso   1.00
H167   H     0.34650   0.84340   0.35980   0.01267  Uiso   1.00
H168   H     0.14430   0.50820   0.06980   0.01267  Uiso   1.00
H169   H     0.45190   0.52900   0.60530   0.01267  Uiso   1.00
H170   H     0.70570   0.59530   0.07060   0.01267  Uiso   1.00
H171   H     0.64770   0.68920   0.44500   0.01267  Uiso   1.00
H172   H     0.95260   0.61780   0.07670   0.01267  Uiso   1.00
H173   H     0.43710   0.31880   0.55910   0.01267  Uiso   1.00
H174   H     0.67430   0.04670   0.90290   0.01267  Uiso   1.00
H175   H     0.34970   0.15490   0.20930   0.01267  Uiso   1.00
H176   H     0.43740   0.20680   0.52700   0.01267  Uiso   1.00
H177   H     0.89710   0.26480   0.99650   0.01267  Uiso   1.00
H178   H     0.43320   0.28420   0.40880   0.01267  Uiso   1.00
H179   H     0.76980   0.12140   0.01700   0.01267  Uiso   1.00
H180   H     0.27280   0.61930   0.10030   0.01267  Uiso   1.00
H181   H     0.17430   0.54670   0.09710   0.01267  Uiso   1.00
H182   H     0.77120   0.13540   0.22550   0.01267  Uiso   1.00
H183   H     0.98560   0.68700   0.82440   0.01267  Uiso   1.00
H184   H     0.80000   0.16790   0.19400   0.01267  Uiso   1.00
H185   H     0.79060   0.67200   0.88940   0.01267  Uiso   1.00
H186   H     0.45190   0.47100   0.89470   0.01267  Uiso   1.00
H187   H     0.34740   0.12350   0.98180   0.01267  Uiso   1.00
H188   H     0.39290   0.83920   0.81390   0.01267  Uiso   1.00
H189   H     0.82380   0.90580   0.89320   0.01267  Uiso   1.00
H190   H     0.94040   0.73020   0.84110   0.01267  Uiso   1.00
H191   H     0.98490   0.05700   0.42740   0.01267  Uiso   1.00
H192   H     0.22090   0.18330   0.29900   0.01267  Uiso   1.00
H193   H     0.84740   0.62350   0.01820   0.01267  Uiso   1.00
H194   H     0.14860   0.29020   0.52660   0.01267  Uiso   1.00
H195   H     0.14850   0.84400   0.77370   0.01267  Uiso   1.00
H196   H     0.11370   0.94740   0.96080   0.01267  Uiso   1.00
H197   H     0.83800   0.48140   0.45770   0.01267  Uiso   1.00
H198   H     0.14430   0.49180   0.43020   0.01267  Uiso   1.00
H199   H     0.52220   0.69450   0.23870   0.01267  Uiso   1.00
H200   H     0.07960   0.65290   0.13740   0.01267  Uiso   1.00
H201   H     0.51510   0.44300   0.42740   0.01267  Uiso   1.00
H202   H     0.68410   0.50670   0.89080   0.01267  Uiso   1.00
H203   H     0.28490   0.67570   0.09530   0.01267  Uiso   1.00
H204   H     0.23140   0.63560   0.28980   0.01267  Uiso   1.00
H205   H     0.27570   0.11900   0.95900   0.01267  Uiso   1.00
H206   H     0.27330   0.85190   0.07200   0.01267  Uiso   1.00
H207   H     0.26860   0.13560   0.21020   0.01267  Uiso   1.00
H208   H     0.22430   0.38100   0.95900   0.01267  Uiso   1.00
H209   H     0.79060   0.32800   0.61060   0.01267  Uiso   1.00
H210   H     0.39400   0.40850   0.08280   0.01267  Uiso   1.00
H211   H     0.73550   0.63580   0.21030   0.01267  Uiso   1.00
H212   H     0.38200   0.64440   0.92330   0.01267  Uiso   1.00
H213   H     0.35150   0.34400   0.72630   0.01267  Uiso   1.00
H214   H     0.49840   0.42330   0.88880   0.01267  Uiso   1.00
H215   H     0.38220   0.28200   0.21510   0.01267  Uiso   1.00
H216   H     0.16010   0.13590   0.07910   0.01267  Uiso   1.00
H217   H     0.32970   0.53860   0.08430   0.01267  Uiso   1.00
H218   H     0.22670   0.64810   0.07200   0.01267  Uiso   1.00
H219   H     0.73020   0.37860   0.01700   0.01267  Uiso   1.00
H220   H     0.22090   0.30210   0.61410   0.01267  Uiso   1.00
H221   H     0.27570   0.88100   0.54100   0.01267  Uiso   1.00
H222   H     0.34740   0.87650   0.51820   0.01267  Uiso   1.00
H223   H     0.06180   0.76090   0.72080   0.01267  Uiso   1.00
H224   H     0.66440   0.16150   0.86580   0.01267  Uiso   1.00
H225   H     0.15350   0.65660   0.35980   0.01267  Uiso   1.00
H226   H     0.26860   0.86440   0.28980   0.01267  Uiso   1.00
H227   H     0.21790   0.52490   0.96120   0.01267  Uiso   1.00
H228   H     0.66440   0.83850   0.63420   0.01267  Uiso   1.00
H229   H     0.79430   0.90470   0.07060   0.01267  Uiso   1.00
H230   H     0.77330   0.35190   0.92800   0.01267  Uiso   1.00
H231   H     0.43320   0.71580   0.09120   0.01267  Uiso   1.00
H232   H     0.42040   0.84710   0.13740   0.01267  Uiso   1.00
H233   H     0.92040   0.34710   0.86260   0.01267  Uiso   1.00
H234   H     0.96240   0.31500   0.63550   0.01267  Uiso   1.00
H235   H     0.35470   0.97490   0.98350   0.01267  Uiso   1.00
H236   H     0.17030   0.03860   0.41570   0.01267  Uiso   1.00
H237   H     0.42820   0.19990   0.71140   0.01267  Uiso   1.00
H238   H     0.84740   0.37650   0.48180   0.01267  Uiso   1.00
H239   H     0.07390   0.01850   0.51170   0.01267  Uiso   1.00
H240   H     0.14530   0.47490   0.51650   0.01267  Uiso   1.00
H241   H     0.98770   0.07320   0.52510   0.01267  Uiso   1.00
H242   H     0.75350   0.32330   0.01620   0.01267  Uiso   1.00
H243   H     0.93820   0.23910   0.27920   0.01267  Uiso   1.00
H244   H     0.02220   0.19450   0.76130   0.01267  Uiso   1.00
H245   H     0.72090   0.80210   0.38590   0.01267  Uiso   1.00
H246   H     0.10600   0.90850   0.41720   0.01267  Uiso   1.00
H247   H     0.90980   0.46550   0.90400   0.01267  Uiso   1.00
H248   H     0.56130   0.59720   0.00430   0.01267  Uiso   1.00
H249   H     0.84650   0.65660   0.85980   0.01267  Uiso   1.00
H250   H     0.29780   0.16940   0.24080   0.01267  Uiso   1.00
H251   H     0.64850   0.34400   0.22630   0.01267  Uiso   1.00
H252   H     0.60760   0.25860   0.94050   0.01267  Uiso   1.00
H253   H     0.14530   0.52510   0.98350   0.01267  Uiso   1.00
H254   H     0.92820   0.30010   0.21140   0.01267  Uiso   1.00
H255   H     0.21510   0.17570   0.40470   0.01267  Uiso   1.00
H256   H     0.35140   0.20980   0.52660   0.01267  Uiso   1.00
H257   H     0.54120   0.30700   0.30190   0.01267  Uiso   1.00
H258   H     0.79170   0.16880   0.32120   0.01267  Uiso   1.00
H259   H     0.73020   0.62140   0.48300   0.01267  Uiso   1.00
H260   H     0.88220   0.21800   0.71510   0.01267  Uiso   1.00
H261   H     0.28490   0.32430   0.40470   0.01267  Uiso   1.00
H262   H     0.06680   0.21580   0.40880   0.01267  Uiso   1.00
H263   H     0.16200   0.51860   0.54230   0.01267  Uiso   1.00
H264   H     0.73550   0.36420   0.28970   0.01267  Uiso   1.00
H265   H     0.32970   0.46140   0.41570   0.01267  Uiso   1.00
H266   H     0.90980   0.53450   0.59600   0.01267  Uiso   1.00
H267   H     0.29060   0.17200   0.11060   0.01267  Uiso   1.00
H268   H     0.33620   0.92180   0.54320   0.01267  Uiso   1.00
H269   H     0.57390   0.48150   0.01170   0.01267  Uiso   1.00
H270   H     0.34720   0.71550   0.08960   0.01267  Uiso   1.00
H271   H     0.16380   0.42180   0.95680   0.01267  Uiso   1.00
H272   H     0.70800   0.14040   0.04260   0.01267  Uiso   1.00
H273   H     0.72430   0.88100   0.04100   0.01267  Uiso   1.00
H274   H     0.85150   0.15600   0.22630   0.01267  Uiso   1.00
H275   H     0.35520   0.32550   0.23900   0.01267  Uiso   1.00
H276   H     0.20000   0.16790   0.69400   0.01267  Uiso   1.00
H277   H     0.15980   0.02250   0.51150   0.01267  Uiso   1.00
H278   H     0.01230   0.07320   0.02510   0.01267  Uiso   1.00
H279   H     0.52700   0.93770   0.07260   0.01267  Uiso   1.00
H280   H     0.67620   0.59420   0.89320   0.01267  Uiso   1.00
H281   H     0.71790   0.97510   0.46120   0.01267  Uiso   1.00
H282   H     0.22090   0.81670   0.20100   0.01267  Uiso   1.00
H283   H     0.27440   0.14450   0.31540   0.01267  Uiso   1.00
H284   H     0.55960   0.76980   0.84110   0.01267  Uiso   1.00
H285   H     0.14720   0.92800   0.54510   0.01267  Uiso   1.00
H286   H     0.39710   0.76480   0.00350   0.01267  Uiso   1.00
H287   H     0.46240   0.18500   0.13550   0.01267  Uiso   1.00
H288   H     0.93710   0.81880   0.44090   0.01267  Uiso   1.00
H289   H     0.85280   0.07200   0.45490   0.01267  Uiso   1.00
H290   H     0.84580   0.15450   0.29050   0.01267  Uiso   1.00
H291   H     0.60710   0.16080   0.18610   0.01267  Uiso   1.00
H292   H     0.93710   0.18120   0.05910   0.01267  Uiso   1.00
H293   H     0.29170   0.66880   0.67880   0.01267  Uiso   1.00
H294   H     0.20830   0.83120   0.67880   0.01267  Uiso   1.00
H295   H     0.22720   0.88070   0.10030   0.01267  Uiso   1.00
H296   H     0.64720   0.57200   0.04510   0.01267  Uiso   1.00
H297   H     0.49400   0.09300   0.39610   0.01267  Uiso   1.00
H298   H     0.26450   0.36420   0.78970   0.01267  Uiso   1.00
H299   H     0.47300   0.06230   0.92740   0.01267  Uiso   1.00
H300   H     0.50600   0.09300   0.89610   0.01267  Uiso   1.00
H301   H     0.93940   0.18460   0.73470   0.01267  Uiso   1.00
H302   H     0.33620   0.07820   0.95680   0.01267  Uiso   1.00
H303   H     0.77570   0.61900   0.04100   0.01267  Uiso   1.00
H304   H     0.34580   0.65450   0.70950   0.01267  Uiso   1.00
H305   H     0.22430   0.61900   0.54100   0.01267  Uiso   1.00
H306   H     0.83620   0.57820   0.04320   0.01267  Uiso   1.00
H307   H     0.95880   0.19300   0.30190   0.01267  Uiso   1.00
H308   H     0.04810   0.97100   0.60530   0.01267  Uiso   1.00
H309   H     0.24100   0.18580   0.33940   0.01267  Uiso   1.00
H310   H     0.15420   0.15450   0.79050   0.01267  Uiso   1.00
H311   H     0.43870   0.59720   0.50430   0.01267  Uiso   1.00
H312   H     0.66200   0.01860   0.45770   0.01267  Uiso   1.00
H313   H     0.06130   0.09720   0.99570   0.01267  Uiso   1.00
H314   H     0.64860   0.79020   0.47340   0.01267  Uiso   1.00
H315   H     0.77280   0.11930   0.89970   0.01267  Uiso   1.00
H316   H     0.98560   0.31300   0.67560   0.01267  Uiso   1.00
H317   H     0.83990   0.86410   0.92090   0.01267  Uiso   1.00
H318   H     0.93320   0.21580   0.90880   0.01267  Uiso   1.00
H319   H     0.11230   0.00380   0.08620   0.01267  Uiso   1.00
H320   H     0.27280   0.38070   0.39970   0.01267  Uiso   1.00
H321   H     0.34580   0.34550   0.79050   0.01267  Uiso   1.00
H322   H     0.83620   0.42180   0.45680   0.01267  Uiso   1.00
H323   H     0.77910   0.69790   0.38590   0.01267  Uiso   1.00
H324   H     0.23020   0.12140   0.51700   0.01267  Uiso   1.00
H325   H     0.84970   0.34510   0.70930   0.01267  Uiso   1.00
H326   H     0.97300   0.43770   0.42740   0.01267  Uiso   1.00
H327   H     0.88770   0.00380   0.58620   0.01267  Uiso   1.00
H328   H     0.77440   0.35550   0.81540   0.01267  Uiso   1.00
H329   H     0.73140   0.13560   0.71020   0.01267  Uiso   1.00
H330   H     0.32380   0.59420   0.39320   0.01267  Uiso   1.00
H331   H     0.25900   0.31420   0.33940   0.01267  Uiso   1.00
H332   H     0.04740   0.38220   0.92330   0.01267  Uiso   1.00
H333   H     0.25650   0.65550   0.86370   0.01267  Uiso   1.00
H334   H     0.00600   0.40700   0.39610   0.01267  Uiso   1.00
H335   H     0.22090   0.69790   0.88590   0.01267  Uiso   1.00
H336   H     0.14770   0.18920   0.55500   0.01267  Uiso   1.00
H337   H     0.24650   0.32330   0.51620   0.01267  Uiso   1.00
H338   H     0.95190   0.02900   0.39470   0.01267  Uiso   1.00
H339   H     0.10600   0.09150   0.08280   0.01267  Uiso   1.00
H340   H     0.22460   0.83880   0.90410   0.01267  Uiso   1.00
H341   H     0.20800   0.35960   0.54260   0.01267  Uiso   1.00
H342   H     0.93870   0.90280   0.00430   0.01267  Uiso   1.00
H343   H     0.48770   0.57320   0.47490   0.01267  Uiso   1.00
H344   H     0.03120   0.87090   0.47290   0.01267  Uiso   1.00
H345   H     0.22670   0.35190   0.42800   0.01267  Uiso   1.00
H346   H     0.84970   0.65490   0.79070   0.01267  Uiso   1.00
H347   H     0.57930   0.64580   0.13010   0.01267  Uiso   1.00
H348   H     0.39400   0.59150   0.41720   0.01267  Uiso   1.00
H349   H     0.92040   0.65290   0.63740   0.01267  Uiso   1.00
H350   H     0.27440   0.85550   0.18460   0.01267  Uiso   1.00
H351   H     0.06060   0.18460   0.23470   0.01267  Uiso   1.00
H352   H     0.85470   0.52510   0.48350   0.01267  Uiso   1.00
H353   H     0.80000   0.83210   0.30600   0.01267  Uiso   1.00
H354   H     0.20830   0.16880   0.82120   0.01267  Uiso   1.00
H355   H     0.34020   0.47750   0.51150   0.01267  Uiso   1.00
H356   H     0.20940   0.32800   0.11060   0.01267  Uiso   1.00
H357   H     0.35230   0.31080   0.55500   0.01267  Uiso   1.00
H358   H     0.15260   0.37650   0.98180   0.01267  Uiso   1.00
H359   H     0.55960   0.23020   0.65890   0.01267  Uiso   1.00
H360   H     0.05960   0.26980   0.15890   0.01267  Uiso   1.00
H361   H     0.23550   0.13580   0.78970   0.01267  Uiso   1.00
H362   H     0.72460   0.33880   0.09590   0.01267  Uiso   1.00
H363   H     0.25900   0.68580   0.16060   0.01267  Uiso   1.00
H364   H     0.56680   0.71580   0.59120   0.01267  Uiso   1.00
H365   H     0.59020   0.96550   0.59600   0.01267  Uiso   1.00
H366   H     0.06180   0.23910   0.77920   0.01267  Uiso   1.00
H367   H     0.72560   0.85550   0.68460   0.01267  Uiso   1.00
H368   H     0.04740   0.61780   0.57670   0.01267  Uiso   1.00
H369   H     0.49400   0.90700   0.10390   0.01267  Uiso   1.00
H370   H     0.57180   0.80010   0.28860   0.01267  Uiso   1.00
H371   H     0.72090   0.31670   0.79900   0.01267  Uiso   1.00
H372   H     0.73140   0.86440   0.78980   0.01267  Uiso   1.00
H373   H     0.23020   0.87860   0.98300   0.01267  Uiso   1.00
H374   H     0.53120   0.62910   0.97290   0.01267  Uiso   1.00
H375   H     0.64720   0.42800   0.45490   0.01267  Uiso   1.00
H376   H     0.25650   0.34450   0.63630   0.01267  Uiso   1.00
H377   H     0.10710   0.33920   0.68610   0.01267  Uiso   1.00
H378   H     0.71790   0.02490   0.03880   0.01267  Uiso   1.00
H379   H     0.68010   0.54100   0.07630   0.01267  Uiso   1.00
H380   H     0.74350   0.65550   0.36370   0.01267  Uiso   1.00
H381   H     0.88220   0.78200   0.78490   0.01267  Uiso   1.00
H382   H     0.74100   0.68580   0.66060   0.01267  Uiso   1.00
H383   H     0.15350   0.34340   0.14020   0.01267  Uiso   1.00
H384   H     0.72670   0.85190   0.57200   0.01267  Uiso   1.00
H385   H     0.33990   0.63590   0.42090   0.01267  Uiso   1.00
H386   H     0.88200   0.85560   0.42330   0.01267  Uiso   1.00
H387   H     0.65420   0.34550   0.29050   0.01267  Uiso   1.00
H388   H     0.20940   0.67200   0.38940   0.01267  Uiso   1.00
H389   H     0.96240   0.68500   0.86450   0.01267  Uiso   1.00
H390   H     0.70000   0.33210   0.19400   0.01267  Uiso   1.00
H391   H     0.81590   0.00670   0.60920   0.01267  Uiso   1.00
H392   H     0.89710   0.73520   0.50350   0.01267  Uiso   1.00
H393   H     0.14480   0.17450   0.23900   0.01267  Uiso   1.00
H394   H     0.70570   0.40470   0.42940   0.01267  Uiso   1.00
H395   H     0.65280   0.28450   0.91040   0.01267  Uiso   1.00
H396   H     0.07180   0.69990   0.78860   0.01267  Uiso   1.00
H397   H     0.10290   0.26480   0.49650   0.01267  Uiso   1.00
H398   H     0.01230   0.92680   0.47490   0.01267  Uiso   1.00
H399   H     0.11780   0.21800   0.21510   0.01267  Uiso   1.00
H400   H     0.92610   0.98150   0.48830   0.01267  Uiso   1.00
H401   H     0.24650   0.67670   0.98380   0.01267  Uiso   1.00
H402   H     0.39290   0.16080   0.68610   0.01267  Uiso   1.00
H403   H     0.78210   0.47510   0.03880   0.01267  Uiso   1.00
H404   H     0.77910   0.30210   0.11410   0.01267  Uiso   1.00
H405   H     0.29200   0.14040   0.54260   0.01267  Uiso   1.00
H406   H     0.06130   0.90280   0.50430   0.01267  Uiso   1.00
H407   H     0.74650   0.82330   0.48380   0.01267  Uiso   1.00
H408   H     0.53760   0.81500   0.86450   0.01267  Uiso   1.00
H409   H     0.84720   0.78450   0.58960   0.01267  Uiso   1.00
H410   H     0.60950   0.80180   0.61610   0.01267  Uiso   1.00
H411   H     0.72880   0.36460   0.22550   0.01267  Uiso   1.00
H412   H     0.83800   0.51860   0.04230   0.01267  Uiso   1.00
H413   H     0.26450   0.63580   0.71030   0.01267  Uiso   1.00
H414   H     0.56180   0.73910   0.22080   0.01267  Uiso   1.00
H415   H     0.42040   0.15290   0.36260   0.01267  Uiso   1.00
H416   H     0.84650   0.34340   0.64020   0.01267  Uiso   1.00
H417   H     0.20800   0.64040   0.95740   0.01267  Uiso   1.00
H418   H     0.65750   0.80440   0.29140   0.01267  Uiso   1.00
H419   H     0.78490   0.82430   0.59530   0.01267  Uiso   1.00
H420   H     0.15750   0.30440   0.70860   0.01267  Uiso   1.00
H421   H     0.67030   0.53860   0.58430   0.01267  Uiso   1.00
H422   H     0.23140   0.36440   0.21020   0.01267  Uiso   1.00
H423   H     0.64530   0.97490   0.48350   0.01267  Uiso   1.00
H424   H     0.67030   0.46140   0.91570   0.01267  Uiso   1.00
H425   H     0.64850   0.65600   0.27370   0.01267  Uiso   1.00
H426   H     0.57960   0.84710   0.63740   0.01267  Uiso   1.00
H427   H     0.15030   0.34510   0.20930   0.01267  Uiso   1.00
H428   H     0.72560   0.14450   0.81540   0.01267  Uiso   1.00
H429   H     0.15260   0.62350   0.51820   0.01267  Uiso   1.00
H430   H     0.34720   0.28450   0.41040   0.01267  Uiso   1.00
H431   H     0.85570   0.49180   0.93020   0.01267  Uiso   1.00
H432   H     0.54740   0.11780   0.42330   0.01267  Uiso   1.00
H433   H     0.38200   0.35560   0.57670   0.01267  Uiso   1.00
H434   H     0.93870   0.09720   0.49570   0.01267  Uiso   1.00
H435   H     0.23420   0.63670   0.35880   0.01267  Uiso   1.00
H436   H     0.46880   0.62910   0.47290   0.01267  Uiso   1.00
H437   H     0.22460   0.16120   0.59590   0.01267  Uiso   1.00
H438   H     0.01510   0.94300   0.57260   0.01267  Uiso   1.00
H439   H     0.43820   0.73910   0.72080   0.01267  Uiso   1.00
H440   H     0.64480   0.32550   0.73900   0.01267  Uiso   1.00
H441   H     0.47300   0.93770   0.57260   0.01267  Uiso   1.00
H442   H     0.09020   0.53450   0.09600   0.01267  Uiso   1.00
H443   H     0.29430   0.59530   0.57060   0.01267  Uiso   1.00
H444   H     0.70830   0.33120   0.32120   0.01267  Uiso   1.00
H445   H     0.73420   0.13670   0.64120   0.01267  Uiso   1.00
H446   H     0.84250   0.69560   0.29140   0.01267  Uiso   1.00
H447   H     0.29780   0.83060   0.25920   0.01267  Uiso   1.00
H448   H     0.76580   0.36330   0.64120   0.01267  Uiso   1.00
H449   H     0.89240   0.75860   0.55950   0.01267  Uiso   1.00
H450   H     0.10710   0.66080   0.81390   0.01267  Uiso   1.00
H451   H     0.32570   0.04670   0.40290   0.01267  Uiso   1.00
H452   H     0.04810   0.02900   0.89470   0.01267  Uiso   1.00
H453   H     0.77330   0.64810   0.57200   0.01267  Uiso   1.00
H454   H     0.15030   0.65490   0.29070   0.01267  Uiso   1.00
H455   H     0.85140   0.70980   0.47340   0.01267  Uiso   1.00
H456   H     0.64530   0.02510   0.01650   0.01267  Uiso   1.00
H457   H     0.95190   0.97100   0.10530   0.01267  Uiso   1.00
H458   H     0.10950   0.69820   0.11610   0.01267  Uiso   1.00
H459   H     0.97780   0.80550   0.23870   0.01267  Uiso   1.00
H460   H     0.73420   0.86330   0.85880   0.01267  Uiso   1.00
H461   H     0.65980   0.52250   0.48850   0.01267  Uiso   1.00
H462   H     0.34020   0.52250   0.98850   0.01267  Uiso   1.00
H463   H     0.29200   0.85960   0.95740   0.01267  Uiso   1.00
H464   H     0.51510   0.55700   0.07260   0.01267  Uiso   1.00
H465   H     0.26580   0.86330   0.35880   0.01267  Uiso   1.00
H466   H     0.04120   0.80700   0.69810   0.01267  Uiso   1.00
H467   H     0.07390   0.98150   0.98830   0.01267  Uiso   1.00
H468   H     0.47780   0.69450   0.73870   0.01267  Uiso   1.00
H469   H     0.35280   0.57200   0.54510   0.01267  Uiso   1.00
H470   H     0.07930   0.14580   0.86990   0.01267  Uiso   1.00
H471   H     0.16380   0.57820   0.54320   0.01267  Uiso   1.00
H472   H     0.81590   0.99330   0.89080   0.01267  Uiso   1.00
H473   H     0.27120   0.36460   0.72550   0.01267  Uiso   1.00
H474   H     0.43820   0.26090   0.77920   0.01267  Uiso   1.00
H475   H     0.72430   0.11900   0.45900   0.01267  Uiso   1.00
H476   H     0.10760   0.75860   0.05950   0.01267  Uiso   1.00
H477   H     0.56060   0.31540   0.73470   0.01267  Uiso   1.00
H478   H     0.93820   0.76090   0.22080   0.01267  Uiso   1.00
H479   H     0.54810   0.47100   0.39470   0.01267  Uiso   1.00
H480   H     0.50160   0.57670   0.11120   0.01267  Uiso   1.00
H481   H     0.22560   0.35550   0.31540   0.01267  Uiso   1.00
H482   H     0.79430   0.09530   0.42940   0.01267  Uiso   1.00
H483   H     0.53760   0.18500   0.63550   0.01267  Uiso   1.00
H484   H     0.65750   0.19560   0.20860   0.01267  Uiso   1.00
H485   H     0.20000   0.83210   0.80600   0.01267  Uiso   1.00
H486   H     0.56060   0.68460   0.76530   0.01267  Uiso   1.00
H487   H     0.78490   0.17570   0.90470   0.01267  Uiso   1.00
H488   H     0.81990   0.04100   0.42370   0.01267  Uiso   1.00
H489   H     0.21510   0.82430   0.09530   0.01267  Uiso   1.00
H490   H     0.15420   0.84550   0.70950   0.01267  Uiso   1.00
H491   H     0.01440   0.31300   0.17560   0.01267  Uiso   1.00
H492   H     0.34970   0.84510   0.29070   0.01267  Uiso   1.00
H493   H     0.16010   0.86410   0.42090   0.01267  Uiso   1.00
H494   H     0.54810   0.52900   0.10530   0.01267  Uiso   1.00
H495   H     0.44040   0.23020   0.15890   0.01267  Uiso   1.00
H496   H     0.82970   0.03860   0.91570   0.01267  Uiso   1.00
H497   H     0.27910   0.31670   0.29900   0.01267  Uiso   1.00
H498   H     0.18410   0.00670   0.10920   0.01267  Uiso   1.00
H499   H     0.45260   0.88220   0.57670   0.01267  Uiso   1.00
H500   H     0.96880   0.12910   0.52710   0.01267  Uiso   1.00
H501   H     0.06260   0.29320   0.52700   0.01267  Uiso   1.00
H502   H     0.79200   0.35960   0.04260   0.01267  Uiso   1.00
H503   H     0.70000   0.66790   0.30600   0.01267  Uiso   1.00
H504   H     0.27910   0.80210   0.88590   0.01267  Uiso   1.00
H505   H     0.81990   0.95900   0.07630   0.01267  Uiso   1.00
H506   H     0.77440   0.64450   0.68460   0.01267  Uiso   1.00
H507   H     0.72090   0.68330   0.70100   0.01267  Uiso   1.00
H508   H     0.98770   0.92680   0.97490   0.01267  Uiso   1.00
H509   H     0.94040   0.26980   0.65890   0.01267  Uiso   1.00
H510   H     0.83560   0.33850   0.86580   0.01267  Uiso   1.00
H511   H     0.50600   0.90700   0.60390   0.01267  Uiso   1.00
H512   H     0.39240   0.25860   0.44050   0.01267  Uiso   1.00
H513   H     0.83990   0.13590   0.57910   0.01267  Uiso   1.00
H514   H     0.92610   0.01850   0.01170   0.01267  Uiso   1.00
H515   H     0.85570   0.50820   0.56980   0.01267  Uiso   1.00
H516   H     0.77910   0.81670   0.70100   0.01267  Uiso   1.00
H517   H     0.14480   0.82550   0.26100   0.01267  Uiso   1.00
H518   H     0.27910   0.19790   0.61410   0.01267  Uiso   1.00
H519   H     0.60290   0.76480   0.50350   0.01267  Uiso   1.00
H520   H     0.43740   0.79320   0.97300   0.01267  Uiso   1.00
H521   H     0.17030   0.96140   0.08430   0.01267  Uiso   1.00
H522   H     0.16440   0.66150   0.13420   0.01267  Uiso   1.00
H523   H     0.45880   0.30700   0.80190   0.01267  Uiso   1.00
H524   H     0.85520   0.82550   0.76100   0.01267  Uiso   1.00
H525   H     0.93740   0.70680   0.47300   0.01267  Uiso   1.00
H526   H     0.22880   0.86460   0.77450   0.01267  Uiso   1.00
H527   H     0.82380   0.09420   0.60680   0.01267  Uiso   1.00
H528   H     0.03760   0.68500   0.36450   0.01267  Uiso   1.00
H529   H     0.27120   0.63540   0.77450   0.01267  Uiso   1.00
H530   H     0.24350   0.84450   0.86370   0.01267  Uiso   1.00
H531   H     0.60710   0.83920   0.31390   0.01267  Uiso   1.00
H532   H     0.67430   0.95330   0.59710   0.01267  Uiso   1.00
H533   H     0.31590   0.49330   0.10920   0.01267  Uiso   1.00
H534   H     0.38630   0.44740   0.53920   0.01267  Uiso   1.00
H535   H     0.34650   0.15660   0.14020   0.01267  Uiso   1.00
H536   H     0.39050   0.19820   0.38390   0.01267  Uiso   1.00
H537   H     0.66200   0.98140   0.04230   0.01267  Uiso   1.00
H538   H     0.45880   0.69300   0.69810   0.01267  Uiso   1.00
H539   H     0.38770   0.50380   0.41380   0.01267  Uiso   1.00
H540   H     0.17620   0.90580   0.39320   0.01267  Uiso   1.00
H541   H     0.35150   0.65600   0.77370   0.01267  Uiso   1.00
H542   H     0.79170   0.83120   0.17880   0.01267  Uiso   1.00
H543   H     0.29060   0.82800   0.38940   0.01267  Uiso   1.00
H544   H     0.38220   0.71800   0.28490   0.01267  Uiso   1.00
H545   H     0.10760   0.24140   0.44050   0.01267  Uiso   1.00
H546   H     0.26980   0.37860   0.51700   0.01267  Uiso   1.00
H547   H     0.27330   0.14810   0.42800   0.01267  Uiso   1.00
H548   H     0.64430   0.99180   0.56980   0.01267  Uiso   1.00
H549   H     0.79780   0.33060   0.74080   0.01267  Uiso   1.00
H550   H     0.67620   0.40580   0.60680   0.01267  Uiso   1.00
H551   H     0.68410   0.49330   0.60920   0.01267  Uiso   1.00
H552   H     0.89400   0.90850   0.91720   0.01267  Uiso   1.00
H553   H     0.14720   0.07200   0.95490   0.01267  Uiso   1.00
H554   H     0.77910   0.18330   0.79900   0.01267  Uiso   1.00
H555   H     0.39710   0.23520   0.49650   0.01267  Uiso   1.00
H556   H     0.06290   0.18120   0.55910   0.01267  Uiso   1.00
H557   H     0.70830   0.66880   0.17880   0.01267  Uiso   1.00
H558   H     0.84250   0.30440   0.20860   0.01267  Uiso   1.00
H559   H     0.77570   0.38100   0.45900   0.01267  Uiso   1.00
H560   H     0.17430   0.45330   0.40290   0.01267  Uiso   1.00
H561   H     0.24350   0.15550   0.63630   0.01267  Uiso   1.00
H562   H     0.96880   0.87090   0.97290   0.01267  Uiso   1.00
H563   H     0.59020   0.03450   0.90400   0.01267  Uiso   1.00
H564   H     0.72880   0.63540   0.27450   0.01267  Uiso   1.00
H565   H     0.78210   0.52490   0.46120   0.01267  Uiso   1.00
H566   H     0.82570   0.54670   0.59710   0.01267  Uiso   1.00
H567   H     0.11230   0.99620   0.41380   0.01267  Uiso   1.00
H568   H     0.76980   0.87860   0.48300   0.01267  Uiso   1.00
H569   H     0.84580   0.84550   0.20950   0.01267  Uiso   1.00
H570   H     0.85230   0.81080   0.44500   0.01267  Uiso   1.00
H571   H     0.14850   0.15600   0.72630   0.01267  Uiso   1.00
H572   H     0.25350   0.17670   0.51620   0.01267  Uiso   1.00
H573   H     0.22880   0.13540   0.72550   0.01267  Uiso   1.00
H574   H     0.64430   0.00820   0.93020   0.01267  Uiso   1.00
H575   H     0.79780   0.66940   0.75920   0.01267  Uiso   1.00
H576   H     0.77540   0.16120   0.09590   0.01267  Uiso   1.00
H577   H     0.35570   0.99180   0.06980   0.01267  Uiso   1.00
H578   H     0.77120   0.86460   0.27450   0.01267  Uiso   1.00
H579   H     0.57180   0.19990   0.21140   0.01267  Uiso   1.00
H580   H     0.75350   0.67670   0.48380   0.01267  Uiso   1.00
H581   H     0.22720   0.11930   0.39970   0.01267  Uiso   1.00
H582   H     0.21790   0.47510   0.53880   0.01267  Uiso   1.00
H583   H     0.93320   0.78420   0.59120   0.01267  Uiso   1.00
H584   H     0.15750   0.69560   0.79140   0.01267  Uiso   1.00
H585   H     0.30000   0.33210   0.69400   0.01267  Uiso   1.00
H586   H     0.60760   0.74140   0.55950   0.01267  Uiso   1.00
H587   H     0.61370   0.44740   0.03920   0.01267  Uiso   1.00
H588   H     0.07180   0.30010   0.71140   0.01267  Uiso   1.00
H589   H     0.56130   0.40280   0.49570   0.01267  Uiso   1.00
H590   H     0.20220   0.66940   0.25920   0.01267  Uiso   1.00
H591   H     0.24100   0.81420   0.16060   0.01267  Uiso   1.00
H592   H     0.31990   0.54100   0.57630   0.01267  Uiso   1.00
H593   H     0.82570   0.45330   0.90290   0.01267  Uiso   1.00
H594   H     0.85520   0.17450   0.73900   0.01267  Uiso   1.00
H595   H     0.48560   0.18700   0.17560   0.01267  Uiso   1.00
H596   H     0.65030   0.15490   0.70930   0.01267  Uiso   1.00
H597   H     0.01440   0.68700   0.32440   0.01267  Uiso   1.00
H598   H     0.71510   0.67570   0.59530   0.01267  Uiso   1.00
H599   H     0.66380   0.92180   0.04320   0.01267  Uiso   1.00
H600   H     0.20570   0.90470   0.57060   0.01267  Uiso   1.00
H601   H     0.23420   0.36330   0.14120   0.01267  Uiso   1.00
H602   H     0.92070   0.14580   0.36990   0.01267  Uiso   1.00
H603   H     0.29430   0.40470   0.92940   0.01267  Uiso   1.00
H604   H     0.93740   0.29320   0.02700   0.01267  Uiso   1.00
H605   H     0.27540   0.33880   0.59590   0.01267  Uiso   1.00
H606   H     0.49840   0.57670   0.61120   0.01267  Uiso   1.00
H607   H     0.15980   0.97750   0.98850   0.01267  Uiso   1.00
H608   H     0.04120   0.19300   0.80190   0.01267  Uiso   1.00
H609   H     0.51440   0.18700   0.67560   0.01267  Uiso   1.00
H610   H     0.60600   0.40850   0.58280   0.01267  Uiso   1.00
H611   H     0.42610   0.48150   0.51170   0.01267  Uiso   1.00
H612   H     0.43710   0.68120   0.94090   0.01267  Uiso   1.00
H613   H     0.61780   0.28200   0.71510   0.01267  Uiso   1.00
H614   H     0.65280   0.71550   0.58960   0.01267  Uiso   1.00
H615   H     0.15280   0.21550   0.41040   0.01267  Uiso   1.00
H616   H     0.00160   0.92330   0.61120   0.01267  Uiso   1.00
H617   H     0.33800   0.01860   0.95770   0.01267  Uiso   1.00
H618   H     0.01510   0.05700   0.92740   0.01267  Uiso   1.00
H619   H     0.74650   0.17670   0.01620   0.01267  Uiso   1.00
H620   H     0.16440   0.33850   0.36580   0.01267  Uiso   1.00
H621   H     0.43940   0.31540   0.23470   0.01267  Uiso   1.00
H622   H     0.06680   0.78420   0.09120   0.01267  Uiso   1.00
H623   H     0.57390   0.51850   0.48830   0.01267  Uiso   1.00
H624   H     0.38630   0.55260   0.96080   0.01267  Uiso   1.00
H625   H     0.18410   0.99330   0.39080   0.01267  Uiso   1.00
H626   H     0.70220   0.83060   0.75920   0.01267  Uiso   1.00
H627   H     0.26980   0.62140   0.98300   0.01267  Uiso   1.00
H628   H     0.97780   0.19450   0.26130   0.01267  Uiso   1.00
H629   H     0.07930   0.85420   0.63010   0.01267  Uiso   1.00
H630   H     0.03760   0.31500   0.13550   0.01267  Uiso   1.00
H631   H     0.85470   0.47490   0.01650   0.01267  Uiso   1.00
H632   H     0.85230   0.18920   0.05500   0.01267  Uiso   1.00
C1     C     0.11210   0.30680   0.69570   0.01267  Uiso   1.00
C2     C     0.13380   0.46160   0.41810   0.01267  Uiso   1.00
C3     C     0.77460   0.42682   0.50278   0.01267  Uiso   1.00
C4     C     0.04760   0.84437   0.03239   0.01267  Uiso   1.00
C5     C     0.74090   0.82190   0.68390   0.01267  Uiso   1.00
C6     C     0.16720   0.86480   0.05526   0.01267  Uiso   1.00
C7     C     0.61200   0.36300   0.38760   0.01267  Uiso   1.00
C8     C     0.25000   0.25000   0.13930   0.01267  Uiso   1.00
C9     C     0.25000   0.25000   0.09970   0.01267  Uiso   1.00
C10    C     0.75000   0.25000   0.33340   0.01267  Uiso   1.00
C11    C     0.82830   0.36790   0.99127   0.01267  Uiso   1.00
C12    C     0.84350   0.89870   0.91640   0.01267  Uiso   1.00
C13    C     0.66720   0.63520   0.55526   0.01267  Uiso   1.00
C14    C     0.60820   0.30050   0.73640   0.01267  Uiso   1.00
C15    C     0.95060   0.88570   0.51077   0.01267  Uiso   1.00
C16    C     0.38940   0.73430   0.23089   0.01267  Uiso   1.00
C17    C     0.20410   0.83740   0.70380   0.01267  Uiso   1.00
C18    C     0.29610   0.83560   0.36460   0.01267  Uiso   1.00
C19    C     0.98160   0.67890   0.03270   0.01267  Uiso   1.00
C20    C     0.45000   0.73710   0.20860   0.01267  Uiso   1.00
C21    C     0.68800   0.89890   0.02780   0.01267  Uiso   1.00
C22    C     0.53600   0.56070   0.09580   0.01267  Uiso   1.00
C23    C     0.67670   0.78930   0.69241   0.01267  Uiso   1.00
C24    C     0.83500   0.07310   0.43090   0.01267  Uiso   1.00
C25    C     0.01160   0.73880   0.64980   0.01267  Uiso   1.00
C26    C     0.01840   0.67890   0.53270   0.01267  Uiso   1.00
C27    C     0.33280   0.63520   0.05526   0.01267  Uiso   1.00
C28    C     0.17220   0.78840   0.87320   0.01267  Uiso   1.00
C29    C     0.60960   0.32190   0.07070   0.01267  Uiso   1.00
C30    C     0.88400   0.70790   0.67009   0.01267  Uiso   1.00
C31    C     0.01740   0.18930   0.96750   0.01267  Uiso   1.00
C32    C     0.77330   0.20810   0.27570   0.01267  Uiso   1.00
C33    C     0.04890   0.23800   0.61400   0.01267  Uiso   1.00
C34    C     0.75000   0.25000   0.29380   0.01267  Uiso   1.00
C35    C     0.88790   0.26950   0.16541   0.01267  Uiso   1.00
C36    C     0.31200   0.10110   0.97220   0.01267  Uiso   1.00
C37    C     0.19980   0.07338   0.05557   0.01267  Uiso   1.00
C38    C     0.54890   0.73800   0.38600   0.01267  Uiso   1.00
C39    C     0.16500   0.07310   0.93090   0.01267  Uiso   1.00
C40    C     0.23440   0.15370   0.02770   0.01267  Uiso   1.00
C41    C     0.16900   0.90606   0.03364   0.01267  Uiso   1.00
C42    C     0.11060   0.76570   0.23089   0.01267  Uiso   1.00
C43    C     0.79610   0.66440   0.86460   0.01267  Uiso   1.00
C44    C     0.33100   0.40606   0.46636   0.01267  Uiso   1.00
C45    C     0.52230   0.20610   0.65450   0.01267  Uiso   1.00
C46    C     0.66900   0.59394   0.53364   0.01267  Uiso   1.00
C47    C     0.51280   0.26270   0.58880   0.01267  Uiso   1.00
C48    C     0.77380   0.14550   0.91660   0.01267  Uiso   1.00
C49    C     0.17400   0.26040   0.27719   0.01267  Uiso   1.00
C50    C     0.61600   0.79210   0.67009   0.01267  Uiso   1.00
C51    C     0.10820   0.80050   0.26360   0.01267  Uiso   1.00
C52    C     0.75000   0.75000   0.78640   0.01267  Uiso   1.00
C53    C     0.27380   0.35450   0.41660   0.01267  Uiso   1.00
C54    C     0.37820   0.07992   0.44566   0.01267  Uiso   1.00
C55    C     0.10960   0.17810   0.57070   0.01267  Uiso   1.00
C56    C     0.95060   0.11430   0.98923   0.01267  Uiso   1.00
C57    C     0.29730   0.47751   0.05661   0.01267  Uiso   1.00
C58    C     0.25000   0.25000   0.21360   0.01267  Uiso   1.00
C59    C     0.05200   0.35117   0.46697   0.01267  Uiso   1.00
C60    C     0.49090   0.90600   0.57950   0.01267  Uiso   1.00
C61    C     0.01280   0.76270   0.41120   0.01267  Uiso   1.00
C62    C     0.02620   0.21370   0.78260   0.01267  Uiso   1.00
C63    C     0.38520   0.45990   0.51530   0.01267  Uiso   1.00
C64    C     0.54990   0.23220   0.14400   0.01267  Uiso   1.00
C65    C     0.39460   0.20740   0.51210   0.01267  Uiso   1.00
C66    C     0.54940   0.38570   0.98923   0.01267  Uiso   1.00
C67    C     0.47770   0.79390   0.34550   0.01267  Uiso   1.00
C68    C     0.25000   0.25000   0.83340   0.01267  Uiso   1.00
C69    C     0.62180   0.92008   0.55434   0.01267  Uiso   1.00
C70    C     0.45060   0.61430   0.01077   0.01267  Uiso   1.00
C71    C     0.61060   0.26570   0.76911   0.01267  Uiso   1.00
C72    C     0.33500   0.42690   0.93090   0.01267  Uiso   1.00
C73    C     0.98720   0.23730   0.58880   0.01267  Uiso   1.00
C74    C     0.38790   0.19320   0.69570   0.01267  Uiso   1.00
C75    C     0.24150   0.00305   0.46926   0.01267  Uiso   1.00
C76    C     0.19990   0.33720   0.21570   0.01267  Uiso   1.00
C77    C     0.75000   0.25000   0.63930   0.01267  Uiso   1.00
C78    C     0.18330   0.49520   0.52620   0.01267  Uiso   1.00
C79    C     0.11210   0.73050   0.83459   0.01267  Uiso   1.00
C80    C     0.13380   0.53840   0.08190   0.01267  Uiso   1.00
C81    C     0.11600   0.70790   0.17009   0.01267  Uiso   1.00
C82    C     0.60850   0.83933   0.50973   0.01267  Uiso   1.00
C83    C     0.88790   0.30680   0.19570   0.01267  Uiso   1.00
C84    C     0.39180   0.69950   0.26360   0.01267  Uiso   1.00
C85    C     0.02230   0.29390   0.15450   0.01267  Uiso   1.00
C86    C     0.77480   0.20830   0.23830   0.01267  Uiso   1.00
C87    C     0.55000   0.73710   0.70860   0.01267  Uiso   1.00
C88    C     0.82600   0.73960   0.72281   0.01267  Uiso   1.00
C89    C     0.39350   0.66608   0.05464   0.01267  Uiso   1.00
C90    C     0.20410   0.16260   0.79620   0.01267  Uiso   1.00
C91    C     0.72930   0.85630   0.48060   0.01267  Uiso   1.00
C92    C     0.88980   0.08349   0.98860   0.01267  Uiso   1.00
C93    C     0.88800   0.86300   0.11240   0.01267  Uiso   1.00
C94    C     0.17830   0.40820   0.46897   0.01267  Uiso   1.00
C95    C     0.27320   0.20780   0.15740   0.01267  Uiso   1.00
C96    C     0.39000   0.29010   0.60543   0.01267  Uiso   1.00
C97    C     0.10650   0.83392   0.05464   0.01267  Uiso   1.00
C98    C     0.55200   0.85117   0.53303   0.01267  Uiso   1.00
C99    C     0.75000   0.75000   0.86070   0.01267  Uiso   1.00
C100   C     0.25910   0.17810   0.31610   0.01267  Uiso   1.00
C101   C     0.72260   0.02229   0.50382   0.01267  Uiso   1.00
C102   C     0.32330   0.21070   0.30759   0.01267  Uiso   1.00
C103   C     0.22670   0.20810   0.77570   0.01267  Uiso   1.00
C104   C     0.39000   0.70990   0.89457   0.01267  Uiso   1.00
C105   C     0.82600   0.26040   0.77719   0.01267  Uiso   1.00
C106   C     0.52060   0.60230   0.98860   0.01267  Uiso   1.00
C107   C     0.45060   0.38570   0.48923   0.01267  Uiso   1.00
C108   C     0.73580   0.59872   0.97135   0.01267  Uiso   1.00
C109   C     0.22540   0.57318   0.49722   0.01267  Uiso   1.00
C110   C     0.00910   0.40600   0.92050   0.01267  Uiso   1.00
C111   C     0.10820   0.19950   0.23640   0.01267  Uiso   1.00
C112   C     0.25850   0.49695   0.46926   0.01267  Uiso   1.00
C113   C     0.98840   0.73880   0.14980   0.01267  Uiso   1.00
C114   C     0.27330   0.70810   0.72430   0.01267  Uiso   1.00
C115   C     0.39460   0.79260   0.98790   0.01267  Uiso   1.00
C116   C     0.38790   0.80680   0.80430   0.01267  Uiso   1.00
C117   C     0.11750   0.32270   0.36370   0.01267  Uiso   1.00
C118   C     0.51740   0.31070   0.46750   0.01267  Uiso   1.00
C119   C     0.67320   0.74130   0.34319   0.01267  Uiso   1.00
C120   C     0.23580   0.90128   0.47135   0.01267  Uiso   1.00
C121   C     0.99090   0.40600   0.42050   0.01267  Uiso   1.00
C122   C     0.11020   0.08349   0.48860   0.01267  Uiso   1.00
C123   C     0.30010   0.16280   0.21570   0.01267  Uiso   1.00
C124   C     0.77070   0.35630   0.01940   0.01267  Uiso   1.00
C125   C     0.16500   0.92690   0.56910   0.01267  Uiso   1.00
C126   C     0.47380   0.28630   0.78260   0.01267  Uiso   1.00
C127   C     0.62180   0.07992   0.94566   0.01267  Uiso   1.00
C128   C     0.51160   0.23880   0.35020   0.01267  Uiso   1.00
C129   C     0.83100   0.09394   0.96636   0.01267  Uiso   1.00
C130   C     0.83500   0.92690   0.06910   0.01267  Uiso   1.00
C131   C     0.75000   0.75000   0.28020   0.01267  Uiso   1.00
C132   C     0.72670   0.29190   0.27570   0.01267  Uiso   1.00
C133   C     0.77740   0.47771   0.50382   0.01267  Uiso   1.00
C134   C     0.24090   0.32190   0.31610   0.01267  Uiso   1.00
C135   C     0.11000   0.20990   0.60543   0.01267  Uiso   1.00
C136   C     0.54760   0.34437   0.96761   0.01267  Uiso   1.00
C137   C     0.44800   0.85117   0.03303   0.01267  Uiso   1.00
C138   C     0.60850   0.16067   0.99027   0.01267  Uiso   1.00
C139   C     0.70410   0.33740   0.29620   0.01267  Uiso   1.00
C140   C     0.38790   0.76950   0.83459   0.01267  Uiso   1.00
C141   C     0.75910   0.67810   0.68390   0.01267  Uiso   1.00
C142   C     0.20270   0.97751   0.44339   0.01267  Uiso   1.00
C143   C     0.52230   0.79390   0.84550   0.01267  Uiso   1.00
C144   C     0.82330   0.71070   0.69241   0.01267  Uiso   1.00
C145   C     0.25000   0.75000   0.54490   0.01267  Uiso   1.00
C146   C     0.27460   0.07318   0.00278   0.01267  Uiso   1.00
C147   C     0.38800   0.63700   0.61240   0.01267  Uiso   1.00
C148   C     0.05200   0.64883   0.03303   0.01267  Uiso   1.00
C149   C     0.88940   0.76570   0.73089   0.01267  Uiso   1.00
C150   C     0.27070   0.14370   0.51940   0.01267  Uiso   1.00
C151   C     0.32170   0.09180   0.46897   0.01267  Uiso   1.00
C152   C     0.88520   0.04010   0.01530   0.01267  Uiso   1.00
C153   C     0.39180   0.30050   0.23640   0.01267  Uiso   1.00
C154   C     0.48260   0.31070   0.96750   0.01267  Uiso   1.00
C155   C     0.88250   0.32270   0.86370   0.01267  Uiso   1.00
C156   C     0.02060   0.89770   0.48860   0.01267  Uiso   1.00
C157   C     0.73440   0.34630   0.52770   0.01267  Uiso   1.00
C158   C     0.89040   0.82190   0.42930   0.01267  Uiso   1.00
C159   C     0.55260   0.76600   0.67818   0.01267  Uiso   1.00
C160   C     0.60540   0.20740   0.01210   0.01267  Uiso   1.00
C161   C     0.55860   0.89150   0.55534   0.01267  Uiso   1.00
C162   C     0.44740   0.76600   0.17818   0.01267  Uiso   1.00
C163   C     0.61210   0.76950   0.33459   0.01267  Uiso   1.00
C164   C     0.26420   0.40128   0.02865   0.01267  Uiso   1.00
C165   C     0.27480   0.70830   0.76170   0.01267  Uiso   1.00
C166   C     0.17220   0.21160   0.62680   0.01267  Uiso   1.00
C167   C     0.33620   0.50380   0.08690   0.01267  Uiso   1.00
C168   C     0.74090   0.17810   0.81610   0.01267  Uiso   1.00
C169   C     0.32680   0.25870   0.65681   0.01267  Uiso   1.00
C170   C     0.75000   0.25000   0.59970   0.01267  Uiso   1.00
C171   C     0.89000   0.79010   0.39457   0.01267  Uiso   1.00
C172   C     0.82780   0.78840   0.37320   0.01267  Uiso   1.00
C173   C     0.69810   0.66270   0.28070   0.01267  Uiso   1.00
C174   C     0.54990   0.76780   0.35600   0.01267  Uiso   1.00
C175   C     0.31670   0.99520   0.97380   0.01267  Uiso   1.00
C176   C     0.18800   0.60110   0.52780   0.01267  Uiso   1.00
C177   C     0.38980   0.41651   0.48860   0.01267  Uiso   1.00
C178   C     0.47380   0.71370   0.71740   0.01267  Uiso   1.00
C179   C     0.72680   0.79220   0.84260   0.01267  Uiso   1.00
C180   C     0.11200   0.13700   0.88760   0.01267  Uiso   1.00
C181   C     0.89350   0.16608   0.94536   0.01267  Uiso   1.00
C182   C     0.89000   0.20990   0.10543   0.01267  Uiso   1.00
C183   C     0.63380   0.96160   0.58190   0.01267  Uiso   1.00
C184   C     0.11600   0.29210   0.32991   0.01267  Uiso   1.00
C185   C     0.29590   0.33740   0.79620   0.01267  Uiso   1.00
C186   C     0.77740   0.52229   0.99618   0.01267  Uiso   1.00
C187   C     0.18330   0.50480   0.97380   0.01267  Uiso   1.00
C188   C     0.94140   0.60850   0.55534   0.01267  Uiso   1.00
C189   C     0.50910   0.09400   0.42050   0.01267  Uiso   1.00
C190   C     0.89460   0.29260   0.01210   0.01267  Uiso   1.00
C191   C     0.54890   0.26200   0.11400   0.01267  Uiso   1.00
C192   C     0.30190   0.33730   0.71930   0.01267  Uiso   1.00
C193   C     0.32170   0.90820   0.03103   0.01267  Uiso   1.00
C194   C     0.11210   0.26950   0.66541   0.01267  Uiso   1.00
C195   C     0.76420   0.09872   0.52865   0.01267  Uiso   1.00
C196   C     0.89140   0.21420   0.92430   0.01267  Uiso   1.00
C197   C     0.05260   0.26600   0.32182   0.01267  Uiso   1.00
C198   C     0.77480   0.79170   0.26170   0.01267  Uiso   1.00
C199   C     0.36620   0.03840   0.41810   0.01267  Uiso   1.00
C200   C     0.66900   0.40606   0.96636   0.01267  Uiso   1.00
C201   C     0.01740   0.81070   0.53250   0.01267  Uiso   1.00
C202   C     0.02230   0.70610   0.34550   0.01267  Uiso   1.00
C203   C     0.54940   0.61430   0.51077   0.01267  Uiso   1.00
C204   C     0.65650   0.60130   0.91640   0.01267  Uiso   1.00
C205   C     0.89180   0.19950   0.73640   0.01267  Uiso   1.00
C206   C     0.72620   0.35450   0.91660   0.01267  Uiso   1.00
C207   C     0.38400   0.20790   0.32991   0.01267  Uiso   1.00
C208   C     0.60820   0.69950   0.76360   0.01267  Uiso   1.00
C209   C     0.77460   0.57318   0.99722   0.01267  Uiso   1.00
C210   C     0.61750   0.82270   0.63630   0.01267  Uiso   1.00
C211   C     0.16380   0.99620   0.08690   0.01267  Uiso   1.00
C212   C     0.19810   0.16270   0.71930   0.01267  Uiso   1.00
C213   C     0.55000   0.26290   0.79140   0.01267  Uiso   1.00
C214   C     0.45010   0.76780   0.85600   0.01267  Uiso   1.00
C215   C     0.81670   0.49520   0.02620   0.01267  Uiso   1.00
C216   C     0.55200   0.14883   0.96697   0.01267  Uiso   1.00
C217   C     0.16900   0.09394   0.46636   0.01267  Uiso   1.00
C218   C     0.76560   0.84630   0.97230   0.01267  Uiso   1.00
C219   C     0.80190   0.83730   0.28070   0.01267  Uiso   1.00
C220   C     0.27460   0.92682   0.49722   0.01267  Uiso   1.00
C221   C     0.67220   0.28840   0.12680   0.01267  Uiso   1.00
C222   C     0.48260   0.68930   0.53250   0.01267  Uiso   1.00
C223   C     0.25000   0.25000   0.79380   0.01267  Uiso   1.00
C224   C     0.60540   0.79260   0.48790   0.01267  Uiso   1.00
C225   C     0.72670   0.70810   0.22430   0.01267  Uiso   1.00
C226   C     0.11000   0.79010   0.89457   0.01267  Uiso   1.00
C227   C     0.32330   0.78930   0.19241   0.01267  Uiso   1.00
C228   C     0.61750   0.17730   0.86370   0.01267  Uiso   1.00
C229   C     0.89150   0.66067   0.50973   0.01267  Uiso   1.00
C230   C     0.75910   0.32190   0.81610   0.01267  Uiso   1.00
C231   C     0.17670   0.28930   0.30759   0.01267  Uiso   1.00
C232   C     0.17170   0.36790   0.49127   0.01267  Uiso   1.00
C233   C     0.83620   0.00380   0.91310   0.01267  Uiso   1.00
C234   C     0.66380   0.49620   0.91310   0.01267  Uiso   1.00
C235   C     0.25000   0.75000   0.70620   0.01267  Uiso   1.00
C236   C     0.32830   0.86790   0.00873   0.01267  Uiso   1.00
C237   C     0.75850   0.99695   0.53074   0.01267  Uiso   1.00
C238   C     0.27380   0.64550   0.08340   0.01267  Uiso   1.00
C239   C     0.79590   0.83740   0.20380   0.01267  Uiso   1.00
C240   C     0.60860   0.28580   0.92430   0.01267  Uiso   1.00
C241   C     0.12180   0.42008   0.44566   0.01267  Uiso   1.00
C242   C     0.22550   0.70880   0.30530   0.01267  Uiso   1.00
C243   C     0.67830   0.90820   0.53103   0.01267  Uiso   1.00
C244   C     0.55260   0.23400   0.82182   0.01267  Uiso   1.00
C245   C     0.15650   0.89870   0.41640   0.01267  Uiso   1.00
C246   C     0.25000   0.25000   0.71980   0.01267  Uiso   1.00
C247   C     0.95010   0.26780   0.14400   0.01267  Uiso   1.00
C248   C     0.97770   0.70610   0.84550   0.01267  Uiso   1.00
C249   C     0.17400   0.73960   0.22281   0.01267  Uiso   1.00
C250   C     0.30190   0.66270   0.78070   0.01267  Uiso   1.00
C251   C     0.54760   0.65563   0.53239   0.01267  Uiso   1.00
C252   C     0.81200   0.39890   0.47220   0.01267  Uiso   1.00
C253   C     0.68330   0.99520   0.47380   0.01267  Uiso   1.00
C254   C     0.72930   0.14370   0.01940   0.01267  Uiso   1.00
C255   C     0.25910   0.82190   0.18390   0.01267  Uiso   1.00
C256   C     0.27070   0.85630   0.98060   0.01267  Uiso   1.00
C257   C     0.73560   0.32150   0.11740   0.01267  Uiso   1.00
C258   C     0.01160   0.26120   0.85020   0.01267  Uiso   1.00
C259   C     0.30020   0.42662   0.05557   0.01267  Uiso   1.00
C260   C     0.63380   0.03840   0.91810   0.01267  Uiso   1.00
C261   C     0.23440   0.84630   0.47230   0.01267  Uiso   1.00
C262   C     0.60650   0.66608   0.55464   0.01267  Uiso   1.00
C263   C     0.89180   0.80050   0.76360   0.01267  Uiso   1.00
C264   C     0.32600   0.76040   0.22281   0.01267  Uiso   1.00
C265   C     0.53600   0.43930   0.40420   0.01267  Uiso   1.00
C266   C     0.27450   0.79120   0.30530   0.01267  Uiso   1.00
C267   C     0.81670   0.50480   0.47380   0.01267  Uiso   1.00
C268   C     0.12180   0.57992   0.05434   0.01267  Uiso   1.00
C269   C     0.72680   0.20780   0.65740   0.01267  Uiso   1.00
C270   C     0.24090   0.67810   0.18390   0.01267  Uiso   1.00
C271   C     0.05000   0.76290   0.20860   0.01267  Uiso   1.00
C272   C     0.95010   0.73220   0.35600   0.01267  Uiso   1.00
C273   C     0.69980   0.42662   0.55557   0.01267  Uiso   1.00
C274   C     0.32780   0.28840   0.62680   0.01267  Uiso   1.00
C275   C     0.11020   0.91651   0.01140   0.01267  Uiso   1.00
C276   C     0.19810   0.83730   0.78070   0.01267  Uiso   1.00
C277   C     0.22930   0.35630   0.51940   0.01267  Uiso   1.00
C278   C     0.75000   0.25000   0.21980   0.01267  Uiso   1.00
C279   C     0.61000   0.70990   0.39457   0.01267  Uiso   1.00
C280   C     0.04760   0.15563   0.46761   0.01267  Uiso   1.00
C281   C     0.98160   0.32110   0.46730   0.01267  Uiso   1.00
C282   C     0.80190   0.16270   0.21930   0.01267  Uiso   1.00
C283   C     0.20390   0.33560   0.13540   0.01267  Uiso   1.00
C284   C     0.38940   0.26570   0.26911   0.01267  Uiso   1.00
C285   C     0.94800   0.35117   0.96697   0.01267  Uiso   1.00
C286   C     0.97940   0.10230   0.51140   0.01267  Uiso   1.00
C287   C     0.70270   0.52249   0.94339   0.01267  Uiso   1.00
C288   C     0.98260   0.18930   0.46750   0.01267  Uiso   1.00
C289   C     0.37820   0.92008   0.05434   0.01267  Uiso   1.00
C290   C     0.11200   0.86300   0.61240   0.01267  Uiso   1.00
C291   C     0.10860   0.78580   0.07570   0.01267  Uiso   1.00
C292   C     0.45010   0.23220   0.64400   0.01267  Uiso   1.00
C293   C     0.72550   0.79120   0.80530   0.01267  Uiso   1.00
C294   C     0.66720   0.36480   0.94474   0.01267  Uiso   1.00
C295   C     0.51160   0.76120   0.14980   0.01267  Uiso   1.00
C296   C     0.03600   0.93930   0.59580   0.01267  Uiso   1.00
C297   C     0.61480   0.45990   0.01530   0.01267  Uiso   1.00
C298   C     0.27740   0.02229   0.00382   0.01267  Uiso   1.00
C299   C     0.39350   0.33392   0.44536   0.01267  Uiso   1.00
C300   C     0.82170   0.59180   0.53103   0.01267  Uiso   1.00
C301   C     0.60960   0.67810   0.42930   0.01267  Uiso   1.00
C302   C     0.74150   0.49695   0.96926   0.01267  Uiso   1.00
C303   C     0.72520   0.70830   0.26170   0.01267  Uiso   1.00
C304   C     0.11480   0.04010   0.51530   0.01267  Uiso   1.00
C305   C     0.44740   0.23400   0.32182   0.01267  Uiso   1.00
C306   C     0.83280   0.13520   0.94474   0.01267  Uiso   1.00
C307   C     0.51840   0.82110   0.03270   0.01267  Uiso   1.00
C308   C     0.23560   0.82150   0.88260   0.01267  Uiso   1.00
C309   C     0.38400   0.79210   0.17009   0.01267  Uiso   1.00
C310   C     0.33500   0.57310   0.56910   0.01267  Uiso   1.00
C311   C     0.89350   0.83392   0.55464   0.01267  Uiso   1.00
C312   C     0.03600   0.06070   0.90420   0.01267  Uiso   1.00
C313   C     0.52620   0.28630   0.28260   0.01267  Uiso   1.00
C314   C     0.22930   0.64370   0.98060   0.01267  Uiso   1.00
C315   C     0.10960   0.82190   0.92930   0.01267  Uiso   1.00
C316   C     0.76560   0.15370   0.52770   0.01267  Uiso   1.00
C317   C     0.80010   0.33720   0.71570   0.01267  Uiso   1.00
C318   C     0.48840   0.23880   0.85020   0.01267  Uiso   1.00
C319   C     0.10540   0.70740   0.98790   0.01267  Uiso   1.00
C320   C     0.88980   0.91651   0.51140   0.01267  Uiso   1.00
C321   C     0.25000   0.75000   0.66660   0.01267  Uiso   1.00
C322   C     0.47770   0.20610   0.15450   0.01267  Uiso   1.00
C323   C     0.88800   0.13700   0.38760   0.01267  Uiso   1.00
C324   C     0.79730   0.02249   0.55661   0.01267  Uiso   1.00
C325   C     0.72260   0.97771   0.99618   0.01267  Uiso   1.00
C326   C     0.24150   0.99695   0.03074   0.01267  Uiso   1.00
C327   C     0.10860   0.21420   0.42430   0.01267  Uiso   1.00
C328   C     0.95000   0.76290   0.70860   0.01267  Uiso   1.00
C329   C     0.22680   0.29220   0.15740   0.01267  Uiso   1.00
C330   C     0.11060   0.23430   0.26911   0.01267  Uiso   1.00
C331   C     0.86620   0.53840   0.58190   0.01267  Uiso   1.00
C332   C     0.88520   0.95990   0.48470   0.01267  Uiso   1.00
C333   C     0.51840   0.17890   0.46730   0.01267  Uiso   1.00
C334   C     0.66500   0.42690   0.43090   0.01267  Uiso   1.00
C335   C     0.33100   0.59394   0.03364   0.01267  Uiso   1.00
C336   C     0.10850   0.33933   0.49027   0.01267  Uiso   1.00
C337   C     0.29590   0.66260   0.70380   0.01267  Uiso   1.00
C338   C     0.31200   0.89890   0.52780   0.01267  Uiso   1.00
C339   C     0.30020   0.57338   0.44443   0.01267  Uiso   1.00
C340   C     0.01840   0.32110   0.96730   0.01267  Uiso   1.00
C341   C     0.31670   0.00480   0.52620   0.01267  Uiso   1.00
C342   C     0.38250   0.17730   0.36370   0.01267  Uiso   1.00
C343   C     0.67170   0.13210   0.99127   0.01267  Uiso   1.00
C344   C     0.22670   0.79190   0.72430   0.01267  Uiso   1.00
C345   C     0.97940   0.89770   0.98860   0.01267  Uiso   1.00
C346   C     0.61210   0.80680   0.30430   0.01267  Uiso   1.00
C347   C     0.19980   0.92662   0.44443   0.01267  Uiso   1.00
C348   C     0.82680   0.75870   0.34319   0.01267  Uiso   1.00
C349   C     0.61600   0.20790   0.82991   0.01267  Uiso   1.00
C350   C     0.70410   0.66260   0.20380   0.01267  Uiso   1.00
C351   C     0.77330   0.79190   0.22430   0.01267  Uiso   1.00
C352   C     0.38250   0.82270   0.13630   0.01267  Uiso   1.00
C353   C     0.70390   0.16440   0.63540   0.01267  Uiso   1.00
C354   C     0.36620   0.96160   0.08190   0.01267  Uiso   1.00
C355   C     0.47940   0.39770   0.01140   0.01267  Uiso   1.00
C356   C     0.61020   0.41651   0.98860   0.01267  Uiso   1.00
C357   C     0.44140   0.10850   0.44466   0.01267  Uiso   1.00
C358   C     0.77450   0.70880   0.80530   0.01267  Uiso   1.00
C359   C     0.45240   0.65563   0.03239   0.01267  Uiso   1.00
C360   C     0.26560   0.34630   0.02770   0.01267  Uiso   1.00
C361   C     0.39150   0.16067   0.49027   0.01267  Uiso   1.00
C362   C     0.26420   0.59872   0.47135   0.01267  Uiso   1.00
C363   C     0.22260   0.47771   0.00382   0.01267  Uiso   1.00
C364   C     0.96400   0.93930   0.09580   0.01267  Uiso   1.00
C365   C     0.22680   0.70780   0.34260   0.01267  Uiso   1.00
C366   C     0.61000   0.29010   0.10543   0.01267  Uiso   1.00
C367   C     0.79730   0.97751   0.94339   0.01267  Uiso   1.00
C368   C     0.66500   0.57310   0.06910   0.01267  Uiso   1.00
C369   C     0.89460   0.70740   0.48790   0.01267  Uiso   1.00
C370   C     0.25000   0.75000   0.28640   0.01267  Uiso   1.00
C371   C     0.27480   0.29170   0.73830   0.01267  Uiso   1.00
C372   C     0.89040   0.17810   0.07070   0.01267  Uiso   1.00
C373   C     0.96400   0.06070   0.40420   0.01267  Uiso   1.00
C374   C     0.22520   0.20830   0.73830   0.01267  Uiso   1.00
C375   C     0.75000   0.25000   0.71360   0.01267  Uiso   1.00
C376   C     0.61210   0.19320   0.19570   0.01267  Uiso   1.00
C377   C     0.77450   0.29120   0.69470   0.01267  Uiso   1.00
C378   C     0.38520   0.54010   0.98470   0.01267  Uiso   1.00
C379   C     0.47940   0.60230   0.48860   0.01267  Uiso   1.00
C380   C     0.04990   0.73220   0.85600   0.01267  Uiso   1.00
C381   C     0.02620   0.78630   0.71740   0.01267  Uiso   1.00
C382   C     0.86620   0.46160   0.91810   0.01267  Uiso   1.00
C383   C     0.83280   0.86480   0.55526   0.01267  Uiso   1.00
C384   C     0.39040   0.67810   0.92930   0.01267  Uiso   1.00
C385   C     0.15650   0.10130   0.08360   0.01267  Uiso   1.00
C386   C     0.17320   0.24130   0.65681   0.01267  Uiso   1.00
C387   C     0.32780   0.71160   0.87320   0.01267  Uiso   1.00
C388   C     0.67400   0.23960   0.77719   0.01267  Uiso   1.00
C389   C     0.72620   0.64550   0.58340   0.01267  Uiso   1.00
C390   C     0.87820   0.57992   0.55434   0.01267  Uiso   1.00
C391   C     0.16380   0.00380   0.41310   0.01267  Uiso   1.00
C392   C     0.38980   0.58349   0.01140   0.01267  Uiso   1.00
C393   C     0.32680   0.74130   0.84319   0.01267  Uiso   1.00
C394   C     0.05260   0.73400   0.17818   0.01267  Uiso   1.00
C395   C     0.70390   0.83560   0.86460   0.01267  Uiso   1.00
C396   C     0.72540   0.92682   0.99722   0.01267  Uiso   1.00
C397   C     0.75000   0.75000   0.20620   0.01267  Uiso   1.00
C398   C     0.39140   0.71420   0.07570   0.01267  Uiso   1.00
C399   C     0.46400   0.56070   0.59580   0.01267  Uiso   1.00
C400   C     0.94140   0.39150   0.94466   0.01267  Uiso   1.00
C401   C     0.72520   0.29170   0.23830   0.01267  Uiso   1.00
C402   C     0.19990   0.66280   0.28430   0.01267  Uiso   1.00
C403   C     0.10540   0.29260   0.51210   0.01267  Uiso   1.00
C404   C     0.61060   0.73430   0.73089   0.01267  Uiso   1.00
C405   C     0.82780   0.21160   0.12680   0.01267  Uiso   1.00
C406   C     0.22260   0.52229   0.49618   0.01267  Uiso   1.00
C407   C     0.82170   0.40820   0.96897   0.01267  Uiso   1.00
C408   C     0.04890   0.76200   0.88600   0.01267  Uiso   1.00
C409   C     0.32830   0.13210   0.49127   0.01267  Uiso   1.00
C410   C     0.83100   0.90606   0.53364   0.01267  Uiso   1.00
C411   C     0.76440   0.17850   0.11740   0.01267  Uiso   1.00
C412   C     0.20270   0.02249   0.05661   0.01267  Uiso   1.00
C413   C     0.72540   0.07318   0.50278   0.01267  Uiso   1.00
C414   C     0.75000   0.75000   0.16660   0.01267  Uiso   1.00
C415   C     0.11750   0.67730   0.13630   0.01267  Uiso   1.00
C416   C     0.25000   0.75000   0.40030   0.01267  Uiso   1.00
C417   C     0.25000   0.75000   0.36070   0.01267  Uiso   1.00
C418   C     0.27330   0.29190   0.77570   0.01267  Uiso   1.00
C419   C     0.00910   0.59400   0.57950   0.01267  Uiso   1.00
C420   C     0.04990   0.26780   0.64400   0.01267  Uiso   1.00
C421   C     0.22540   0.42682   0.00278   0.01267  Uiso   1.00
C422   C     0.82330   0.28930   0.80759   0.01267  Uiso   1.00
C423   C     0.80010   0.66280   0.78430   0.01267  Uiso   1.00
C424   C     0.22550   0.29120   0.19470   0.01267  Uiso   1.00
C425   C     0.61020   0.58349   0.51140   0.01267  Uiso   1.00
C426   C     0.98260   0.81070   0.03250   0.01267  Uiso   1.00
C427   C     0.05860   0.39150   0.44466   0.01267  Uiso   1.00
C428   C     0.02060   0.10230   0.01140   0.01267  Uiso   1.00
C429   C     0.04940   0.88570   0.01077   0.01267  Uiso   1.00
C430   C     0.95110   0.23800   0.11400   0.01267  Uiso   1.00
C431   C     0.76440   0.82150   0.38260   0.01267  Uiso   1.00
C432   C     0.22620   0.14550   0.41660   0.01267  Uiso   1.00
C433   C     0.75000   0.25000   0.45510   0.01267  Uiso   1.00
C434   C     0.52060   0.39770   0.51140   0.01267  Uiso   1.00
C435   C     0.88400   0.29210   0.82991   0.01267  Uiso   1.00
C436   C     0.38800   0.36300   0.88760   0.01267  Uiso   1.00
C437   C     0.45110   0.26200   0.61400   0.01267  Uiso   1.00
C438   C     0.38790   0.23050   0.66541   0.01267  Uiso   1.00
C439   C     0.51740   0.68930   0.03250   0.01267  Uiso   1.00
C440   C     0.25000   0.25000   0.95510   0.01267  Uiso   1.00
C441   C     0.11480   0.95990   0.98470   0.01267  Uiso   1.00
C442   C     0.67170   0.86790   0.50873   0.01267  Uiso   1.00
C443   C     0.68800   0.10110   0.47220   0.01267  Uiso   1.00
C444   C     0.74150   0.50305   0.53074   0.01267  Uiso   1.00
C445   C     0.05000   0.23710   0.29140   0.01267  Uiso   1.00
C446   C     0.17320   0.75870   0.84319   0.01267  Uiso   1.00
C447   C     0.39150   0.83933   0.00973   0.01267  Uiso   1.00
C448   C     0.88250   0.67730   0.63630   0.01267  Uiso   1.00
C449   C     0.29730   0.52249   0.44339   0.01267  Uiso   1.00
C450   C     0.32600   0.23960   0.27719   0.01267  Uiso   1.00
C451   C     0.48160   0.82110   0.53270   0.01267  Uiso   1.00
C452   C     0.83620   0.99620   0.58690   0.01267  Uiso   1.00
C453   C     0.72550   0.20880   0.69470   0.01267  Uiso   1.00
C454   C     0.44140   0.89150   0.05534   0.01267  Uiso   1.00
C455   C     0.79590   0.16260   0.29620   0.01267  Uiso   1.00
C456   C     0.75000   0.75000   0.90030   0.01267  Uiso   1.00
C457   C     0.45000   0.26290   0.29140   0.01267  Uiso   1.00
C458   C     0.88790   0.69320   0.30430   0.01267  Uiso   1.00
C459   C     0.79610   0.33560   0.63540   0.01267  Uiso   1.00
C460   C     0.17670   0.71070   0.19241   0.01267  Uiso   1.00
C461   C     0.65650   0.39870   0.58360   0.01267  Uiso   1.00
C462   C     0.01280   0.23730   0.08880   0.01267  Uiso   1.00
C463   C     0.87820   0.42008   0.94566   0.01267  Uiso   1.00
C464   C     0.23560   0.17850   0.61740   0.01267  Uiso   1.00
C465   C     0.44800   0.14883   0.46697   0.01267  Uiso   1.00
C466   C     0.23580   0.09872   0.02865   0.01267  Uiso   1.00
C467   C     0.45240   0.34437   0.46761   0.01267  Uiso   1.00
C468   C     0.95240   0.15563   0.96761   0.01267  Uiso   1.00
C469   C     0.70270   0.47751   0.55661   0.01267  Uiso   1.00
C470   C     0.60860   0.71420   0.57570   0.01267  Uiso   1.00
C471   C     0.94800   0.64883   0.53303   0.01267  Uiso   1.00
C472   C     0.73560   0.67850   0.38260   0.01267  Uiso   1.00
C473   C     0.81200   0.60110   0.02780   0.01267  Uiso   1.00
C474   C     0.10850   0.66067   0.00973   0.01267  Uiso   1.00
C475   C     0.67830   0.09180   0.96897   0.01267  Uiso   1.00
C476   C     0.48720   0.26270   0.08880   0.01267  Uiso   1.00
C477   C     0.27320   0.79220   0.34260   0.01267  Uiso   1.00
C478   C     0.45110   0.73800   0.88600   0.01267  Uiso   1.00
C479   C     0.89140   0.78580   0.57570   0.01267  Uiso   1.00
C480   C     0.18800   0.39890   0.97220   0.01267  Uiso   1.00
C481   C     0.67670   0.21070   0.80759   0.01267  Uiso   1.00
C482   C     0.73580   0.40128   0.52865   0.01267  Uiso   1.00
C483   C     0.30010   0.83720   0.28430   0.01267  Uiso   1.00
C484   C     0.46400   0.43930   0.90420   0.01267  Uiso   1.00
C485   C     0.95000   0.23710   0.79140   0.01267  Uiso   1.00
C486   C     0.69990   0.16280   0.71570   0.01267  Uiso   1.00
C487   C     0.61480   0.54010   0.48470   0.01267  Uiso   1.00
C488   C     0.27740   0.97771   0.49618   0.01267  Uiso   1.00
C489   C     0.11210   0.69320   0.80430   0.01267  Uiso   1.00
C490   C     0.33620   0.49620   0.41310   0.01267  Uiso   1.00
C491   C     0.26560   0.65370   0.47230   0.01267  Uiso   1.00
C492   C     0.25850   0.50305   0.03074   0.01267  Uiso   1.00
C493   C     0.39140   0.28580   0.42430   0.01267  Uiso   1.00
C494   C     0.04940   0.11430   0.48923   0.01267  Uiso   1.00
C495   C     0.20390   0.66440   0.36460   0.01267  Uiso   1.00
C496   C     0.88940   0.23430   0.76911   0.01267  Uiso   1.00
C497   C     0.69990   0.83720   0.78430   0.01267  Uiso   1.00
C498   C     0.16720   0.13520   0.44474   0.01267  Uiso   1.00
C499   C     0.69980   0.57338   0.94443   0.01267  Uiso   1.00
C500   C     0.27450   0.20880   0.19470   0.01267  Uiso   1.00
C501   C     0.77380   0.85450   0.58340   0.01267  Uiso   1.00
C502   C     0.49090   0.09400   0.92050   0.01267  Uiso   1.00
C503   C     0.34350   0.39870   0.08360   0.01267  Uiso   1.00
C504   C     0.77320   0.29220   0.65740   0.01267  Uiso   1.00
C505   C     0.26440   0.32150   0.61740   0.01267  Uiso   1.00
C506   C     0.26440   0.67850   0.88260   0.01267  Uiso   1.00
C507   C     0.52620   0.71370   0.21740   0.01267  Uiso   1.00
C508   C     0.95110   0.76200   0.38600   0.01267  Uiso   1.00
C509   C     0.25000   0.75000   0.78020   0.01267  Uiso   1.00
C510   C     0.33280   0.36480   0.44474   0.01267  Uiso   1.00
C511   C     0.34350   0.60130   0.41640   0.01267  Uiso   1.00
C512   C     0.67220   0.71160   0.37320   0.01267  Uiso   1.00
C513   C     0.84350   0.10130   0.58360   0.01267  Uiso   1.00
C514   C     0.97380   0.78630   0.21740   0.01267  Uiso   1.00
C515   C     0.51280   0.73730   0.91120   0.01267  Uiso   1.00
C516   C     0.22620   0.85450   0.08340   0.01267  Uiso   1.00
C517   C     0.61200   0.63700   0.11240   0.01267  Uiso   1.00
C518   C     0.98720   0.76270   0.91120   0.01267  Uiso   1.00
C519   C     0.61210   0.23050   0.16541   0.01267  Uiso   1.00
C520   C     0.94740   0.26600   0.82182   0.01267  Uiso   1.00
C521   C     0.89150   0.33933   0.99027   0.01267  Uiso   1.00
C522   C     0.82830   0.63210   0.50873   0.01267  Uiso   1.00
C523   C     0.73440   0.65370   0.97230   0.01267  Uiso   1.00
C524   C     0.88790   0.73050   0.33459   0.01267  Uiso   1.00
C525   C     0.39040   0.32190   0.57070   0.01267  Uiso   1.00
C526   C     0.60650   0.33392   0.94536   0.01267  Uiso   1.00
C527   C     0.80020   0.92662   0.94443   0.01267  Uiso   1.00
C528   C     0.48840   0.76120   0.64980   0.01267  Uiso   1.00
C529   C     0.77320   0.70780   0.84260   0.01267  Uiso   1.00
C530   C     0.80020   0.07338   0.55557   0.01267  Uiso   1.00
C531   C     0.05860   0.60850   0.05534   0.01267  Uiso   1.00
C532   C     0.97380   0.21370   0.28260   0.01267  Uiso   1.00
C533   C     0.17170   0.63210   0.00873   0.01267  Uiso   1.00
C534   C     0.97770   0.29390   0.65450   0.01267  Uiso   1.00
C535   C     0.95240   0.84437   0.53239   0.01267  Uiso   1.00
C536   C     0.22520   0.79170   0.76170   0.01267  Uiso   1.00
C537   C     0.76420   0.90128   0.97135   0.01267  Uiso   1.00
C538   C     0.68330   0.00480   0.02620   0.01267  Uiso   1.00
C539   C     0.17830   0.59180   0.03103   0.01267  Uiso   1.00
C540   C     0.94740   0.73400   0.67818   0.01267  Uiso   1.00
C541   C     0.82680   0.24130   0.15681   0.01267  Uiso   1.00
C542   C     0.75850   0.00305   0.96926   0.01267  Uiso   1.00
C543   C     0.29610   0.16440   0.13540   0.01267  Uiso   1.00
C544   C     0.67320   0.25870   0.15681   0.01267  Uiso   1.00
C545   C     0.67400   0.76040   0.72281   0.01267  Uiso   1.00
C546   C     0.48720   0.73730   0.41120   0.01267  Uiso   1.00
C547   C     0.48160   0.17890   0.96730   0.01267  Uiso   1.00
C548   C     0.77070   0.64370   0.48060   0.01267  Uiso   1.00
C549   C     0.99090   0.59400   0.07950   0.01267  Uiso   1.00
C550   C     0.98840   0.26120   0.35020   0.01267  Uiso   1.00
C551   C     0.75000   0.75000   0.04490   0.01267  Uiso   1.00
C552   C     0.50910   0.90600   0.07950   0.01267  Uiso   1.00
C553   C     0.69810   0.33730   0.21930   0.01267  Uiso   1.00
C554   C     0.66380   0.50380   0.58690   0.01267  Uiso   1.00
C555   C     0.10650   0.16608   0.44536   0.01267  Uiso   1.00
C556   C     0.55860   0.10850   0.94466   0.01267  Uiso   1.00
N1     N     0.60400   0.40920   0.40670   0.01267  Uiso   1.00
N2     N     0.10400   0.09080   0.90670   0.01267  Uiso   1.00
N3     N     0.39600   0.59080   0.59330   0.01267  Uiso   1.00
N4     N     0.10400   0.90920   0.59330   0.01267  Uiso   1.00
N5     N     0.89600   0.09080   0.40670   0.01267  Uiso   1.00
N6     N     0.60400   0.59080   0.09330   0.01267  Uiso   1.00
N7     N     0.89600   0.90920   0.09330   0.01267  Uiso   1.00
N8     N     0.39600   0.40920   0.90670   0.01267  Uiso   1.00
O1     O     0.44670   0.18230   0.99500   0.01267  Uiso   1.00
O2     O     0.94670   0.31770   0.49500   0.01267  Uiso   1.00
O3     O     0.66500   0.33550   0.39540   0.01267  Uiso   1.00
O4     O     0.32500   0.32590   0.02210   0.01267  Uiso   1.00
O5     O     0.75000   0.25000   0.42000   0.01267  Uiso   1.00
O6     O     0.19100   0.75810   0.41602   0.01267  Uiso   1.00
O7     O     0.52500   0.72030   0.13720   0.01267  Uiso   1.00
O8     O     0.03530   0.30060   0.93840   0.01267  Uiso   1.00
O9     O     0.81120   0.25550   0.46896   0.01267  Uiso   1.00
O10    O     0.95770   0.79570   0.92760   0.01267  Uiso   1.00
O11    O     0.17530   0.33700   0.89650   0.01267  Uiso   1.00
O12    O     0.55330   0.69370   0.06050   0.01267  Uiso   1.00
O13    O     0.03530   0.69940   0.56160   0.01267  Uiso   1.00
O14    O     0.44670   0.30630   0.93950   0.01267  Uiso   1.00
O15    O     0.33500   0.66450   0.60460   0.01267  Uiso   1.00
O16    O     0.02500   0.77970   0.63720   0.01267  Uiso   1.00
O17    O     0.55330   0.18230   0.49500   0.01267  Uiso   1.00
O18    O     0.45560   0.20070   0.85720   0.01267  Uiso   1.00
O19    O     0.03190   0.78890   0.50371   0.01267  Uiso   1.00
O20    O     0.80900   0.24190   0.58398   0.01267  Uiso   1.00
O21    O     0.29540   0.17490   0.03320   0.01267  Uiso   1.00
O22    O     0.70460   0.82510   0.96680   0.01267  Uiso   1.00
O23    O     0.68880   0.75550   0.03104   0.01267  Uiso   1.00
O24    O     0.96780   0.72230   0.92720   0.01267  Uiso   1.00
O25    O     0.79540   0.32510   0.53320   0.01267  Uiso   1.00
O26    O     0.31120   0.24450   0.96896   0.01267  Uiso   1.00
O27    O     0.69100   0.74190   0.91602   0.01267  Uiso   1.00
O28    O     0.04230   0.20430   0.07240   0.01267  Uiso   1.00
O29    O     0.54440   0.79930   0.14280   0.01267  Uiso   1.00
O30    O     0.04440   0.29930   0.85720   0.01267  Uiso   1.00
O31    O     0.96810   0.21110   0.49629   0.01267  Uiso   1.00
O32    O     0.29540   0.82510   0.46680   0.01267  Uiso   1.00
O33    O     0.83500   0.16450   0.39540   0.01267  Uiso   1.00
O34    O     0.82470   0.66300   0.10350   0.01267  Uiso   1.00
O35    O     0.31040   0.75040   0.65110   0.01267  Uiso   1.00
O36    O     0.96470   0.69940   0.06160   0.01267  Uiso   1.00
O37    O     0.17500   0.17410   0.02210   0.01267  Uiso   1.00
O38    O     0.02500   0.22030   0.86280   0.01267  Uiso   1.00
O39    O     0.54230   0.70430   0.92760   0.01267  Uiso   1.00
O40    O     0.05330   0.80630   0.56050   0.01267  Uiso   1.00
O41    O     0.82500   0.17410   0.52210   0.01267  Uiso   1.00
O42    O     0.67530   0.83700   0.10350   0.01267  Uiso   1.00
O43    O     0.95560   0.70070   0.14280   0.01267  Uiso   1.00
O44    O     0.04440   0.70070   0.64280   0.01267  Uiso   1.00
O45    O     0.94670   0.68230   0.00500   0.01267  Uiso   1.00
O46    O     0.54440   0.20070   0.35720   0.01267  Uiso   1.00
O47    O     0.69100   0.25810   0.58398   0.01267  Uiso   1.00
O48    O     0.54230   0.29570   0.57240   0.01267  Uiso   1.00
O49    O     0.96780   0.27770   0.57280   0.01267  Uiso   1.00
O50    O     0.53220   0.22230   0.57280   0.01267  Uiso   1.00
O51    O     0.03220   0.27770   0.07280   0.01267  Uiso   1.00
O52    O     0.67500   0.32590   0.52210   0.01267  Uiso   1.00
O53    O     0.75000   0.75000   0.08000   0.01267  Uiso   1.00
O54    O     0.03220   0.72230   0.42720   0.01267  Uiso   1.00
O55    O     0.45770   0.70430   0.42760   0.01267  Uiso   1.00
O56    O     0.44670   0.69370   0.56050   0.01267  Uiso   1.00
O57    O     0.55330   0.30630   0.43950   0.01267  Uiso   1.00
O58    O     0.83500   0.83550   0.10460   0.01267  Uiso   1.00
O59    O     0.95560   0.29930   0.35720   0.01267  Uiso   1.00
O60    O     0.46810   0.71110   0.50371   0.01267  Uiso   1.00
O61    O     0.52500   0.27970   0.36280   0.01267  Uiso   1.00
O62    O     0.20460   0.67490   0.46680   0.01267  Uiso   1.00
O63    O     0.97500   0.22030   0.36280   0.01267  Uiso   1.00
O64    O     0.80900   0.75810   0.91602   0.01267  Uiso   1.00
O65    O     0.18880   0.25550   0.96896   0.01267  Uiso   1.00
O66    O     0.18880   0.74450   0.53104   0.01267  Uiso   1.00
O67    O     0.18960   0.74960   0.65110   0.01267  Uiso   1.00
O68    O     0.03190   0.21110   0.99629   0.01267  Uiso   1.00
O69    O     0.67530   0.16300   0.39650   0.01267  Uiso   1.00
O70    O     0.25000   0.75000   0.58000   0.01267  Uiso   1.00
O71    O     0.46780   0.22230   0.07280   0.01267  Uiso   1.00
O72    O     0.33500   0.33550   0.89540   0.01267  Uiso   1.00
O73    O     0.68960   0.75040   0.15110   0.01267  Uiso   1.00
O74    O     0.30900   0.25810   0.08398   0.01267  Uiso   1.00
O75    O     0.67500   0.67410   0.97790   0.01267  Uiso   1.00
O76    O     0.94670   0.80630   0.06050   0.01267  Uiso   1.00
O77    O     0.31120   0.75550   0.53104   0.01267  Uiso   1.00
O78    O     0.18960   0.25040   0.84890   0.01267  Uiso   1.00
O79    O     0.30900   0.74190   0.41602   0.01267  Uiso   1.00
O80    O     0.32470   0.83700   0.60350   0.01267  Uiso   1.00
O81    O     0.66500   0.66450   0.10460   0.01267  Uiso   1.00
O82    O     0.53190   0.71110   0.00371   0.01267  Uiso   1.00
O83    O     0.70460   0.17490   0.53320   0.01267  Uiso   1.00
O84    O     0.79540   0.67490   0.96680   0.01267  Uiso   1.00
O85    O     0.46470   0.19940   0.93840   0.01267  Uiso   1.00
O86    O     0.32500   0.67410   0.47790   0.01267  Uiso   1.00
O87    O     0.19100   0.24190   0.08398   0.01267  Uiso   1.00
O88    O     0.46810   0.28890   0.99629   0.01267  Uiso   1.00
O89    O     0.05330   0.68230   0.50500   0.01267  Uiso   1.00
O90    O     0.53530   0.80060   0.06160   0.01267  Uiso   1.00
O91    O     0.31040   0.24960   0.84890   0.01267  Uiso   1.00
O92    O     0.53190   0.28890   0.49629   0.01267  Uiso   1.00
O93    O     0.17530   0.66300   0.60350   0.01267  Uiso   1.00
O94    O     0.81120   0.74450   0.03104   0.01267  Uiso   1.00
O95    O     0.17500   0.82590   0.47790   0.01267  Uiso   1.00
O96    O     0.95770   0.20430   0.57240   0.01267  Uiso   1.00
O97    O     0.55330   0.81770   0.00500   0.01267  Uiso   1.00
O98    O     0.68960   0.24960   0.34890   0.01267  Uiso   1.00
O99    O     0.47500   0.27970   0.86280   0.01267  Uiso   1.00
O100   O     0.20460   0.32510   0.03320   0.01267  Uiso   1.00
O101   O     0.81040   0.25040   0.34890   0.01267  Uiso   1.00
O102   O     0.25000   0.25000   0.92000   0.01267  Uiso   1.00
O103   O     0.68880   0.24450   0.46896   0.01267  Uiso   1.00
O104   O     0.46780   0.77770   0.42720   0.01267  Uiso   1.00
O105   O     0.82470   0.33700   0.39650   0.01267  Uiso   1.00
O106   O     0.05330   0.19370   0.93950   0.01267  Uiso   1.00
O107   O     0.32470   0.16300   0.89650   0.01267  Uiso   1.00
O108   O     0.96810   0.78890   0.00371   0.01267  Uiso   1.00
O109   O     0.94670   0.19370   0.43950   0.01267  Uiso   1.00
O110   O     0.16500   0.83550   0.60460   0.01267  Uiso   1.00
O111   O     0.53530   0.19940   0.43840   0.01267  Uiso   1.00
O112   O     0.53220   0.77770   0.92720   0.01267  Uiso   1.00
O113   O     0.47500   0.72030   0.63720   0.01267  Uiso   1.00
O114   O     0.46470   0.80060   0.56160   0.01267  Uiso   1.00
O115   O     0.04230   0.79570   0.42760   0.01267  Uiso   1.00
O116   O     0.16500   0.16450   0.89540   0.01267  Uiso   1.00
O117   O     0.81040   0.74960   0.15110   0.01267  Uiso   1.00
O118   O     0.44670   0.81770   0.50500   0.01267  Uiso   1.00
O119   O     0.96470   0.30060   0.43840   0.01267  Uiso   1.00
O120   O     0.97500   0.77970   0.13720   0.01267  Uiso   1.00
O121   O     0.82500   0.82590   0.97790   0.01267  Uiso   1.00
O122   O     0.45770   0.29570   0.07240   0.01267  Uiso   1.00
O123   O     0.05330   0.31770   0.99500   0.01267  Uiso   1.00
O124   O     0.45560   0.79930   0.64280   0.01267  Uiso   1.00
