data_image0
_cell_length_a       30.988
_cell_length_b       30.988
_cell_length_c       45.964
_cell_angle_alpha    90
_cell_angle_beta     90
_cell_angle_gamma    90

_symmetry_space_group_name_H-M    "P 1"
_symmetry_int_tables_number       1

loop_
  _symmetry_equiv_pos_as_xyz
  'x, y, z'

loop_
  _atom_site_label
  _atom_site_occupancy
  _atom_site_fract_x
  _atom_site_fract_y
  _atom_site_fract_z
  _atom_site_thermal_displace_type
  _atom_site_B_iso_or_equiv
  _atom_site_type_symbol
  Cu1      1.0000 0.10332  0.14538  0.12778  Biso   1.000  Cu
  Cu2      1.0000 0.13894  0.19599  0.16779  Biso   1.000  Cu
  O1       1.0000 0.15906  0.14730  0.10845  Biso   1.000  O
  O2       1.0000 0.18719  0.19421  0.14058  Biso   1.000  O
  O3       1.0000 0.24648  0.08813  0.03016  Biso   1.000  O
  O4       1.0000 0.31779  0.10223  0.02948  Biso   1.000  O
  O5       1.0000 0.40001  0.37460  0.34690  Biso   1.000  O
  O6       1.0000 0.35778  0.34041  0.31462  Biso   1.000  O
  O7       1.0000 0.55279  0.34822  0.34767  Biso   1.000  O
  O8       1.0000 0.58455  0.31181  0.31090  Biso   1.000  O
  O9       1.0000 0.08745  0.19918  0.10877  Biso   1.000  O
  O10      1.0000 0.11060  0.24148  0.14523  Biso   1.000  O
  O11      1.0000 0.99867  0.25901  0.03070  Biso   1.000  O
  O12      1.0000 0.98518  0.33080  0.03066  Biso   1.000  O
  O13      1.0000 0.35669  0.23904  0.19809  Biso   1.000  O
  N1       1.0000 0.45523  0.27095  0.14472  Biso   1.000  N
  H1       1.0000 0.47710  0.27740  0.13330  Biso   1.000  H
  C1       1.0000 0.18907  0.17057  0.11836  Biso   1.000  C
  C2       1.0000 0.23126  0.16876  0.10195  Biso   1.000  C
  C3       1.0000 0.23515  0.14224  0.07797  Biso   1.000  C
  H2       1.0000 0.21070  0.12680  0.07110  Biso   1.000  H
  C4       1.0000 0.27403  0.13799  0.06395  Biso   1.000  C
  C5       1.0000 0.31017  0.16140  0.07393  Biso   1.000  C
  H3       1.0000 0.33720  0.15870  0.06430  Biso   1.000  H
  C6       1.0000 0.30599  0.18838  0.09783  Biso   1.000  C
  C7       1.0000 0.26689  0.19185  0.11150  Biso   1.000  C
  H4       1.0000 0.26410  0.21040  0.12780  Biso   1.000  H
  C8       1.0000 0.27952  0.10653  0.03938  Biso   1.000  C
  C9       1.0000 0.34557  0.21197  0.10950  Biso   1.000  C
  C10      1.0000 0.37835  0.22532  0.09182  Biso   1.000  C
  H5       1.0000 0.37580  0.22130  0.07140  Biso   1.000  H
  C11      1.0000 0.41565  0.24487  0.10299  Biso   1.000  C
  H6       1.0000 0.43790  0.25390  0.09020  Biso   1.000  H
  C12      1.0000 0.42014  0.25105  0.13289  Biso   1.000  C
  C13      1.0000 0.38467  0.23935  0.15127  Biso   1.000  C
  C14      1.0000 0.34872  0.22019  0.13929  Biso   1.000  C
  H7       1.0000 0.32540  0.21240  0.15160  Biso   1.000  H
  C15      1.0000 0.38593  0.24822  0.18195  Biso   1.000  C
  C16      1.0000 0.42584  0.26901  0.19304  Biso   1.000  C
  C17      1.0000 0.45786  0.28108  0.17290  Biso   1.000  C
  C18      1.0000 0.49600  0.29986  0.18545  Biso   1.000  C
  H8       1.0000 0.52000  0.30530  0.17310  Biso   1.000  H
  C19      1.0000 0.49926  0.30999  0.21355  Biso   1.000  C
  H9       1.0000 0.52430  0.32430  0.22050  Biso   1.000  H
  C20      1.0000 0.46515  0.29945  0.23316  Biso   1.000  C
  C21      1.0000 0.42978  0.27885  0.22226  Biso   1.000  C
  H10      1.0000 0.40710  0.27100  0.23510  Biso   1.000  H
  C22      1.0000 0.46804  0.31264  0.26377  Biso   1.000  C
  C23      1.0000 0.50789  0.31451  0.27857  Biso   1.000  C
  H11      1.0000 0.53350  0.30620  0.26870  Biso   1.000  H
  C24      1.0000 0.51060  0.32839  0.30744  Biso   1.000  C
  C25      1.0000 0.47314  0.34091  0.32182  Biso   1.000  C
  H12      1.0000 0.47480  0.35120  0.34120  Biso   1.000  H
  C26      1.0000 0.43360  0.33845  0.30811  Biso   1.000  C
  C27      1.0000 0.43087  0.32414  0.27951  Biso   1.000  C
  H13      1.0000 0.40340  0.32210  0.27040  Biso   1.000  H
  C28      1.0000 0.55261  0.32945  0.32304  Biso   1.000  C
  C29      1.0000 0.39399  0.35175  0.32484  Biso   1.000  C
  C30      1.0000 0.09054  0.23469  0.12207  Biso   1.000  C
  C31      1.0000 0.04866  0.26760  0.08120  Biso   1.000  C
  H14      1.0000 0.05120  0.24090  0.07110  Biso   1.000  H
  C32      1.0000 0.02596  0.30146  0.06899  Biso   1.000  C
  C33      1.0000 0.02206  0.34089  0.08415  Biso   1.000  C
  H15      1.0000 0.00680  0.36430  0.07560  Biso   1.000  H
  C34      1.0000 0.04055  0.34559  0.11170  Biso   1.000  C
  C35      1.0000 0.06445  0.31141  0.12308  Biso   1.000  C
  H16      1.0000 0.07870  0.31470  0.14130  Biso   1.000  H
  C36      1.0000 0.06769  0.27293  0.10825  Biso   1.000  C
  C37      1.0000 0.00170  0.29587  0.04087  Biso   1.000  C
  C38      1.0000 0.03329  0.38621  0.12796  Biso   1.000  C
  C39      1.0000 0.02300  0.42415  0.11311  Biso   1.000  C
  H17      1.0000 0.02320  0.42410  0.09240  Biso   1.000  H
  C40      1.0000 0.01213  0.46304  0.12820  Biso   1.000  C
  C41      1.0000 0.01079  0.46353  0.15828  Biso   1.000  C
  C42      1.0000 0.02047  0.42541  0.17323  Biso   1.000  C
  H18      1.0000 0.01930  0.42500  0.19390  Biso   1.000  H
  C43      1.0000 0.03205  0.38715  0.15783  Biso   1.000  C
  H19      1.0000 0.03910  0.36180  0.16840  Biso   1.000  H
  Cu3      1.0000 0.89668  0.85462  0.12778  Biso   1.000  Cu
  Cu4      1.0000 0.86106  0.80401  0.16779  Biso   1.000  Cu
  O14      1.0000 0.84094  0.85270  0.10845  Biso   1.000  O
  O15      1.0000 0.81281  0.80579  0.14058  Biso   1.000  O
  O16      1.0000 0.75352  0.91187  0.03016  Biso   1.000  O
  O17      1.0000 0.68221  0.89777  0.02948  Biso   1.000  O
  O18      1.0000 0.59999  0.62540  0.34690  Biso   1.000  O
  O19      1.0000 0.64222  0.65959  0.31462  Biso   1.000  O
  O20      1.0000 0.44721  0.65178  0.34767  Biso   1.000  O
  O21      1.0000 0.41545  0.68819  0.31090  Biso   1.000  O
  O22      1.0000 0.91255  0.80082  0.10877  Biso   1.000  O
  O23      1.0000 0.88940  0.75852  0.14523  Biso   1.000  O
  O24      1.0000 0.00133  0.74099  0.03070  Biso   1.000  O
  O25      1.0000 0.01482  0.66920  0.03066  Biso   1.000  O
  O26      1.0000 0.64331  0.76096  0.19809  Biso   1.000  O
  N2       1.0000 0.54477  0.72905  0.14472  Biso   1.000  N
  H20      1.0000 0.52290  0.72260  0.13330  Biso   1.000  H
  C44      1.0000 0.81093  0.82943  0.11836  Biso   1.000  C
  C45      1.0000 0.76874  0.83124  0.10195  Biso   1.000  C
  C46      1.0000 0.76485  0.85776  0.07797  Biso   1.000  C
  H21      1.0000 0.78930  0.87320  0.07110  Biso   1.000  H
  C47      1.0000 0.72597  0.86201  0.06395  Biso   1.000  C
  C48      1.0000 0.68983  0.83860  0.07393  Biso   1.000  C
  H22      1.0000 0.66280  0.84130  0.06430  Biso   1.000  H
  C49      1.0000 0.69401  0.81162  0.09783  Biso   1.000  C
  C50      1.0000 0.73311  0.80815  0.11150  Biso   1.000  C
  H23      1.0000 0.73590  0.78960  0.12780  Biso   1.000  H
  C51      1.0000 0.72048  0.89347  0.03938  Biso   1.000  C
  C52      1.0000 0.65443  0.78803  0.10950  Biso   1.000  C
  C53      1.0000 0.62165  0.77468  0.09182  Biso   1.000  C
  H24      1.0000 0.62420  0.77870  0.07140  Biso   1.000  H
  C54      1.0000 0.58435  0.75513  0.10299  Biso   1.000  C
  H25      1.0000 0.56210  0.74610  0.09020  Biso   1.000  H
  C55      1.0000 0.57986  0.74895  0.13289  Biso   1.000  C
  C56      1.0000 0.61533  0.76065  0.15127  Biso   1.000  C
  C57      1.0000 0.65128  0.77981  0.13929  Biso   1.000  C
  H26      1.0000 0.67460  0.78760  0.15160  Biso   1.000  H
  C58      1.0000 0.61407  0.75178  0.18195  Biso   1.000  C
  C59      1.0000 0.57416  0.73099  0.19304  Biso   1.000  C
  C60      1.0000 0.54214  0.71892  0.17290  Biso   1.000  C
  C61      1.0000 0.50400  0.70014  0.18545  Biso   1.000  C
  H27      1.0000 0.48000  0.69470  0.17310  Biso   1.000  H
  C62      1.0000 0.50074  0.69001  0.21355  Biso   1.000  C
  H28      1.0000 0.47570  0.67570  0.22050  Biso   1.000  H
  C63      1.0000 0.53485  0.70055  0.23316  Biso   1.000  C
  C64      1.0000 0.57022  0.72115  0.22226  Biso   1.000  C
  H29      1.0000 0.59290  0.72900  0.23510  Biso   1.000  H
  C65      1.0000 0.53196  0.68736  0.26377  Biso   1.000  C
  C66      1.0000 0.49211  0.68549  0.27857  Biso   1.000  C
  H30      1.0000 0.46650  0.69380  0.26870  Biso   1.000  H
  C67      1.0000 0.48940  0.67161  0.30744  Biso   1.000  C
  C68      1.0000 0.52686  0.65909  0.32182  Biso   1.000  C
  H31      1.0000 0.52520  0.64880  0.34120  Biso   1.000  H
  C69      1.0000 0.56640  0.66155  0.30811  Biso   1.000  C
  C70      1.0000 0.56913  0.67586  0.27951  Biso   1.000  C
  H32      1.0000 0.59660  0.67790  0.27040  Biso   1.000  H
  C71      1.0000 0.44739  0.67055  0.32304  Biso   1.000  C
  C72      1.0000 0.60601  0.64825  0.32484  Biso   1.000  C
  C73      1.0000 0.90946  0.76531  0.12207  Biso   1.000  C
  C74      1.0000 0.95134  0.73240  0.08120  Biso   1.000  C
  H33      1.0000 0.94880  0.75910  0.07110  Biso   1.000  H
  C75      1.0000 0.97404  0.69854  0.06899  Biso   1.000  C
  C76      1.0000 0.97794  0.65911  0.08415  Biso   1.000  C
  H34      1.0000 0.99320  0.63570  0.07560  Biso   1.000  H
  C77      1.0000 0.95945  0.65441  0.11170  Biso   1.000  C
  C78      1.0000 0.93555  0.68859  0.12308  Biso   1.000  C
  H35      1.0000 0.92130  0.68530  0.14130  Biso   1.000  H
  C79      1.0000 0.93231  0.72707  0.10825  Biso   1.000  C
  C80      1.0000 0.99830  0.70413  0.04087  Biso   1.000  C
  C81      1.0000 0.96671  0.61379  0.12796  Biso   1.000  C
  C82      1.0000 0.97700  0.57585  0.11311  Biso   1.000  C
  H36      1.0000 0.97680  0.57590  0.09240  Biso   1.000  H
  C83      1.0000 0.98787  0.53696  0.12820  Biso   1.000  C
  C84      1.0000 0.98921  0.53647  0.15828  Biso   1.000  C
  C85      1.0000 0.97953  0.57459  0.17323  Biso   1.000  C
  H37      1.0000 0.98070  0.57500  0.19390  Biso   1.000  H
  C86      1.0000 0.96795  0.61285  0.15783  Biso   1.000  C
  H38      1.0000 0.96090  0.63820  0.16840  Biso   1.000  H
  Cu5      1.0000 0.85462  0.10332  0.12778  Biso   1.000  Cu
  Cu6      1.0000 0.80401  0.13894  0.16779  Biso   1.000  Cu
  O27      1.0000 0.85270  0.15906  0.10845  Biso   1.000  O
  O28      1.0000 0.80579  0.18719  0.14058  Biso   1.000  O
  O29      1.0000 0.91187  0.24648  0.03016  Biso   1.000  O
  O30      1.0000 0.89777  0.31779  0.02948  Biso   1.000  O
  O31      1.0000 0.62540  0.40001  0.34690  Biso   1.000  O
  O32      1.0000 0.65959  0.35778  0.31462  Biso   1.000  O
  O33      1.0000 0.65178  0.55279  0.34767  Biso   1.000  O
  O34      1.0000 0.68819  0.58455  0.31090  Biso   1.000  O
  O35      1.0000 0.80082  0.08745  0.10877  Biso   1.000  O
  O36      1.0000 0.75852  0.11060  0.14523  Biso   1.000  O
  O37      1.0000 0.74099  0.99867  0.03070  Biso   1.000  O
  O38      1.0000 0.66920  0.98518  0.03066  Biso   1.000  O
  O39      1.0000 0.76096  0.35669  0.19809  Biso   1.000  O
  N3       1.0000 0.72905  0.45523  0.14472  Biso   1.000  N
  H39      1.0000 0.72260  0.47710  0.13330  Biso   1.000  H
  C87      1.0000 0.82943  0.18907  0.11836  Biso   1.000  C
  C88      1.0000 0.83124  0.23126  0.10195  Biso   1.000  C
  C89      1.0000 0.85776  0.23515  0.07797  Biso   1.000  C
  H40      1.0000 0.87320  0.21070  0.07110  Biso   1.000  H
  C90      1.0000 0.86201  0.27403  0.06395  Biso   1.000  C
  C91      1.0000 0.83860  0.31017  0.07393  Biso   1.000  C
  H41      1.0000 0.84130  0.33720  0.06430  Biso   1.000  H
  C92      1.0000 0.81162  0.30599  0.09783  Biso   1.000  C
  C93      1.0000 0.80815  0.26689  0.11150  Biso   1.000  C
  H42      1.0000 0.78960  0.26410  0.12780  Biso   1.000  H
  C94      1.0000 0.89347  0.27952  0.03938  Biso   1.000  C
  C95      1.0000 0.78803  0.34557  0.10950  Biso   1.000  C
  C96      1.0000 0.77468  0.37835  0.09182  Biso   1.000  C
  H43      1.0000 0.77870  0.37580  0.07140  Biso   1.000  H
  C97      1.0000 0.75513  0.41565  0.10299  Biso   1.000  C
  H44      1.0000 0.74610  0.43790  0.09020  Biso   1.000  H
  C98      1.0000 0.74895  0.42014  0.13289  Biso   1.000  C
  C99      1.0000 0.76065  0.38467  0.15127  Biso   1.000  C
  C100     1.0000 0.77981  0.34872  0.13929  Biso   1.000  C
  H45      1.0000 0.78760  0.32540  0.15160  Biso   1.000  H
  C101     1.0000 0.75178  0.38593  0.18195  Biso   1.000  C
  C102     1.0000 0.73099  0.42584  0.19304  Biso   1.000  C
  C103     1.0000 0.71892  0.45786  0.17290  Biso   1.000  C
  C104     1.0000 0.70014  0.49600  0.18545  Biso   1.000  C
  H46      1.0000 0.69470  0.52000  0.17310  Biso   1.000  H
  C105     1.0000 0.69001  0.49926  0.21355  Biso   1.000  C
  H47      1.0000 0.67570  0.52430  0.22050  Biso   1.000  H
  C106     1.0000 0.70055  0.46515  0.23316  Biso   1.000  C
  C107     1.0000 0.72115  0.42978  0.22226  Biso   1.000  C
  H48      1.0000 0.72900  0.40710  0.23510  Biso   1.000  H
  C108     1.0000 0.68736  0.46804  0.26377  Biso   1.000  C
  C109     1.0000 0.68549  0.50789  0.27857  Biso   1.000  C
  H49      1.0000 0.69380  0.53350  0.26870  Biso   1.000  H
  C110     1.0000 0.67161  0.51060  0.30744  Biso   1.000  C
  C111     1.0000 0.65909  0.47314  0.32182  Biso   1.000  C
  H50      1.0000 0.64880  0.47480  0.34120  Biso   1.000  H
  C112     1.0000 0.66155  0.43360  0.30811  Biso   1.000  C
  C113     1.0000 0.67586  0.43087  0.27951  Biso   1.000  C
  H51      1.0000 0.67790  0.40340  0.27040  Biso   1.000  H
  C114     1.0000 0.67055  0.55261  0.32304  Biso   1.000  C
  C115     1.0000 0.64825  0.39399  0.32484  Biso   1.000  C
  C116     1.0000 0.76531  0.09054  0.12207  Biso   1.000  C
  C117     1.0000 0.73240  0.04866  0.08120  Biso   1.000  C
  H52      1.0000 0.75910  0.05120  0.07110  Biso   1.000  H
  C118     1.0000 0.69854  0.02596  0.06899  Biso   1.000  C
  C119     1.0000 0.65911  0.02206  0.08415  Biso   1.000  C
  H53      1.0000 0.63570  0.00680  0.07560  Biso   1.000  H
  C120     1.0000 0.65441  0.04055  0.11170  Biso   1.000  C
  C121     1.0000 0.68859  0.06445  0.12308  Biso   1.000  C
  H54      1.0000 0.68530  0.07870  0.14130  Biso   1.000  H
  C122     1.0000 0.72707  0.06769  0.10825  Biso   1.000  C
  C123     1.0000 0.70413  0.00170  0.04087  Biso   1.000  C
  C124     1.0000 0.61379  0.03329  0.12796  Biso   1.000  C
  C125     1.0000 0.57585  0.02300  0.11311  Biso   1.000  C
  H55      1.0000 0.57590  0.02320  0.09240  Biso   1.000  H
  C126     1.0000 0.53696  0.01213  0.12820  Biso   1.000  C
  C127     1.0000 0.53647  0.01079  0.15828  Biso   1.000  C
  C128     1.0000 0.57459  0.02047  0.17323  Biso   1.000  C
  H56      1.0000 0.57500  0.01930  0.19390  Biso   1.000  H
  C129     1.0000 0.61285  0.03205  0.15783  Biso   1.000  C
  H57      1.0000 0.63820  0.03910  0.16840  Biso   1.000  H
  Cu7      1.0000 0.14538  0.89668  0.12778  Biso   1.000  Cu
  Cu8      1.0000 0.19599  0.86106  0.16779  Biso   1.000  Cu
  O40      1.0000 0.14730  0.84094  0.10845  Biso   1.000  O
  O41      1.0000 0.19421  0.81281  0.14058  Biso   1.000  O
  O42      1.0000 0.08813  0.75352  0.03016  Biso   1.000  O
  O43      1.0000 0.10223  0.68221  0.02948  Biso   1.000  O
  O44      1.0000 0.37460  0.59999  0.34690  Biso   1.000  O
  O45      1.0000 0.34041  0.64222  0.31462  Biso   1.000  O
  O46      1.0000 0.34822  0.44721  0.34767  Biso   1.000  O
  O47      1.0000 0.31181  0.41545  0.31090  Biso   1.000  O
  O48      1.0000 0.19918  0.91255  0.10877  Biso   1.000  O
  O49      1.0000 0.24148  0.88940  0.14523  Biso   1.000  O
  O50      1.0000 0.25901  0.00133  0.03070  Biso   1.000  O
  O51      1.0000 0.33080  0.01482  0.03066  Biso   1.000  O
  O52      1.0000 0.23904  0.64331  0.19809  Biso   1.000  O
  N4       1.0000 0.27095  0.54477  0.14472  Biso   1.000  N
  H58      1.0000 0.27740  0.52290  0.13330  Biso   1.000  H
  C130     1.0000 0.17057  0.81093  0.11836  Biso   1.000  C
  C131     1.0000 0.16876  0.76874  0.10195  Biso   1.000  C
  C132     1.0000 0.14224  0.76485  0.07797  Biso   1.000  C
  H59      1.0000 0.12680  0.78930  0.07110  Biso   1.000  H
  C133     1.0000 0.13799  0.72597  0.06395  Biso   1.000  C
  C134     1.0000 0.16140  0.68983  0.07393  Biso   1.000  C
  H60      1.0000 0.15870  0.66280  0.06430  Biso   1.000  H
  C135     1.0000 0.18838  0.69401  0.09783  Biso   1.000  C
  C136     1.0000 0.19185  0.73311  0.11150  Biso   1.000  C
  H61      1.0000 0.21040  0.73590  0.12780  Biso   1.000  H
  C137     1.0000 0.10653  0.72048  0.03938  Biso   1.000  C
  C138     1.0000 0.21197  0.65443  0.10950  Biso   1.000  C
  C139     1.0000 0.22532  0.62165  0.09182  Biso   1.000  C
  H62      1.0000 0.22130  0.62420  0.07140  Biso   1.000  H
  C140     1.0000 0.24487  0.58435  0.10299  Biso   1.000  C
  H63      1.0000 0.25390  0.56210  0.09020  Biso   1.000  H
  C141     1.0000 0.25105  0.57986  0.13289  Biso   1.000  C
  C142     1.0000 0.23935  0.61533  0.15127  Biso   1.000  C
  C143     1.0000 0.22019  0.65128  0.13929  Biso   1.000  C
  H64      1.0000 0.21240  0.67460  0.15160  Biso   1.000  H
  C144     1.0000 0.24822  0.61407  0.18195  Biso   1.000  C
  C145     1.0000 0.26901  0.57416  0.19304  Biso   1.000  C
  C146     1.0000 0.28108  0.54214  0.17290  Biso   1.000  C
  C147     1.0000 0.29986  0.50400  0.18545  Biso   1.000  C
  H65      1.0000 0.30530  0.48000  0.17310  Biso   1.000  H
  C148     1.0000 0.30999  0.50074  0.21355  Biso   1.000  C
  H66      1.0000 0.32430  0.47570  0.22050  Biso   1.000  H
  C149     1.0000 0.29945  0.53485  0.23316  Biso   1.000  C
  C150     1.0000 0.27885  0.57022  0.22226  Biso   1.000  C
  H67      1.0000 0.27100  0.59290  0.23510  Biso   1.000  H
  C151     1.0000 0.31264  0.53196  0.26377  Biso   1.000  C
  C152     1.0000 0.31451  0.49211  0.27857  Biso   1.000  C
  H68      1.0000 0.30620  0.46650  0.26870  Biso   1.000  H
  C153     1.0000 0.32839  0.48940  0.30744  Biso   1.000  C
  C154     1.0000 0.34091  0.52686  0.32182  Biso   1.000  C
  H69      1.0000 0.35120  0.52520  0.34120  Biso   1.000  H
  C155     1.0000 0.33845  0.56640  0.30811  Biso   1.000  C
  C156     1.0000 0.32414  0.56913  0.27951  Biso   1.000  C
  H70      1.0000 0.32210  0.59660  0.27040  Biso   1.000  H
  C157     1.0000 0.32945  0.44739  0.32304  Biso   1.000  C
  C158     1.0000 0.35175  0.60601  0.32484  Biso   1.000  C
  C159     1.0000 0.23469  0.90946  0.12207  Biso   1.000  C
  C160     1.0000 0.26760  0.95134  0.08120  Biso   1.000  C
  H71      1.0000 0.24090  0.94880  0.07110  Biso   1.000  H
  C161     1.0000 0.30146  0.97404  0.06899  Biso   1.000  C
  C162     1.0000 0.34089  0.97794  0.08415  Biso   1.000  C
  H72      1.0000 0.36430  0.99320  0.07560  Biso   1.000  H
  C163     1.0000 0.34559  0.95945  0.11170  Biso   1.000  C
  C164     1.0000 0.31141  0.93555  0.12308  Biso   1.000  C
  H73      1.0000 0.31470  0.92130  0.14130  Biso   1.000  H
  C165     1.0000 0.27293  0.93231  0.10825  Biso   1.000  C
  C166     1.0000 0.29587  0.99830  0.04087  Biso   1.000  C
  C167     1.0000 0.38621  0.96671  0.12796  Biso   1.000  C
  C168     1.0000 0.42415  0.97700  0.11311  Biso   1.000  C
  H74      1.0000 0.42410  0.97680  0.09240  Biso   1.000  H
  C169     1.0000 0.46304  0.98787  0.12820  Biso   1.000  C
  C170     1.0000 0.46353  0.98921  0.15828  Biso   1.000  C
  C171     1.0000 0.42541  0.97953  0.17323  Biso   1.000  C
  H75      1.0000 0.42500  0.98070  0.19390  Biso   1.000  H
  C172     1.0000 0.38715  0.96795  0.15783  Biso   1.000  C
  H76      1.0000 0.36180  0.96090  0.16840  Biso   1.000  H
  Cu9      1.0000 0.39668  0.64538  0.37222  Biso   1.000  Cu
  Cu10     1.0000 0.36106  0.69599  0.33221  Biso   1.000  Cu
  O53      1.0000 0.34094  0.64730  0.39155  Biso   1.000  O
  O54      1.0000 0.31281  0.69421  0.35942  Biso   1.000  O
  O55      1.0000 0.25352  0.58813  0.46984  Biso   1.000  O
  O56      1.0000 0.18221  0.60223  0.47052  Biso   1.000  O
  O57      1.0000 0.09999  0.87460  0.15310  Biso   1.000  O
  O58      1.0000 0.14222  0.84041  0.18538  Biso   1.000  O
  O59      1.0000 0.94721  0.84822  0.15233  Biso   1.000  O
  O60      1.0000 0.91545  0.81181  0.18910  Biso   1.000  O
  O61      1.0000 0.41255  0.69918  0.39123  Biso   1.000  O
  O62      1.0000 0.38940  0.74148  0.35477  Biso   1.000  O
  O63      1.0000 0.50133  0.75901  0.46930  Biso   1.000  O
  O64      1.0000 0.51482  0.83080  0.46934  Biso   1.000  O
  O65      1.0000 0.14331  0.73904  0.30191  Biso   1.000  O
  N5       1.0000 0.04477  0.77095  0.35528  Biso   1.000  N
  H77      1.0000 0.02290  0.77740  0.36670  Biso   1.000  H
  C173     1.0000 0.31093  0.67057  0.38164  Biso   1.000  C
  C174     1.0000 0.26874  0.66876  0.39805  Biso   1.000  C
  C175     1.0000 0.26485  0.64224  0.42203  Biso   1.000  C
  H78      1.0000 0.28930  0.62680  0.42890  Biso   1.000  H
  C176     1.0000 0.22597  0.63799  0.43605  Biso   1.000  C
  C177     1.0000 0.18983  0.66140  0.42607  Biso   1.000  C
  H79      1.0000 0.16280  0.65870  0.43570  Biso   1.000  H
  C178     1.0000 0.19401  0.68838  0.40217  Biso   1.000  C
  C179     1.0000 0.23311  0.69185  0.38850  Biso   1.000  C
  H80      1.0000 0.23590  0.71040  0.37220  Biso   1.000  H
  C180     1.0000 0.22048  0.60653  0.46062  Biso   1.000  C
  C181     1.0000 0.15443  0.71197  0.39050  Biso   1.000  C
  C182     1.0000 0.12165  0.72532  0.40818  Biso   1.000  C
  H81      1.0000 0.12420  0.72130  0.42860  Biso   1.000  H
  C183     1.0000 0.08435  0.74487  0.39701  Biso   1.000  C
  H82      1.0000 0.06210  0.75390  0.40980  Biso   1.000  H
  C184     1.0000 0.07986  0.75105  0.36711  Biso   1.000  C
  C185     1.0000 0.11533  0.73935  0.34873  Biso   1.000  C
  C186     1.0000 0.15128  0.72019  0.36071  Biso   1.000  C
  H83      1.0000 0.17460  0.71240  0.34840  Biso   1.000  H
  C187     1.0000 0.11407  0.74822  0.31805  Biso   1.000  C
  C188     1.0000 0.07416  0.76901  0.30696  Biso   1.000  C
  C189     1.0000 0.04214  0.78108  0.32710  Biso   1.000  C
  C190     1.0000 0.00400  0.79986  0.31455  Biso   1.000  C
  H84      1.0000 0.98000  0.80530  0.32690  Biso   1.000  H
  C191     1.0000 0.00074  0.80999  0.28645  Biso   1.000  C
  H85      1.0000 0.97570  0.82430  0.27950  Biso   1.000  H
  C192     1.0000 0.03485  0.79945  0.26684  Biso   1.000  C
  C193     1.0000 0.07022  0.77885  0.27774  Biso   1.000  C
  H86      1.0000 0.09290  0.77100  0.26490  Biso   1.000  H
  C194     1.0000 0.03196  0.81264  0.23623  Biso   1.000  C
  C195     1.0000 0.99211  0.81451  0.22143  Biso   1.000  C
  H87      1.0000 0.96650  0.80620  0.23130  Biso   1.000  H
  C196     1.0000 0.98940  0.82839  0.19256  Biso   1.000  C
  C197     1.0000 0.02686  0.84091  0.17818  Biso   1.000  C
  H88      1.0000 0.02520  0.85120  0.15880  Biso   1.000  H
  C198     1.0000 0.06640  0.83845  0.19189  Biso   1.000  C
  C199     1.0000 0.06913  0.82414  0.22049  Biso   1.000  C
  H89      1.0000 0.09660  0.82210  0.22960  Biso   1.000  H
  C200     1.0000 0.94739  0.82945  0.17696  Biso   1.000  C
  C201     1.0000 0.10601  0.85175  0.17516  Biso   1.000  C
  C202     1.0000 0.40946  0.73469  0.37793  Biso   1.000  C
  C203     1.0000 0.45134  0.76760  0.41880  Biso   1.000  C
  H90      1.0000 0.44880  0.74090  0.42890  Biso   1.000  H
  C204     1.0000 0.47404  0.80146  0.43101  Biso   1.000  C
  C205     1.0000 0.47794  0.84089  0.41585  Biso   1.000  C
  H91      1.0000 0.49320  0.86430  0.42440  Biso   1.000  H
  C206     1.0000 0.45945  0.84559  0.38830  Biso   1.000  C
  C207     1.0000 0.43555  0.81141  0.37692  Biso   1.000  C
  H92      1.0000 0.42130  0.81470  0.35870  Biso   1.000  H
  C208     1.0000 0.43231  0.77293  0.39175  Biso   1.000  C
  C209     1.0000 0.49830  0.79587  0.45913  Biso   1.000  C
  C210     1.0000 0.46671  0.88621  0.37204  Biso   1.000  C
  C211     1.0000 0.47700  0.92415  0.38689  Biso   1.000  C
  H93      1.0000 0.47680  0.92410  0.40760  Biso   1.000  H
  C212     1.0000 0.48787  0.96304  0.37180  Biso   1.000  C
  C213     1.0000 0.48921  0.96353  0.34172  Biso   1.000  C
  C214     1.0000 0.47953  0.92541  0.32677  Biso   1.000  C
  H94      1.0000 0.48070  0.92500  0.30610  Biso   1.000  H
  C215     1.0000 0.46795  0.88715  0.34217  Biso   1.000  C
  H95      1.0000 0.46090  0.86180  0.33160  Biso   1.000  H
  Cu11     1.0000 0.60332  0.35462  0.37222  Biso   1.000  Cu
  Cu12     1.0000 0.63894  0.30401  0.33221  Biso   1.000  Cu
  O66      1.0000 0.65906  0.35270  0.39155  Biso   1.000  O
  O67      1.0000 0.68719  0.30579  0.35942  Biso   1.000  O
  O68      1.0000 0.74648  0.41187  0.46984  Biso   1.000  O
  O69      1.0000 0.81779  0.39777  0.47052  Biso   1.000  O
  O70      1.0000 0.90001  0.12540  0.15310  Biso   1.000  O
  O71      1.0000 0.85778  0.15959  0.18538  Biso   1.000  O
  O72      1.0000 0.05279  0.15178  0.15233  Biso   1.000  O
  O73      1.0000 0.08455  0.18819  0.18910  Biso   1.000  O
  O74      1.0000 0.58745  0.30082  0.39123  Biso   1.000  O
  O75      1.0000 0.61060  0.25852  0.35477  Biso   1.000  O
  O76      1.0000 0.49867  0.24099  0.46930  Biso   1.000  O
  O77      1.0000 0.48518  0.16920  0.46934  Biso   1.000  O
  O78      1.0000 0.85669  0.26096  0.30191  Biso   1.000  O
  N6       1.0000 0.95523  0.22905  0.35528  Biso   1.000  N
  H96      1.0000 0.97710  0.22260  0.36670  Biso   1.000  H
  C216     1.0000 0.68907  0.32943  0.38164  Biso   1.000  C
  C217     1.0000 0.73126  0.33124  0.39805  Biso   1.000  C
  C218     1.0000 0.73515  0.35776  0.42203  Biso   1.000  C
  H97      1.0000 0.71070  0.37320  0.42890  Biso   1.000  H
  C219     1.0000 0.77403  0.36201  0.43605  Biso   1.000  C
  C220     1.0000 0.81017  0.33860  0.42607  Biso   1.000  C
  H98      1.0000 0.83720  0.34130  0.43570  Biso   1.000  H
  C221     1.0000 0.80599  0.31162  0.40217  Biso   1.000  C
  C222     1.0000 0.76689  0.30815  0.38850  Biso   1.000  C
  H99      1.0000 0.76410  0.28960  0.37220  Biso   1.000  H
  C223     1.0000 0.77952  0.39347  0.46062  Biso   1.000  C
  C224     1.0000 0.84557  0.28803  0.39050  Biso   1.000  C
  C225     1.0000 0.87835  0.27468  0.40818  Biso   1.000  C
  H100     1.0000 0.87580  0.27870  0.42860  Biso   1.000  H
  C226     1.0000 0.91565  0.25513  0.39701  Biso   1.000  C
  H101     1.0000 0.93790  0.24610  0.40980  Biso   1.000  H
  C227     1.0000 0.92014  0.24895  0.36711  Biso   1.000  C
  C228     1.0000 0.88467  0.26065  0.34873  Biso   1.000  C
  C229     1.0000 0.84872  0.27981  0.36071  Biso   1.000  C
  H102     1.0000 0.82540  0.28760  0.34840  Biso   1.000  H
  C230     1.0000 0.88593  0.25178  0.31805  Biso   1.000  C
  C231     1.0000 0.92584  0.23099  0.30696  Biso   1.000  C
  C232     1.0000 0.95786  0.21892  0.32710  Biso   1.000  C
  C233     1.0000 0.99600  0.20014  0.31455  Biso   1.000  C
  H103     1.0000 0.02000  0.19470  0.32690  Biso   1.000  H
  C234     1.0000 0.99926  0.19001  0.28645  Biso   1.000  C
  H104     1.0000 0.02430  0.17570  0.27950  Biso   1.000  H
  C235     1.0000 0.96515  0.20055  0.26684  Biso   1.000  C
  C236     1.0000 0.92978  0.22115  0.27774  Biso   1.000  C
  H105     1.0000 0.90710  0.22900  0.26490  Biso   1.000  H
  C237     1.0000 0.96804  0.18736  0.23623  Biso   1.000  C
  C238     1.0000 0.00789  0.18549  0.22143  Biso   1.000  C
  H106     1.0000 0.03350  0.19380  0.23130  Biso   1.000  H
  C239     1.0000 0.01060  0.17161  0.19256  Biso   1.000  C
  C240     1.0000 0.97314  0.15909  0.17818  Biso   1.000  C
  H107     1.0000 0.97480  0.14880  0.15880  Biso   1.000  H
  C241     1.0000 0.93360  0.16155  0.19189  Biso   1.000  C
  C242     1.0000 0.93087  0.17586  0.22049  Biso   1.000  C
  H108     1.0000 0.90340  0.17790  0.22960  Biso   1.000  H
  C243     1.0000 0.05261  0.17055  0.17696  Biso   1.000  C
  C244     1.0000 0.89399  0.14825  0.17516  Biso   1.000  C
  C245     1.0000 0.59054  0.26531  0.37793  Biso   1.000  C
  C246     1.0000 0.54866  0.23240  0.41880  Biso   1.000  C
  H109     1.0000 0.55120  0.25910  0.42890  Biso   1.000  H
  C247     1.0000 0.52596  0.19854  0.43101  Biso   1.000  C
  C248     1.0000 0.52206  0.15911  0.41585  Biso   1.000  C
  H110     1.0000 0.50680  0.13570  0.42440  Biso   1.000  H
  C249     1.0000 0.54055  0.15441  0.38830  Biso   1.000  C
  C250     1.0000 0.56445  0.18859  0.37692  Biso   1.000  C
  H111     1.0000 0.57870  0.18530  0.35870  Biso   1.000  H
  C251     1.0000 0.56769  0.22707  0.39175  Biso   1.000  C
  C252     1.0000 0.50170  0.20413  0.45913  Biso   1.000  C
  C253     1.0000 0.53329  0.11379  0.37204  Biso   1.000  C
  C254     1.0000 0.52300  0.07585  0.38689  Biso   1.000  C
  H112     1.0000 0.52320  0.07590  0.40760  Biso   1.000  H
  C255     1.0000 0.51213  0.03696  0.37180  Biso   1.000  C
  C256     1.0000 0.51079  0.03647  0.34172  Biso   1.000  C
  C257     1.0000 0.52047  0.07459  0.32677  Biso   1.000  C
  H113     1.0000 0.51930  0.07500  0.30610  Biso   1.000  H
  C258     1.0000 0.53205  0.11285  0.34217  Biso   1.000  C
  H114     1.0000 0.53910  0.13820  0.33160  Biso   1.000  H
  Cu13     1.0000 0.64538  0.60332  0.37222  Biso   1.000  Cu
  Cu14     1.0000 0.69599  0.63894  0.33221  Biso   1.000  Cu
  O79      1.0000 0.64730  0.65906  0.39155  Biso   1.000  O
  O80      1.0000 0.69421  0.68719  0.35942  Biso   1.000  O
  O81      1.0000 0.58813  0.74648  0.46984  Biso   1.000  O
  O82      1.0000 0.60223  0.81779  0.47052  Biso   1.000  O
  O83      1.0000 0.87460  0.90001  0.15310  Biso   1.000  O
  O84      1.0000 0.84041  0.85778  0.18538  Biso   1.000  O
  O85      1.0000 0.84822  0.05279  0.15233  Biso   1.000  O
  O86      1.0000 0.81181  0.08455  0.18910  Biso   1.000  O
  O87      1.0000 0.69918  0.58745  0.39123  Biso   1.000  O
  O88      1.0000 0.74148  0.61060  0.35477  Biso   1.000  O
  O89      1.0000 0.75901  0.49867  0.46930  Biso   1.000  O
  O90      1.0000 0.83080  0.48518  0.46934  Biso   1.000  O
  O91      1.0000 0.73904  0.85669  0.30191  Biso   1.000  O
  N7       1.0000 0.77095  0.95523  0.35528  Biso   1.000  N
  H115     1.0000 0.77740  0.97710  0.36670  Biso   1.000  H
  C259     1.0000 0.67057  0.68907  0.38164  Biso   1.000  C
  C260     1.0000 0.66876  0.73126  0.39805  Biso   1.000  C
  C261     1.0000 0.64224  0.73515  0.42203  Biso   1.000  C
  H116     1.0000 0.62680  0.71070  0.42890  Biso   1.000  H
  C262     1.0000 0.63799  0.77403  0.43605  Biso   1.000  C
  C263     1.0000 0.66140  0.81017  0.42607  Biso   1.000  C
  H117     1.0000 0.65870  0.83720  0.43570  Biso   1.000  H
  C264     1.0000 0.68838  0.80599  0.40217  Biso   1.000  C
  C265     1.0000 0.69185  0.76689  0.38850  Biso   1.000  C
  H118     1.0000 0.71040  0.76410  0.37220  Biso   1.000  H
  C266     1.0000 0.60653  0.77952  0.46062  Biso   1.000  C
  C267     1.0000 0.71197  0.84557  0.39050  Biso   1.000  C
  C268     1.0000 0.72532  0.87835  0.40818  Biso   1.000  C
  H119     1.0000 0.72130  0.87580  0.42860  Biso   1.000  H
  C269     1.0000 0.74487  0.91565  0.39701  Biso   1.000  C
  H120     1.0000 0.75390  0.93790  0.40980  Biso   1.000  H
  C270     1.0000 0.75105  0.92014  0.36711  Biso   1.000  C
  C271     1.0000 0.73935  0.88467  0.34873  Biso   1.000  C
  C272     1.0000 0.72019  0.84872  0.36071  Biso   1.000  C
  H121     1.0000 0.71240  0.82540  0.34840  Biso   1.000  H
  C273     1.0000 0.74822  0.88593  0.31805  Biso   1.000  C
  C274     1.0000 0.76901  0.92584  0.30696  Biso   1.000  C
  C275     1.0000 0.78108  0.95786  0.32710  Biso   1.000  C
  C276     1.0000 0.79986  0.99600  0.31455  Biso   1.000  C
  H122     1.0000 0.80530  0.02000  0.32690  Biso   1.000  H
  C277     1.0000 0.80999  0.99926  0.28645  Biso   1.000  C
  H123     1.0000 0.82430  0.02430  0.27950  Biso   1.000  H
  C278     1.0000 0.79945  0.96515  0.26684  Biso   1.000  C
  C279     1.0000 0.77885  0.92978  0.27774  Biso   1.000  C
  H124     1.0000 0.77100  0.90710  0.26490  Biso   1.000  H
  C280     1.0000 0.81264  0.96804  0.23623  Biso   1.000  C
  C281     1.0000 0.81451  0.00789  0.22143  Biso   1.000  C
  H125     1.0000 0.80620  0.03350  0.23130  Biso   1.000  H
  C282     1.0000 0.82839  0.01060  0.19256  Biso   1.000  C
  C283     1.0000 0.84091  0.97314  0.17818  Biso   1.000  C
  H126     1.0000 0.85120  0.97480  0.15880  Biso   1.000  H
  C284     1.0000 0.83845  0.93360  0.19189  Biso   1.000  C
  C285     1.0000 0.82414  0.93087  0.22049  Biso   1.000  C
  H127     1.0000 0.82210  0.90340  0.22960  Biso   1.000  H
  C286     1.0000 0.82945  0.05261  0.17696  Biso   1.000  C
  C287     1.0000 0.85175  0.89399  0.17516  Biso   1.000  C
  C288     1.0000 0.73469  0.59054  0.37793  Biso   1.000  C
  C289     1.0000 0.76760  0.54866  0.41880  Biso   1.000  C
  H128     1.0000 0.74090  0.55120  0.42890  Biso   1.000  H
  C290     1.0000 0.80146  0.52596  0.43101  Biso   1.000  C
  C291     1.0000 0.84089  0.52206  0.41585  Biso   1.000  C
  H129     1.0000 0.86430  0.50680  0.42440  Biso   1.000  H
  C292     1.0000 0.84559  0.54055  0.38830  Biso   1.000  C
  C293     1.0000 0.81141  0.56445  0.37692  Biso   1.000  C
  H130     1.0000 0.81470  0.57870  0.35870  Biso   1.000  H
  C294     1.0000 0.77293  0.56769  0.39175  Biso   1.000  C
  C295     1.0000 0.79587  0.50170  0.45913  Biso   1.000  C
  C296     1.0000 0.88621  0.53329  0.37204  Biso   1.000  C
  C297     1.0000 0.92415  0.52300  0.38689  Biso   1.000  C
  H131     1.0000 0.92410  0.52320  0.40760  Biso   1.000  H
  C298     1.0000 0.96304  0.51213  0.37180  Biso   1.000  C
  C299     1.0000 0.96353  0.51079  0.34172  Biso   1.000  C
  C300     1.0000 0.92541  0.52047  0.32677  Biso   1.000  C
  H132     1.0000 0.92500  0.51930  0.30610  Biso   1.000  H
  C301     1.0000 0.88715  0.53205  0.34217  Biso   1.000  C
  H133     1.0000 0.86180  0.53910  0.33160  Biso   1.000  H
  Cu15     1.0000 0.35462  0.39668  0.37222  Biso   1.000  Cu
  Cu16     1.0000 0.30401  0.36106  0.33221  Biso   1.000  Cu
  O92      1.0000 0.35270  0.34094  0.39155  Biso   1.000  O
  O93      1.0000 0.30579  0.31281  0.35942  Biso   1.000  O
  O94      1.0000 0.41187  0.25352  0.46984  Biso   1.000  O
  O95      1.0000 0.39777  0.18221  0.47052  Biso   1.000  O
  O96      1.0000 0.12540  0.09999  0.15310  Biso   1.000  O
  O97      1.0000 0.15959  0.14222  0.18538  Biso   1.000  O
  O98      1.0000 0.15178  0.94721  0.15233  Biso   1.000  O
  O99      1.0000 0.18819  0.91545  0.18910  Biso   1.000  O
  O100     1.0000 0.30082  0.41255  0.39123  Biso   1.000  O
  O101     1.0000 0.25852  0.38940  0.35477  Biso   1.000  O
  O102     1.0000 0.24099  0.50133  0.46930  Biso   1.000  O
  O103     1.0000 0.16920  0.51482  0.46934  Biso   1.000  O
  O104     1.0000 0.26096  0.14331  0.30191  Biso   1.000  O
  N8       1.0000 0.22905  0.04477  0.35528  Biso   1.000  N
  H134     1.0000 0.22260  0.02290  0.36670  Biso   1.000  H
  C302     1.0000 0.32943  0.31093  0.38164  Biso   1.000  C
  C303     1.0000 0.33124  0.26874  0.39805  Biso   1.000  C
  C304     1.0000 0.35776  0.26485  0.42203  Biso   1.000  C
  H135     1.0000 0.37320  0.28930  0.42890  Biso   1.000  H
  C305     1.0000 0.36201  0.22597  0.43605  Biso   1.000  C
  C306     1.0000 0.33860  0.18983  0.42607  Biso   1.000  C
  H136     1.0000 0.34130  0.16280  0.43570  Biso   1.000  H
  C307     1.0000 0.31162  0.19401  0.40217  Biso   1.000  C
  C308     1.0000 0.30815  0.23311  0.38850  Biso   1.000  C
  H137     1.0000 0.28960  0.23590  0.37220  Biso   1.000  H
  C309     1.0000 0.39347  0.22048  0.46062  Biso   1.000  C
  C310     1.0000 0.28803  0.15443  0.39050  Biso   1.000  C
  C311     1.0000 0.27468  0.12165  0.40818  Biso   1.000  C
  H138     1.0000 0.27870  0.12420  0.42860  Biso   1.000  H
  C312     1.0000 0.25513  0.08435  0.39701  Biso   1.000  C
  H139     1.0000 0.24610  0.06210  0.40980  Biso   1.000  H
  C313     1.0000 0.24895  0.07986  0.36711  Biso   1.000  C
  C314     1.0000 0.26065  0.11533  0.34873  Biso   1.000  C
  C315     1.0000 0.27981  0.15128  0.36071  Biso   1.000  C
  H140     1.0000 0.28760  0.17460  0.34840  Biso   1.000  H
  C316     1.0000 0.25178  0.11407  0.31805  Biso   1.000  C
  C317     1.0000 0.23099  0.07416  0.30696  Biso   1.000  C
  C318     1.0000 0.21892  0.04214  0.32710  Biso   1.000  C
  C319     1.0000 0.20014  0.00400  0.31455  Biso   1.000  C
  H141     1.0000 0.19470  0.98000  0.32690  Biso   1.000  H
  C320     1.0000 0.19001  0.00074  0.28645  Biso   1.000  C
  H142     1.0000 0.17570  0.97570  0.27950  Biso   1.000  H
  C321     1.0000 0.20055  0.03485  0.26684  Biso   1.000  C
  C322     1.0000 0.22115  0.07022  0.27774  Biso   1.000  C
  H143     1.0000 0.22900  0.09290  0.26490  Biso   1.000  H
  C323     1.0000 0.18736  0.03196  0.23623  Biso   1.000  C
  C324     1.0000 0.18549  0.99211  0.22143  Biso   1.000  C
  H144     1.0000 0.19380  0.96650  0.23130  Biso   1.000  H
  C325     1.0000 0.17161  0.98940  0.19256  Biso   1.000  C
  C326     1.0000 0.15909  0.02686  0.17818  Biso   1.000  C
  H145     1.0000 0.14880  0.02520  0.15880  Biso   1.000  H
  C327     1.0000 0.16155  0.06640  0.19189  Biso   1.000  C
  C328     1.0000 0.17586  0.06913  0.22049  Biso   1.000  C
  H146     1.0000 0.17790  0.09660  0.22960  Biso   1.000  H
  C329     1.0000 0.17055  0.94739  0.17696  Biso   1.000  C
  C330     1.0000 0.14825  0.10601  0.17516  Biso   1.000  C
  C331     1.0000 0.26531  0.40946  0.37793  Biso   1.000  C
  C332     1.0000 0.23240  0.45134  0.41880  Biso   1.000  C
  H147     1.0000 0.25910  0.44880  0.42890  Biso   1.000  H
  C333     1.0000 0.19854  0.47404  0.43101  Biso   1.000  C
  C334     1.0000 0.15911  0.47794  0.41585  Biso   1.000  C
  H148     1.0000 0.13570  0.49320  0.42440  Biso   1.000  H
  C335     1.0000 0.15441  0.45945  0.38830  Biso   1.000  C
  C336     1.0000 0.18859  0.43555  0.37692  Biso   1.000  C
  H149     1.0000 0.18530  0.42130  0.35870  Biso   1.000  H
  C337     1.0000 0.22707  0.43231  0.39175  Biso   1.000  C
  C338     1.0000 0.20413  0.49830  0.45913  Biso   1.000  C
  C339     1.0000 0.11379  0.46671  0.37204  Biso   1.000  C
  C340     1.0000 0.07585  0.47700  0.38689  Biso   1.000  C
  H150     1.0000 0.07590  0.47680  0.40760  Biso   1.000  H
  C341     1.0000 0.03696  0.48787  0.37180  Biso   1.000  C
  C342     1.0000 0.03647  0.48921  0.34172  Biso   1.000  C
  C343     1.0000 0.07459  0.47953  0.32677  Biso   1.000  C
  H151     1.0000 0.07500  0.48070  0.30610  Biso   1.000  H
  C344     1.0000 0.11285  0.46795  0.34217  Biso   1.000  C
  H152     1.0000 0.13820  0.46090  0.33160  Biso   1.000  H
  Cu17     1.0000 0.89668  0.85462  0.87222  Biso   1.000  Cu
  Cu18     1.0000 0.86106  0.80401  0.83221  Biso   1.000  Cu
  O105     1.0000 0.84094  0.85270  0.89155  Biso   1.000  O
  O106     1.0000 0.81281  0.80579  0.85942  Biso   1.000  O
  O107     1.0000 0.75352  0.91187  0.96984  Biso   1.000  O
  O108     1.0000 0.68221  0.89777  0.97052  Biso   1.000  O
  O109     1.0000 0.59999  0.62540  0.65310  Biso   1.000  O
  O110     1.0000 0.64222  0.65959  0.68538  Biso   1.000  O
  O111     1.0000 0.44721  0.65178  0.65233  Biso   1.000  O
  O112     1.0000 0.41545  0.68819  0.68910  Biso   1.000  O
  O113     1.0000 0.91255  0.80082  0.89123  Biso   1.000  O
  O114     1.0000 0.88940  0.75852  0.85477  Biso   1.000  O
  O115     1.0000 0.00133  0.74099  0.96930  Biso   1.000  O
  O116     1.0000 0.01482  0.66920  0.96934  Biso   1.000  O
  O117     1.0000 0.64331  0.76096  0.80191  Biso   1.000  O
  N9       1.0000 0.54477  0.72905  0.85528  Biso   1.000  N
  H153     1.0000 0.52290  0.72260  0.86670  Biso   1.000  H
  C345     1.0000 0.81093  0.82943  0.88164  Biso   1.000  C
  C346     1.0000 0.76874  0.83124  0.89805  Biso   1.000  C
  C347     1.0000 0.76485  0.85776  0.92203  Biso   1.000  C
  H154     1.0000 0.78930  0.87320  0.92890  Biso   1.000  H
  C348     1.0000 0.72597  0.86201  0.93605  Biso   1.000  C
  C349     1.0000 0.68983  0.83860  0.92607  Biso   1.000  C
  H155     1.0000 0.66280  0.84130  0.93570  Biso   1.000  H
  C350     1.0000 0.69401  0.81162  0.90217  Biso   1.000  C
  C351     1.0000 0.73311  0.80815  0.88850  Biso   1.000  C
  H156     1.0000 0.73590  0.78960  0.87220  Biso   1.000  H
  C352     1.0000 0.72048  0.89347  0.96062  Biso   1.000  C
  C353     1.0000 0.65443  0.78803  0.89050  Biso   1.000  C
  C354     1.0000 0.62165  0.77468  0.90818  Biso   1.000  C
  H157     1.0000 0.62420  0.77870  0.92860  Biso   1.000  H
  C355     1.0000 0.58435  0.75513  0.89701  Biso   1.000  C
  H158     1.0000 0.56210  0.74610  0.90980  Biso   1.000  H
  C356     1.0000 0.57986  0.74895  0.86711  Biso   1.000  C
  C357     1.0000 0.61533  0.76065  0.84873  Biso   1.000  C
  C358     1.0000 0.65128  0.77981  0.86071  Biso   1.000  C
  H159     1.0000 0.67460  0.78760  0.84840  Biso   1.000  H
  C359     1.0000 0.61407  0.75178  0.81805  Biso   1.000  C
  C360     1.0000 0.57416  0.73099  0.80696  Biso   1.000  C
  C361     1.0000 0.54214  0.71892  0.82710  Biso   1.000  C
  C362     1.0000 0.50400  0.70014  0.81455  Biso   1.000  C
  H160     1.0000 0.48000  0.69470  0.82690  Biso   1.000  H
  C363     1.0000 0.50074  0.69001  0.78645  Biso   1.000  C
  H161     1.0000 0.47570  0.67570  0.77950  Biso   1.000  H
  C364     1.0000 0.53485  0.70055  0.76684  Biso   1.000  C
  C365     1.0000 0.57022  0.72115  0.77774  Biso   1.000  C
  H162     1.0000 0.59290  0.72900  0.76490  Biso   1.000  H
  C366     1.0000 0.53196  0.68736  0.73623  Biso   1.000  C
  C367     1.0000 0.49211  0.68549  0.72143  Biso   1.000  C
  H163     1.0000 0.46650  0.69380  0.73130  Biso   1.000  H
  C368     1.0000 0.48940  0.67161  0.69256  Biso   1.000  C
  C369     1.0000 0.52686  0.65909  0.67818  Biso   1.000  C
  H164     1.0000 0.52520  0.64880  0.65880  Biso   1.000  H
  C370     1.0000 0.56640  0.66155  0.69189  Biso   1.000  C
  C371     1.0000 0.56913  0.67586  0.72049  Biso   1.000  C
  H165     1.0000 0.59660  0.67790  0.72960  Biso   1.000  H
  C372     1.0000 0.44739  0.67055  0.67696  Biso   1.000  C
  C373     1.0000 0.60601  0.64825  0.67516  Biso   1.000  C
  C374     1.0000 0.90946  0.76531  0.87793  Biso   1.000  C
  C375     1.0000 0.95134  0.73240  0.91880  Biso   1.000  C
  H166     1.0000 0.94880  0.75910  0.92890  Biso   1.000  H
  C376     1.0000 0.97404  0.69854  0.93101  Biso   1.000  C
  C377     1.0000 0.97794  0.65911  0.91585  Biso   1.000  C
  H167     1.0000 0.99320  0.63570  0.92440  Biso   1.000  H
  C378     1.0000 0.95945  0.65441  0.88830  Biso   1.000  C
  C379     1.0000 0.93555  0.68859  0.87692  Biso   1.000  C
  H168     1.0000 0.92130  0.68530  0.85870  Biso   1.000  H
  C380     1.0000 0.93231  0.72707  0.89175  Biso   1.000  C
  C381     1.0000 0.99830  0.70413  0.95913  Biso   1.000  C
  C382     1.0000 0.96671  0.61379  0.87204  Biso   1.000  C
  C383     1.0000 0.97700  0.57585  0.88689  Biso   1.000  C
  H169     1.0000 0.97680  0.57590  0.90760  Biso   1.000  H
  C384     1.0000 0.98787  0.53696  0.87180  Biso   1.000  C
  C385     1.0000 0.98921  0.53647  0.84172  Biso   1.000  C
  C386     1.0000 0.97953  0.57459  0.82677  Biso   1.000  C
  H170     1.0000 0.98070  0.57500  0.80610  Biso   1.000  H
  C387     1.0000 0.96795  0.61285  0.84217  Biso   1.000  C
  H171     1.0000 0.96090  0.63820  0.83160  Biso   1.000  H
  Cu19     1.0000 0.10332  0.14538  0.87222  Biso   1.000  Cu
  Cu20     1.0000 0.13894  0.19599  0.83221  Biso   1.000  Cu
  O118     1.0000 0.15906  0.14730  0.89155  Biso   1.000  O
  O119     1.0000 0.18719  0.19421  0.85942  Biso   1.000  O
  O120     1.0000 0.24648  0.08813  0.96984  Biso   1.000  O
  O121     1.0000 0.31779  0.10223  0.97052  Biso   1.000  O
  O122     1.0000 0.40001  0.37460  0.65310  Biso   1.000  O
  O123     1.0000 0.35778  0.34041  0.68538  Biso   1.000  O
  O124     1.0000 0.55279  0.34822  0.65233  Biso   1.000  O
  O125     1.0000 0.58455  0.31181  0.68910  Biso   1.000  O
  O126     1.0000 0.08745  0.19918  0.89123  Biso   1.000  O
  O127     1.0000 0.11060  0.24148  0.85477  Biso   1.000  O
  O128     1.0000 0.99867  0.25901  0.96930  Biso   1.000  O
  O129     1.0000 0.98518  0.33080  0.96934  Biso   1.000  O
  O130     1.0000 0.35669  0.23904  0.80191  Biso   1.000  O
  N10      1.0000 0.45523  0.27095  0.85528  Biso   1.000  N
  H172     1.0000 0.47710  0.27740  0.86670  Biso   1.000  H
  C388     1.0000 0.18907  0.17057  0.88164  Biso   1.000  C
  C389     1.0000 0.23126  0.16876  0.89805  Biso   1.000  C
  C390     1.0000 0.23515  0.14224  0.92203  Biso   1.000  C
  H173     1.0000 0.21070  0.12680  0.92890  Biso   1.000  H
  C391     1.0000 0.27403  0.13799  0.93605  Biso   1.000  C
  C392     1.0000 0.31017  0.16140  0.92607  Biso   1.000  C
  H174     1.0000 0.33720  0.15870  0.93570  Biso   1.000  H
  C393     1.0000 0.30599  0.18838  0.90217  Biso   1.000  C
  C394     1.0000 0.26689  0.19185  0.88850  Biso   1.000  C
  H175     1.0000 0.26410  0.21040  0.87220  Biso   1.000  H
  C395     1.0000 0.27952  0.10653  0.96062  Biso   1.000  C
  C396     1.0000 0.34557  0.21197  0.89050  Biso   1.000  C
  C397     1.0000 0.37835  0.22532  0.90818  Biso   1.000  C
  H176     1.0000 0.37580  0.22130  0.92860  Biso   1.000  H
  C398     1.0000 0.41565  0.24487  0.89701  Biso   1.000  C
  H177     1.0000 0.43790  0.25390  0.90980  Biso   1.000  H
  C399     1.0000 0.42014  0.25105  0.86711  Biso   1.000  C
  C400     1.0000 0.38467  0.23935  0.84873  Biso   1.000  C
  C401     1.0000 0.34872  0.22019  0.86071  Biso   1.000  C
  H178     1.0000 0.32540  0.21240  0.84840  Biso   1.000  H
  C402     1.0000 0.38593  0.24822  0.81805  Biso   1.000  C
  C403     1.0000 0.42584  0.26901  0.80696  Biso   1.000  C
  C404     1.0000 0.45786  0.28108  0.82710  Biso   1.000  C
  C405     1.0000 0.49600  0.29986  0.81455  Biso   1.000  C
  H179     1.0000 0.52000  0.30530  0.82690  Biso   1.000  H
  C406     1.0000 0.49926  0.30999  0.78645  Biso   1.000  C
  H180     1.0000 0.52430  0.32430  0.77950  Biso   1.000  H
  C407     1.0000 0.46515  0.29945  0.76684  Biso   1.000  C
  C408     1.0000 0.42978  0.27885  0.77774  Biso   1.000  C
  H181     1.0000 0.40710  0.27100  0.76490  Biso   1.000  H
  C409     1.0000 0.46804  0.31264  0.73623  Biso   1.000  C
  C410     1.0000 0.50789  0.31451  0.72143  Biso   1.000  C
  H182     1.0000 0.53350  0.30620  0.73130  Biso   1.000  H
  C411     1.0000 0.51060  0.32839  0.69256  Biso   1.000  C
  C412     1.0000 0.47314  0.34091  0.67818  Biso   1.000  C
  H183     1.0000 0.47480  0.35120  0.65880  Biso   1.000  H
  C413     1.0000 0.43360  0.33845  0.69189  Biso   1.000  C
  C414     1.0000 0.43087  0.32414  0.72049  Biso   1.000  C
  H184     1.0000 0.40340  0.32210  0.72960  Biso   1.000  H
  C415     1.0000 0.55261  0.32945  0.67696  Biso   1.000  C
  C416     1.0000 0.39399  0.35175  0.67516  Biso   1.000  C
  C417     1.0000 0.09054  0.23469  0.87793  Biso   1.000  C
  C418     1.0000 0.04866  0.26760  0.91880  Biso   1.000  C
  H185     1.0000 0.05120  0.24090  0.92890  Biso   1.000  H
  C419     1.0000 0.02596  0.30146  0.93101  Biso   1.000  C
  C420     1.0000 0.02206  0.34089  0.91585  Biso   1.000  C
  H186     1.0000 0.00680  0.36430  0.92440  Biso   1.000  H
  C421     1.0000 0.04055  0.34559  0.88830  Biso   1.000  C
  C422     1.0000 0.06445  0.31141  0.87692  Biso   1.000  C
  H187     1.0000 0.07870  0.31470  0.85870  Biso   1.000  H
  C423     1.0000 0.06769  0.27293  0.89175  Biso   1.000  C
  C424     1.0000 0.00170  0.29587  0.95913  Biso   1.000  C
  C425     1.0000 0.03329  0.38621  0.87204  Biso   1.000  C
  C426     1.0000 0.02300  0.42415  0.88689  Biso   1.000  C
  H188     1.0000 0.02320  0.42410  0.90760  Biso   1.000  H
  C427     1.0000 0.01213  0.46304  0.87180  Biso   1.000  C
  C428     1.0000 0.01079  0.46353  0.84172  Biso   1.000  C
  C429     1.0000 0.02047  0.42541  0.82677  Biso   1.000  C
  H189     1.0000 0.01930  0.42500  0.80610  Biso   1.000  H
  C430     1.0000 0.03205  0.38715  0.84217  Biso   1.000  C
  H190     1.0000 0.03910  0.36180  0.83160  Biso   1.000  H
  Cu21     1.0000 0.14538  0.89668  0.87222  Biso   1.000  Cu
  Cu22     1.0000 0.19599  0.86106  0.83221  Biso   1.000  Cu
  O131     1.0000 0.14730  0.84094  0.89155  Biso   1.000  O
  O132     1.0000 0.19421  0.81281  0.85942  Biso   1.000  O
  O133     1.0000 0.08813  0.75352  0.96984  Biso   1.000  O
  O134     1.0000 0.10223  0.68221  0.97052  Biso   1.000  O
  O135     1.0000 0.37460  0.59999  0.65310  Biso   1.000  O
  O136     1.0000 0.34041  0.64222  0.68538  Biso   1.000  O
  O137     1.0000 0.34822  0.44721  0.65233  Biso   1.000  O
  O138     1.0000 0.31181  0.41545  0.68910  Biso   1.000  O
  O139     1.0000 0.19918  0.91255  0.89123  Biso   1.000  O
  O140     1.0000 0.24148  0.88940  0.85477  Biso   1.000  O
  O141     1.0000 0.25901  0.00133  0.96930  Biso   1.000  O
  O142     1.0000 0.33080  0.01482  0.96934  Biso   1.000  O
  O143     1.0000 0.23904  0.64331  0.80191  Biso   1.000  O
  N11      1.0000 0.27095  0.54477  0.85528  Biso   1.000  N
  H191     1.0000 0.27740  0.52290  0.86670  Biso   1.000  H
  C431     1.0000 0.17057  0.81093  0.88164  Biso   1.000  C
  C432     1.0000 0.16876  0.76874  0.89805  Biso   1.000  C
  C433     1.0000 0.14224  0.76485  0.92203  Biso   1.000  C
  H192     1.0000 0.12680  0.78930  0.92890  Biso   1.000  H
  C434     1.0000 0.13799  0.72597  0.93605  Biso   1.000  C
  C435     1.0000 0.16140  0.68983  0.92607  Biso   1.000  C
  H193     1.0000 0.15870  0.66280  0.93570  Biso   1.000  H
  C436     1.0000 0.18838  0.69401  0.90217  Biso   1.000  C
  C437     1.0000 0.19185  0.73311  0.88850  Biso   1.000  C
  H194     1.0000 0.21040  0.73590  0.87220  Biso   1.000  H
  C438     1.0000 0.10653  0.72048  0.96062  Biso   1.000  C
  C439     1.0000 0.21197  0.65443  0.89050  Biso   1.000  C
  C440     1.0000 0.22532  0.62165  0.90818  Biso   1.000  C
  H195     1.0000 0.22130  0.62420  0.92860  Biso   1.000  H
  C441     1.0000 0.24487  0.58435  0.89701  Biso   1.000  C
  H196     1.0000 0.25390  0.56210  0.90980  Biso   1.000  H
  C442     1.0000 0.25105  0.57986  0.86711  Biso   1.000  C
  C443     1.0000 0.23935  0.61533  0.84873  Biso   1.000  C
  C444     1.0000 0.22019  0.65128  0.86071  Biso   1.000  C
  H197     1.0000 0.21240  0.67460  0.84840  Biso   1.000  H
  C445     1.0000 0.24822  0.61407  0.81805  Biso   1.000  C
  C446     1.0000 0.26901  0.57416  0.80696  Biso   1.000  C
  C447     1.0000 0.28108  0.54214  0.82710  Biso   1.000  C
  C448     1.0000 0.29986  0.50400  0.81455  Biso   1.000  C
  H198     1.0000 0.30530  0.48000  0.82690  Biso   1.000  H
  C449     1.0000 0.30999  0.50074  0.78645  Biso   1.000  C
  H199     1.0000 0.32430  0.47570  0.77950  Biso   1.000  H
  C450     1.0000 0.29945  0.53485  0.76684  Biso   1.000  C
  C451     1.0000 0.27885  0.57022  0.77774  Biso   1.000  C
  H200     1.0000 0.27100  0.59290  0.76490  Biso   1.000  H
  C452     1.0000 0.31264  0.53196  0.73623  Biso   1.000  C
  C453     1.0000 0.31451  0.49211  0.72143  Biso   1.000  C
  H201     1.0000 0.30620  0.46650  0.73130  Biso   1.000  H
  C454     1.0000 0.32839  0.48940  0.69256  Biso   1.000  C
  C455     1.0000 0.34091  0.52686  0.67818  Biso   1.000  C
  H202     1.0000 0.35120  0.52520  0.65880  Biso   1.000  H
  C456     1.0000 0.33845  0.56640  0.69189  Biso   1.000  C
  C457     1.0000 0.32414  0.56913  0.72049  Biso   1.000  C
  H203     1.0000 0.32210  0.59660  0.72960  Biso   1.000  H
  C458     1.0000 0.32945  0.44739  0.67696  Biso   1.000  C
  C459     1.0000 0.35175  0.60601  0.67516  Biso   1.000  C
  C460     1.0000 0.23469  0.90946  0.87793  Biso   1.000  C
  C461     1.0000 0.26760  0.95134  0.91880  Biso   1.000  C
  H204     1.0000 0.24090  0.94880  0.92890  Biso   1.000  H
  C462     1.0000 0.30146  0.97404  0.93101  Biso   1.000  C
  C463     1.0000 0.34089  0.97794  0.91585  Biso   1.000  C
  H205     1.0000 0.36430  0.99320  0.92440  Biso   1.000  H
  C464     1.0000 0.34559  0.95945  0.88830  Biso   1.000  C
  C465     1.0000 0.31141  0.93555  0.87692  Biso   1.000  C
  H206     1.0000 0.31470  0.92130  0.85870  Biso   1.000  H
  C466     1.0000 0.27293  0.93231  0.89175  Biso   1.000  C
  C467     1.0000 0.29587  0.99830  0.95913  Biso   1.000  C
  C468     1.0000 0.38621  0.96671  0.87204  Biso   1.000  C
  C469     1.0000 0.42415  0.97700  0.88689  Biso   1.000  C
  H207     1.0000 0.42410  0.97680  0.90760  Biso   1.000  H
  C470     1.0000 0.46304  0.98787  0.87180  Biso   1.000  C
  C471     1.0000 0.46353  0.98921  0.84172  Biso   1.000  C
  C472     1.0000 0.42541  0.97953  0.82677  Biso   1.000  C
  H208     1.0000 0.42500  0.98070  0.80610  Biso   1.000  H
  C473     1.0000 0.38715  0.96795  0.84217  Biso   1.000  C
  H209     1.0000 0.36180  0.96090  0.83160  Biso   1.000  H
  Cu23     1.0000 0.85462  0.10332  0.87222  Biso   1.000  Cu
  Cu24     1.0000 0.80401  0.13894  0.83221  Biso   1.000  Cu
  O144     1.0000 0.85270  0.15906  0.89155  Biso   1.000  O
  O145     1.0000 0.80579  0.18719  0.85942  Biso   1.000  O
  O146     1.0000 0.91187  0.24648  0.96984  Biso   1.000  O
  O147     1.0000 0.89777  0.31779  0.97052  Biso   1.000  O
  O148     1.0000 0.62540  0.40001  0.65310  Biso   1.000  O
  O149     1.0000 0.65959  0.35778  0.68538  Biso   1.000  O
  O150     1.0000 0.65178  0.55279  0.65233  Biso   1.000  O
  O151     1.0000 0.68819  0.58455  0.68910  Biso   1.000  O
  O152     1.0000 0.80082  0.08745  0.89123  Biso   1.000  O
  O153     1.0000 0.75852  0.11060  0.85477  Biso   1.000  O
  O154     1.0000 0.74099  0.99867  0.96930  Biso   1.000  O
  O155     1.0000 0.66920  0.98518  0.96934  Biso   1.000  O
  O156     1.0000 0.76096  0.35669  0.80191  Biso   1.000  O
  N12      1.0000 0.72905  0.45523  0.85528  Biso   1.000  N
  H210     1.0000 0.72260  0.47710  0.86670  Biso   1.000  H
  C474     1.0000 0.82943  0.18907  0.88164  Biso   1.000  C
  C475     1.0000 0.83124  0.23126  0.89805  Biso   1.000  C
  C476     1.0000 0.85776  0.23515  0.92203  Biso   1.000  C
  H211     1.0000 0.87320  0.21070  0.92890  Biso   1.000  H
  C477     1.0000 0.86201  0.27403  0.93605  Biso   1.000  C
  C478     1.0000 0.83860  0.31017  0.92607  Biso   1.000  C
  H212     1.0000 0.84130  0.33720  0.93570  Biso   1.000  H
  C479     1.0000 0.81162  0.30599  0.90217  Biso   1.000  C
  C480     1.0000 0.80815  0.26689  0.88850  Biso   1.000  C
  H213     1.0000 0.78960  0.26410  0.87220  Biso   1.000  H
  C481     1.0000 0.89347  0.27952  0.96062  Biso   1.000  C
  C482     1.0000 0.78803  0.34557  0.89050  Biso   1.000  C
  C483     1.0000 0.77468  0.37835  0.90818  Biso   1.000  C
  H214     1.0000 0.77870  0.37580  0.92860  Biso   1.000  H
  C484     1.0000 0.75513  0.41565  0.89701  Biso   1.000  C
  H215     1.0000 0.74610  0.43790  0.90980  Biso   1.000  H
  C485     1.0000 0.74895  0.42014  0.86711  Biso   1.000  C
  C486     1.0000 0.76065  0.38467  0.84873  Biso   1.000  C
  C487     1.0000 0.77981  0.34872  0.86071  Biso   1.000  C
  H216     1.0000 0.78760  0.32540  0.84840  Biso   1.000  H
  C488     1.0000 0.75178  0.38593  0.81805  Biso   1.000  C
  C489     1.0000 0.73099  0.42584  0.80696  Biso   1.000  C
  C490     1.0000 0.71892  0.45786  0.82710  Biso   1.000  C
  C491     1.0000 0.70014  0.49600  0.81455  Biso   1.000  C
  H217     1.0000 0.69470  0.52000  0.82690  Biso   1.000  H
  C492     1.0000 0.69001  0.49926  0.78645  Biso   1.000  C
  H218     1.0000 0.67570  0.52430  0.77950  Biso   1.000  H
  C493     1.0000 0.70055  0.46515  0.76684  Biso   1.000  C
  C494     1.0000 0.72115  0.42978  0.77774  Biso   1.000  C
  H219     1.0000 0.72900  0.40710  0.76490  Biso   1.000  H
  C495     1.0000 0.68736  0.46804  0.73623  Biso   1.000  C
  C496     1.0000 0.68549  0.50789  0.72143  Biso   1.000  C
  H220     1.0000 0.69380  0.53350  0.73130  Biso   1.000  H
  C497     1.0000 0.67161  0.51060  0.69256  Biso   1.000  C
  C498     1.0000 0.65909  0.47314  0.67818  Biso   1.000  C
  H221     1.0000 0.64880  0.47480  0.65880  Biso   1.000  H
  C499     1.0000 0.66155  0.43360  0.69189  Biso   1.000  C
  C500     1.0000 0.67586  0.43087  0.72049  Biso   1.000  C
  H222     1.0000 0.67790  0.40340  0.72960  Biso   1.000  H
  C501     1.0000 0.67055  0.55261  0.67696  Biso   1.000  C
  C502     1.0000 0.64825  0.39399  0.67516  Biso   1.000  C
  C503     1.0000 0.76531  0.09054  0.87793  Biso   1.000  C
  C504     1.0000 0.73240  0.04866  0.91880  Biso   1.000  C
  H223     1.0000 0.75910  0.05120  0.92890  Biso   1.000  H
  C505     1.0000 0.69854  0.02596  0.93101  Biso   1.000  C
  C506     1.0000 0.65911  0.02206  0.91585  Biso   1.000  C
  H224     1.0000 0.63570  0.00680  0.92440  Biso   1.000  H
  C507     1.0000 0.65441  0.04055  0.88830  Biso   1.000  C
  C508     1.0000 0.68859  0.06445  0.87692  Biso   1.000  C
  H225     1.0000 0.68530  0.07870  0.85870  Biso   1.000  H
  C509     1.0000 0.72707  0.06769  0.89175  Biso   1.000  C
  C510     1.0000 0.70413  0.00170  0.95913  Biso   1.000  C
  C511     1.0000 0.61379  0.03329  0.87204  Biso   1.000  C
  C512     1.0000 0.57585  0.02300  0.88689  Biso   1.000  C
  H226     1.0000 0.57590  0.02320  0.90760  Biso   1.000  H
  C513     1.0000 0.53696  0.01213  0.87180  Biso   1.000  C
  C514     1.0000 0.53647  0.01079  0.84172  Biso   1.000  C
  C515     1.0000 0.57459  0.02047  0.82677  Biso   1.000  C
  H227     1.0000 0.57500  0.01930  0.80610  Biso   1.000  H
  C516     1.0000 0.61285  0.03205  0.84217  Biso   1.000  C
  H228     1.0000 0.63820  0.03910  0.83160  Biso   1.000  H
  Cu25     1.0000 0.60332  0.35462  0.62778  Biso   1.000  Cu
  Cu26     1.0000 0.63894  0.30401  0.66779  Biso   1.000  Cu
  O157     1.0000 0.65906  0.35270  0.60845  Biso   1.000  O
  O158     1.0000 0.68719  0.30579  0.64058  Biso   1.000  O
  O159     1.0000 0.74648  0.41187  0.53016  Biso   1.000  O
  O160     1.0000 0.81779  0.39777  0.52948  Biso   1.000  O
  O161     1.0000 0.90001  0.12540  0.84690  Biso   1.000  O
  O162     1.0000 0.85778  0.15959  0.81462  Biso   1.000  O
  O163     1.0000 0.05279  0.15178  0.84767  Biso   1.000  O
  O164     1.0000 0.08455  0.18819  0.81090  Biso   1.000  O
  O165     1.0000 0.58745  0.30082  0.60877  Biso   1.000  O
  O166     1.0000 0.61060  0.25852  0.64523  Biso   1.000  O
  O167     1.0000 0.49867  0.24099  0.53070  Biso   1.000  O
  O168     1.0000 0.48518  0.16920  0.53066  Biso   1.000  O
  O169     1.0000 0.85669  0.26096  0.69809  Biso   1.000  O
  N13      1.0000 0.95523  0.22905  0.64472  Biso   1.000  N
  H229     1.0000 0.97710  0.22260  0.63330  Biso   1.000  H
  C517     1.0000 0.68907  0.32943  0.61836  Biso   1.000  C
  C518     1.0000 0.73126  0.33124  0.60195  Biso   1.000  C
  C519     1.0000 0.73515  0.35776  0.57797  Biso   1.000  C
  H230     1.0000 0.71070  0.37320  0.57110  Biso   1.000  H
  C520     1.0000 0.77403  0.36201  0.56395  Biso   1.000  C
  C521     1.0000 0.81017  0.33860  0.57393  Biso   1.000  C
  H231     1.0000 0.83720  0.34130  0.56430  Biso   1.000  H
  C522     1.0000 0.80599  0.31162  0.59783  Biso   1.000  C
  C523     1.0000 0.76689  0.30815  0.61150  Biso   1.000  C
  H232     1.0000 0.76410  0.28960  0.62780  Biso   1.000  H
  C524     1.0000 0.77952  0.39347  0.53938  Biso   1.000  C
  C525     1.0000 0.84557  0.28803  0.60950  Biso   1.000  C
  C526     1.0000 0.87835  0.27468  0.59182  Biso   1.000  C
  H233     1.0000 0.87580  0.27870  0.57140  Biso   1.000  H
  C527     1.0000 0.91565  0.25513  0.60299  Biso   1.000  C
  H234     1.0000 0.93790  0.24610  0.59020  Biso   1.000  H
  C528     1.0000 0.92014  0.24895  0.63289  Biso   1.000  C
  C529     1.0000 0.88467  0.26065  0.65127  Biso   1.000  C
  C530     1.0000 0.84872  0.27981  0.63929  Biso   1.000  C
  H235     1.0000 0.82540  0.28760  0.65160  Biso   1.000  H
  C531     1.0000 0.88593  0.25178  0.68195  Biso   1.000  C
  C532     1.0000 0.92584  0.23099  0.69304  Biso   1.000  C
  C533     1.0000 0.95786  0.21892  0.67290  Biso   1.000  C
  C534     1.0000 0.99600  0.20014  0.68545  Biso   1.000  C
  H236     1.0000 0.02000  0.19470  0.67310  Biso   1.000  H
  C535     1.0000 0.99926  0.19001  0.71355  Biso   1.000  C
  H237     1.0000 0.02430  0.17570  0.72050  Biso   1.000  H
  C536     1.0000 0.96515  0.20055  0.73316  Biso   1.000  C
  C537     1.0000 0.92978  0.22115  0.72226  Biso   1.000  C
  H238     1.0000 0.90710  0.22900  0.73510  Biso   1.000  H
  C538     1.0000 0.96804  0.18736  0.76377  Biso   1.000  C
  C539     1.0000 0.00789  0.18549  0.77857  Biso   1.000  C
  H239     1.0000 0.03350  0.19380  0.76870  Biso   1.000  H
  C540     1.0000 0.01060  0.17161  0.80744  Biso   1.000  C
  C541     1.0000 0.97314  0.15909  0.82182  Biso   1.000  C
  H240     1.0000 0.97480  0.14880  0.84120  Biso   1.000  H
  C542     1.0000 0.93360  0.16155  0.80811  Biso   1.000  C
  C543     1.0000 0.93087  0.17586  0.77951  Biso   1.000  C
  H241     1.0000 0.90340  0.17790  0.77040  Biso   1.000  H
  C544     1.0000 0.05261  0.17055  0.82304  Biso   1.000  C
  C545     1.0000 0.89399  0.14825  0.82484  Biso   1.000  C
  C546     1.0000 0.59054  0.26531  0.62207  Biso   1.000  C
  C547     1.0000 0.54866  0.23240  0.58120  Biso   1.000  C
  H242     1.0000 0.55120  0.25910  0.57110  Biso   1.000  H
  C548     1.0000 0.52596  0.19854  0.56899  Biso   1.000  C
  C549     1.0000 0.52206  0.15911  0.58415  Biso   1.000  C
  H243     1.0000 0.50680  0.13570  0.57560  Biso   1.000  H
  C550     1.0000 0.54055  0.15441  0.61170  Biso   1.000  C
  C551     1.0000 0.56445  0.18859  0.62308  Biso   1.000  C
  H244     1.0000 0.57870  0.18530  0.64130  Biso   1.000  H
  C552     1.0000 0.56769  0.22707  0.60825  Biso   1.000  C
  C553     1.0000 0.50170  0.20413  0.54087  Biso   1.000  C
  C554     1.0000 0.53329  0.11379  0.62796  Biso   1.000  C
  C555     1.0000 0.52300  0.07585  0.61311  Biso   1.000  C
  H245     1.0000 0.52320  0.07590  0.59240  Biso   1.000  H
  C556     1.0000 0.51213  0.03696  0.62820  Biso   1.000  C
  C557     1.0000 0.51079  0.03647  0.65828  Biso   1.000  C
  C558     1.0000 0.52047  0.07459  0.67323  Biso   1.000  C
  H246     1.0000 0.51930  0.07500  0.69390  Biso   1.000  H
  C559     1.0000 0.53205  0.11285  0.65783  Biso   1.000  C
  H247     1.0000 0.53910  0.13820  0.66840  Biso   1.000  H
  Cu27     1.0000 0.39668  0.64538  0.62778  Biso   1.000  Cu
  Cu28     1.0000 0.36106  0.69599  0.66779  Biso   1.000  Cu
  O170     1.0000 0.34094  0.64730  0.60845  Biso   1.000  O
  O171     1.0000 0.31281  0.69421  0.64058  Biso   1.000  O
  O172     1.0000 0.25352  0.58813  0.53016  Biso   1.000  O
  O173     1.0000 0.18221  0.60223  0.52948  Biso   1.000  O
  O174     1.0000 0.09999  0.87460  0.84690  Biso   1.000  O
  O175     1.0000 0.14222  0.84041  0.81462  Biso   1.000  O
  O176     1.0000 0.94721  0.84822  0.84767  Biso   1.000  O
  O177     1.0000 0.91545  0.81181  0.81090  Biso   1.000  O
  O178     1.0000 0.41255  0.69918  0.60877  Biso   1.000  O
  O179     1.0000 0.38940  0.74148  0.64523  Biso   1.000  O
  O180     1.0000 0.50133  0.75901  0.53070  Biso   1.000  O
  O181     1.0000 0.51482  0.83080  0.53066  Biso   1.000  O
  O182     1.0000 0.14331  0.73904  0.69809  Biso   1.000  O
  N14      1.0000 0.04477  0.77095  0.64472  Biso   1.000  N
  H248     1.0000 0.02290  0.77740  0.63330  Biso   1.000  H
  C560     1.0000 0.31093  0.67057  0.61836  Biso   1.000  C
  C561     1.0000 0.26874  0.66876  0.60195  Biso   1.000  C
  C562     1.0000 0.26485  0.64224  0.57797  Biso   1.000  C
  H249     1.0000 0.28930  0.62680  0.57110  Biso   1.000  H
  C563     1.0000 0.22597  0.63799  0.56395  Biso   1.000  C
  C564     1.0000 0.18983  0.66140  0.57393  Biso   1.000  C
  H250     1.0000 0.16280  0.65870  0.56430  Biso   1.000  H
  C565     1.0000 0.19401  0.68838  0.59783  Biso   1.000  C
  C566     1.0000 0.23311  0.69185  0.61150  Biso   1.000  C
  H251     1.0000 0.23590  0.71040  0.62780  Biso   1.000  H
  C567     1.0000 0.22048  0.60653  0.53938  Biso   1.000  C
  C568     1.0000 0.15443  0.71197  0.60950  Biso   1.000  C
  C569     1.0000 0.12165  0.72532  0.59182  Biso   1.000  C
  H252     1.0000 0.12420  0.72130  0.57140  Biso   1.000  H
  C570     1.0000 0.08435  0.74487  0.60299  Biso   1.000  C
  H253     1.0000 0.06210  0.75390  0.59020  Biso   1.000  H
  C571     1.0000 0.07986  0.75105  0.63289  Biso   1.000  C
  C572     1.0000 0.11533  0.73935  0.65127  Biso   1.000  C
  C573     1.0000 0.15128  0.72019  0.63929  Biso   1.000  C
  H254     1.0000 0.17460  0.71240  0.65160  Biso   1.000  H
  C574     1.0000 0.11407  0.74822  0.68195  Biso   1.000  C
  C575     1.0000 0.07416  0.76901  0.69304  Biso   1.000  C
  C576     1.0000 0.04214  0.78108  0.67290  Biso   1.000  C
  C577     1.0000 0.00400  0.79986  0.68545  Biso   1.000  C
  H255     1.0000 0.98000  0.80530  0.67310  Biso   1.000  H
  C578     1.0000 0.00074  0.80999  0.71355  Biso   1.000  C
  H256     1.0000 0.97570  0.82430  0.72050  Biso   1.000  H
  C579     1.0000 0.03485  0.79945  0.73316  Biso   1.000  C
  C580     1.0000 0.07022  0.77885  0.72226  Biso   1.000  C
  H257     1.0000 0.09290  0.77100  0.73510  Biso   1.000  H
  C581     1.0000 0.03196  0.81264  0.76377  Biso   1.000  C
  C582     1.0000 0.99211  0.81451  0.77857  Biso   1.000  C
  H258     1.0000 0.96650  0.80620  0.76870  Biso   1.000  H
  C583     1.0000 0.98940  0.82839  0.80744  Biso   1.000  C
  C584     1.0000 0.02686  0.84091  0.82182  Biso   1.000  C
  H259     1.0000 0.02520  0.85120  0.84120  Biso   1.000  H
  C585     1.0000 0.06640  0.83845  0.80811  Biso   1.000  C
  C586     1.0000 0.06913  0.82414  0.77951  Biso   1.000  C
  H260     1.0000 0.09660  0.82210  0.77040  Biso   1.000  H
  C587     1.0000 0.94739  0.82945  0.82304  Biso   1.000  C
  C588     1.0000 0.10601  0.85175  0.82484  Biso   1.000  C
  C589     1.0000 0.40946  0.73469  0.62207  Biso   1.000  C
  C590     1.0000 0.45134  0.76760  0.58120  Biso   1.000  C
  H261     1.0000 0.44880  0.74090  0.57110  Biso   1.000  H
  C591     1.0000 0.47404  0.80146  0.56899  Biso   1.000  C
  C592     1.0000 0.47794  0.84089  0.58415  Biso   1.000  C
  H262     1.0000 0.49320  0.86430  0.57560  Biso   1.000  H
  C593     1.0000 0.45945  0.84559  0.61170  Biso   1.000  C
  C594     1.0000 0.43555  0.81141  0.62308  Biso   1.000  C
  H263     1.0000 0.42130  0.81470  0.64130  Biso   1.000  H
  C595     1.0000 0.43231  0.77293  0.60825  Biso   1.000  C
  C596     1.0000 0.49830  0.79587  0.54087  Biso   1.000  C
  C597     1.0000 0.46671  0.88621  0.62796  Biso   1.000  C
  C598     1.0000 0.47700  0.92415  0.61311  Biso   1.000  C
  H264     1.0000 0.47680  0.92410  0.59240  Biso   1.000  H
  C599     1.0000 0.48787  0.96304  0.62820  Biso   1.000  C
  C600     1.0000 0.48921  0.96353  0.65828  Biso   1.000  C
  C601     1.0000 0.47953  0.92541  0.67323  Biso   1.000  C
  H265     1.0000 0.48070  0.92500  0.69390  Biso   1.000  H
  C602     1.0000 0.46795  0.88715  0.65783  Biso   1.000  C
  H266     1.0000 0.46090  0.86180  0.66840  Biso   1.000  H
  Cu29     1.0000 0.35462  0.39668  0.62778  Biso   1.000  Cu
  Cu30     1.0000 0.30401  0.36106  0.66779  Biso   1.000  Cu
  O183     1.0000 0.35270  0.34094  0.60845  Biso   1.000  O
  O184     1.0000 0.30579  0.31281  0.64058  Biso   1.000  O
  O185     1.0000 0.41187  0.25352  0.53016  Biso   1.000  O
  O186     1.0000 0.39777  0.18221  0.52948  Biso   1.000  O
  O187     1.0000 0.12540  0.09999  0.84690  Biso   1.000  O
  O188     1.0000 0.15959  0.14222  0.81462  Biso   1.000  O
  O189     1.0000 0.15178  0.94721  0.84767  Biso   1.000  O
  O190     1.0000 0.18819  0.91545  0.81090  Biso   1.000  O
  O191     1.0000 0.30082  0.41255  0.60877  Biso   1.000  O
  O192     1.0000 0.25852  0.38940  0.64523  Biso   1.000  O
  O193     1.0000 0.24099  0.50133  0.53070  Biso   1.000  O
  O194     1.0000 0.16920  0.51482  0.53066  Biso   1.000  O
  O195     1.0000 0.26096  0.14331  0.69809  Biso   1.000  O
  N15      1.0000 0.22905  0.04477  0.64472  Biso   1.000  N
  H267     1.0000 0.22260  0.02290  0.63330  Biso   1.000  H
  C603     1.0000 0.32943  0.31093  0.61836  Biso   1.000  C
  C604     1.0000 0.33124  0.26874  0.60195  Biso   1.000  C
  C605     1.0000 0.35776  0.26485  0.57797  Biso   1.000  C
  H268     1.0000 0.37320  0.28930  0.57110  Biso   1.000  H
  C606     1.0000 0.36201  0.22597  0.56395  Biso   1.000  C
  C607     1.0000 0.33860  0.18983  0.57393  Biso   1.000  C
  H269     1.0000 0.34130  0.16280  0.56430  Biso   1.000  H
  C608     1.0000 0.31162  0.19401  0.59783  Biso   1.000  C
  C609     1.0000 0.30815  0.23311  0.61150  Biso   1.000  C
  H270     1.0000 0.28960  0.23590  0.62780  Biso   1.000  H
  C610     1.0000 0.39347  0.22048  0.53938  Biso   1.000  C
  C611     1.0000 0.28803  0.15443  0.60950  Biso   1.000  C
  C612     1.0000 0.27468  0.12165  0.59182  Biso   1.000  C
  H271     1.0000 0.27870  0.12420  0.57140  Biso   1.000  H
  C613     1.0000 0.25513  0.08435  0.60299  Biso   1.000  C
  H272     1.0000 0.24610  0.06210  0.59020  Biso   1.000  H
  C614     1.0000 0.24895  0.07986  0.63289  Biso   1.000  C
  C615     1.0000 0.26065  0.11533  0.65127  Biso   1.000  C
  C616     1.0000 0.27981  0.15128  0.63929  Biso   1.000  C
  H273     1.0000 0.28760  0.17460  0.65160  Biso   1.000  H
  C617     1.0000 0.25178  0.11407  0.68195  Biso   1.000  C
  C618     1.0000 0.23099  0.07416  0.69304  Biso   1.000  C
  C619     1.0000 0.21892  0.04214  0.67290  Biso   1.000  C
  C620     1.0000 0.20014  0.00400  0.68545  Biso   1.000  C
  H274     1.0000 0.19470  0.98000  0.67310  Biso   1.000  H
  C621     1.0000 0.19001  0.00074  0.71355  Biso   1.000  C
  H275     1.0000 0.17570  0.97570  0.72050  Biso   1.000  H
  C622     1.0000 0.20055  0.03485  0.73316  Biso   1.000  C
  C623     1.0000 0.22115  0.07022  0.72226  Biso   1.000  C
  H276     1.0000 0.22900  0.09290  0.73510  Biso   1.000  H
  C624     1.0000 0.18736  0.03196  0.76377  Biso   1.000  C
  C625     1.0000 0.18549  0.99211  0.77857  Biso   1.000  C
  H277     1.0000 0.19380  0.96650  0.76870  Biso   1.000  H
  C626     1.0000 0.17161  0.98940  0.80744  Biso   1.000  C
  C627     1.0000 0.15909  0.02686  0.82182  Biso   1.000  C
  H278     1.0000 0.14880  0.02520  0.84120  Biso   1.000  H
  C628     1.0000 0.16155  0.06640  0.80811  Biso   1.000  C
  C629     1.0000 0.17586  0.06913  0.77951  Biso   1.000  C
  H279     1.0000 0.17790  0.09660  0.77040  Biso   1.000  H
  C630     1.0000 0.17055  0.94739  0.82304  Biso   1.000  C
  C631     1.0000 0.14825  0.10601  0.82484  Biso   1.000  C
  C632     1.0000 0.26531  0.40946  0.62207  Biso   1.000  C
  C633     1.0000 0.23240  0.45134  0.58120  Biso   1.000  C
  H280     1.0000 0.25910  0.44880  0.57110  Biso   1.000  H
  C634     1.0000 0.19854  0.47404  0.56899  Biso   1.000  C
  C635     1.0000 0.15911  0.47794  0.58415  Biso   1.000  C
  H281     1.0000 0.13570  0.49320  0.57560  Biso   1.000  H
  C636     1.0000 0.15441  0.45945  0.61170  Biso   1.000  C
  C637     1.0000 0.18859  0.43555  0.62308  Biso   1.000  C
  H282     1.0000 0.18530  0.42130  0.64130  Biso   1.000  H
  C638     1.0000 0.22707  0.43231  0.60825  Biso   1.000  C
  C639     1.0000 0.20413  0.49830  0.54087  Biso   1.000  C
  C640     1.0000 0.11379  0.46671  0.62796  Biso   1.000  C
  C641     1.0000 0.07585  0.47700  0.61311  Biso   1.000  C
  H283     1.0000 0.07590  0.47680  0.59240  Biso   1.000  H
  C642     1.0000 0.03696  0.48787  0.62820  Biso   1.000  C
  C643     1.0000 0.03647  0.48921  0.65828  Biso   1.000  C
  C644     1.0000 0.07459  0.47953  0.67323  Biso   1.000  C
  H284     1.0000 0.07500  0.48070  0.69390  Biso   1.000  H
  C645     1.0000 0.11285  0.46795  0.65783  Biso   1.000  C
  H285     1.0000 0.13820  0.46090  0.66840  Biso   1.000  H
  Cu31     1.0000 0.64538  0.60332  0.62778  Biso   1.000  Cu
  Cu32     1.0000 0.69599  0.63894  0.66779  Biso   1.000  Cu
  O196     1.0000 0.64730  0.65906  0.60845  Biso   1.000  O
  O197     1.0000 0.69421  0.68719  0.64058  Biso   1.000  O
  O198     1.0000 0.58813  0.74648  0.53016  Biso   1.000  O
  O199     1.0000 0.60223  0.81779  0.52948  Biso   1.000  O
  O200     1.0000 0.87460  0.90001  0.84690  Biso   1.000  O
  O201     1.0000 0.84041  0.85778  0.81462  Biso   1.000  O
  O202     1.0000 0.84822  0.05279  0.84767  Biso   1.000  O
  O203     1.0000 0.81181  0.08455  0.81090  Biso   1.000  O
  O204     1.0000 0.69918  0.58745  0.60877  Biso   1.000  O
  O205     1.0000 0.74148  0.61060  0.64523  Biso   1.000  O
  O206     1.0000 0.75901  0.49867  0.53070  Biso   1.000  O
  O207     1.0000 0.83080  0.48518  0.53066  Biso   1.000  O
  O208     1.0000 0.73904  0.85669  0.69809  Biso   1.000  O
  N16      1.0000 0.77095  0.95523  0.64472  Biso   1.000  N
  H286     1.0000 0.77740  0.97710  0.63330  Biso   1.000  H
  C646     1.0000 0.67057  0.68907  0.61836  Biso   1.000  C
  C647     1.0000 0.66876  0.73126  0.60195  Biso   1.000  C
  C648     1.0000 0.64224  0.73515  0.57797  Biso   1.000  C
  H287     1.0000 0.62680  0.71070  0.57110  Biso   1.000  H
  C649     1.0000 0.63799  0.77403  0.56395  Biso   1.000  C
  C650     1.0000 0.66140  0.81017  0.57393  Biso   1.000  C
  H288     1.0000 0.65870  0.83720  0.56430  Biso   1.000  H
  C651     1.0000 0.68838  0.80599  0.59783  Biso   1.000  C
  C652     1.0000 0.69185  0.76689  0.61150  Biso   1.000  C
  H289     1.0000 0.71040  0.76410  0.62780  Biso   1.000  H
  C653     1.0000 0.60653  0.77952  0.53938  Biso   1.000  C
  C654     1.0000 0.71197  0.84557  0.60950  Biso   1.000  C
  C655     1.0000 0.72532  0.87835  0.59182  Biso   1.000  C
  H290     1.0000 0.72130  0.87580  0.57140  Biso   1.000  H
  C656     1.0000 0.74487  0.91565  0.60299  Biso   1.000  C
  H291     1.0000 0.75390  0.93790  0.59020  Biso   1.000  H
  C657     1.0000 0.75105  0.92014  0.63289  Biso   1.000  C
  C658     1.0000 0.73935  0.88467  0.65127  Biso   1.000  C
  C659     1.0000 0.72019  0.84872  0.63929  Biso   1.000  C
  H292     1.0000 0.71240  0.82540  0.65160  Biso   1.000  H
  C660     1.0000 0.74822  0.88593  0.68195  Biso   1.000  C
  C661     1.0000 0.76901  0.92584  0.69304  Biso   1.000  C
  C662     1.0000 0.78108  0.95786  0.67290  Biso   1.000  C
  C663     1.0000 0.79986  0.99600  0.68545  Biso   1.000  C
  H293     1.0000 0.80530  0.02000  0.67310  Biso   1.000  H
  C664     1.0000 0.80999  0.99926  0.71355  Biso   1.000  C
  H294     1.0000 0.82430  0.02430  0.72050  Biso   1.000  H
  C665     1.0000 0.79945  0.96515  0.73316  Biso   1.000  C
  C666     1.0000 0.77885  0.92978  0.72226  Biso   1.000  C
  H295     1.0000 0.77100  0.90710  0.73510  Biso   1.000  H
  C667     1.0000 0.81264  0.96804  0.76377  Biso   1.000  C
  C668     1.0000 0.81451  0.00789  0.77857  Biso   1.000  C
  H296     1.0000 0.80620  0.03350  0.76870  Biso   1.000  H
  C669     1.0000 0.82839  0.01060  0.80744  Biso   1.000  C
  C670     1.0000 0.84091  0.97314  0.82182  Biso   1.000  C
  H297     1.0000 0.85120  0.97480  0.84120  Biso   1.000  H
  C671     1.0000 0.83845  0.93360  0.80811  Biso   1.000  C
  C672     1.0000 0.82414  0.93087  0.77951  Biso   1.000  C
  H298     1.0000 0.82210  0.90340  0.77040  Biso   1.000  H
  C673     1.0000 0.82945  0.05261  0.82304  Biso   1.000  C
  C674     1.0000 0.85175  0.89399  0.82484  Biso   1.000  C
  C675     1.0000 0.73469  0.59054  0.62207  Biso   1.000  C
  C676     1.0000 0.76760  0.54866  0.58120  Biso   1.000  C
  H299     1.0000 0.74090  0.55120  0.57110  Biso   1.000  H
  C677     1.0000 0.80146  0.52596  0.56899  Biso   1.000  C
  C678     1.0000 0.84089  0.52206  0.58415  Biso   1.000  C
  H300     1.0000 0.86430  0.50680  0.57560  Biso   1.000  H
  C679     1.0000 0.84559  0.54055  0.61170  Biso   1.000  C
  C680     1.0000 0.81141  0.56445  0.62308  Biso   1.000  C
  H301     1.0000 0.81470  0.57870  0.64130  Biso   1.000  H
  C681     1.0000 0.77293  0.56769  0.60825  Biso   1.000  C
  C682     1.0000 0.79587  0.50170  0.54087  Biso   1.000  C
  C683     1.0000 0.88621  0.53329  0.62796  Biso   1.000  C
  C684     1.0000 0.92415  0.52300  0.61311  Biso   1.000  C
  H302     1.0000 0.92410  0.52320  0.59240  Biso   1.000  H
  C685     1.0000 0.96304  0.51213  0.62820  Biso   1.000  C
  C686     1.0000 0.96353  0.51079  0.65828  Biso   1.000  C
  C687     1.0000 0.92541  0.52047  0.67323  Biso   1.000  C
  H303     1.0000 0.92500  0.51930  0.69390  Biso   1.000  H
  C688     1.0000 0.88715  0.53205  0.65783  Biso   1.000  C
  H304     1.0000 0.86180  0.53910  0.66840  Biso   1.000  H
  Cu33     1.0000 0.33065  0.05901  0.00000  Biso   1.000  Cu
  Cu34     1.0000 0.24604  0.04365  0.00000  Biso   1.000  Cu
  Cu35     1.0000 0.66935  0.94099  0.00000  Biso   1.000  Cu
  Cu36     1.0000 0.75396  0.95635  0.00000  Biso   1.000  Cu
  Cu37     1.0000 0.94099  0.33065  0.00000  Biso   1.000  Cu
  Cu38     1.0000 0.95635  0.24604  0.00000  Biso   1.000  Cu
  Cu39     1.0000 0.05901  0.66935  0.00000  Biso   1.000  Cu
  Cu40     1.0000 0.04365  0.75396  0.00000  Biso   1.000  Cu
  Cu41     1.0000 0.16935  0.55901  0.50000  Biso   1.000  Cu
  Cu42     1.0000 0.25396  0.54365  0.50000  Biso   1.000  Cu
  Cu43     1.0000 0.83065  0.44099  0.50000  Biso   1.000  Cu
  Cu44     1.0000 0.74604  0.45635  0.50000  Biso   1.000  Cu
  Cu45     1.0000 0.55901  0.83065  0.50000  Biso   1.000  Cu
  Cu46     1.0000 0.54365  0.74604  0.50000  Biso   1.000  Cu
  Cu47     1.0000 0.44099  0.16935  0.50000  Biso   1.000  Cu
  Cu48     1.0000 0.45635  0.25396  0.50000  Biso   1.000  Cu
  O209     1.0000 0.00000  0.50000  0.08480  Biso   1.000  O
  N17      1.0000 0.00000  0.50000  0.17218  Biso   1.000  N
  H305     1.0000 0.00000  0.50000  0.19130  Biso   1.000  H
  C689     1.0000 0.00000  0.50000  0.11215  Biso   1.000  C
  O210     1.0000 0.50000  0.00000  0.08480  Biso   1.000  O
  N18      1.0000 0.50000  0.00000  0.17218  Biso   1.000  N
  H306     1.0000 0.50000  0.00000  0.19130  Biso   1.000  H
  C690     1.0000 0.50000  0.00000  0.11215  Biso   1.000  C
  O211     1.0000 0.50000  0.00000  0.41520  Biso   1.000  O
  N19      1.0000 0.50000  0.00000  0.32782  Biso   1.000  N
  H307     1.0000 0.50000  0.00000  0.30870  Biso   1.000  H
  C691     1.0000 0.50000  0.00000  0.38785  Biso   1.000  C
  O212     1.0000 0.00000  0.50000  0.41520  Biso   1.000  O
  N20      1.0000 0.00000  0.50000  0.32782  Biso   1.000  N
  H308     1.0000 0.00000  0.50000  0.30870  Biso   1.000  H
  C692     1.0000 0.00000  0.50000  0.38785  Biso   1.000  C
  O213     1.0000 0.00000  0.50000  0.91520  Biso   1.000  O
  N21      1.0000 0.00000  0.50000  0.82782  Biso   1.000  N
  H309     1.0000 0.00000  0.50000  0.80870  Biso   1.000  H
  C693     1.0000 0.00000  0.50000  0.88785  Biso   1.000  C
  O214     1.0000 0.50000  0.00000  0.91520  Biso   1.000  O
  N22      1.0000 0.50000  0.00000  0.82782  Biso   1.000  N
  H310     1.0000 0.50000  0.00000  0.80870  Biso   1.000  H
  C694     1.0000 0.50000  0.00000  0.88785  Biso   1.000  C
  O215     1.0000 0.50000  0.00000  0.58480  Biso   1.000  O
  N23      1.0000 0.50000  0.00000  0.67218  Biso   1.000  N
  H311     1.0000 0.50000  0.00000  0.69130  Biso   1.000  H
  C695     1.0000 0.50000  0.00000  0.61215  Biso   1.000  C
  O216     1.0000 0.00000  0.50000  0.58480  Biso   1.000  O
  N24      1.0000 0.00000  0.50000  0.67218  Biso   1.000  N
  H312     1.0000 0.00000  0.50000  0.69130  Biso   1.000  H
  C696     1.0000 0.00000  0.50000  0.61215  Biso   1.000  C
