data_image0
_cell_length_a       27.286
_cell_length_b       13.6997
_cell_length_c       45.829
_cell_angle_alpha    90
_cell_angle_beta     90
_cell_angle_gamma    90

_symmetry_space_group_name_H-M    "P 1"
_symmetry_int_tables_number       1

loop_
  _symmetry_equiv_pos_as_xyz
  'x, y, z'

loop_
  _atom_site_label
  _atom_site_occupancy
  _atom_site_fract_x
  _atom_site_fract_y
  _atom_site_fract_z
  _atom_site_thermal_displace_type
  _atom_site_B_iso_or_equiv
  _atom_site_type_symbol
  Zn1      1.0000 0.24633  0.84340  0.31144  Biso   1.000  Zn
  Zn2      1.0000 0.03019  0.64159  0.40931  Biso   1.000  Zn
  Zn3      1.0000 0.04882  0.86030  0.57199  Biso   1.000  Zn
  I1       1.0000 0.33727  0.82887  0.32277  Biso   1.000  I
  I2       1.0000 0.19474  0.68953  0.30406  Biso   1.000  I
  I3       1.0000 0.07770  0.72549  0.36902  Biso   1.000  I
  I4       1.0000 0.01494  0.72111  0.45869  Biso   1.000  I
  I5       1.0000 0.04889  0.67661  0.56424  Biso   1.000  I
  I6       1.0000 0.98232  0.95544  0.59831  Biso   1.000  I
  C1       1.0000 0.07250  0.45030  0.39393  Biso   1.000  C
  H1       1.0000 0.06810  0.47510  0.37480  Biso   1.000  H
  C2       1.0000 0.08990  0.35690  0.39746  Biso   1.000  C
  H2       1.0000 0.09700  0.31760  0.38090  Biso   1.000  H
  C3       1.0000 0.06890  0.47370  0.44364  Biso   1.000  C
  H3       1.0000 0.06260  0.51520  0.45980  Biso   1.000  H
  C4       1.0000 0.08560  0.37960  0.44863  Biso   1.000  C
  H4       1.0000 0.08910  0.35600  0.46800  Biso   1.000  H
  C5       1.0000 0.09700  0.32050  0.42520  Biso   1.000  C
  C6       1.0000 0.11320  0.21850  0.43015  Biso   1.000  C
  C7       1.0000 0.05210  0.02270  0.52865  Biso   1.000  C
  H5       1.0000 0.03250  0.05490  0.54280  Biso   1.000  H
  C8       1.0000 0.06730  0.07360  0.50472  Biso   1.000  C
  H6       1.0000 0.05810  0.14000  0.50240  Biso   1.000  H
  C9       1.0000 0.09050  0.88370  0.51220  Biso   1.000  C
  H7       1.0000 0.09780  0.81640  0.51460  Biso   1.000  H
  C10      1.0000 0.10770  0.93110  0.48759  Biso   1.000  C
  H8       1.0000 0.12710  0.89740  0.47360  Biso   1.000  H
  C11      1.0000 0.09610  0.02880  0.48373  Biso   1.000  C
  C12      1.0000 0.11270  0.08200  0.45729  Biso   1.000  C
  C13      1.0000 0.19080  0.87610  0.36574  Biso   1.000  C
  H9       1.0000 0.18960  0.80680  0.36570  Biso   1.000  H
  C14      1.0000 0.17030  0.92590  0.38881  Biso   1.000  C
  H10      1.0000 0.15610  0.89110  0.40460  Biso   1.000  H
  C15      1.0000 0.21260  0.01970  0.34345  Biso   1.000  C
  H11      1.0000 0.22770  0.05300  0.32760  Biso   1.000  H
  C16      1.0000 0.19190  0.07390  0.36555  Biso   1.000  C
  H12      1.0000 0.19250  0.14320  0.36480  Biso   1.000  H
  C17      1.0000 0.17040  0.02660  0.38878  Biso   1.000  C
  C18      1.0000 0.14690  0.08090  0.41279  Biso   1.000  C
  C19      1.0000 0.27710  0.95530  0.25895  Biso   1.000  C
  H13      1.0000 0.30850  0.95330  0.26790  Biso   1.000  H
  C20      1.0000 0.27340  0.99030  0.23072  Biso   1.000  C
  H14      1.0000 0.30180  0.01080  0.22040  Biso   1.000  H
  C21      1.0000 0.19400  0.93290  0.26227  Biso   1.000  C
  H15      1.0000 0.16610  0.91440  0.27330  Biso   1.000  H
  C22      1.0000 0.18730  0.96800  0.23412  Biso   1.000  C
  H16      1.0000 0.15520  0.97350  0.22620  Biso   1.000  H
  C23      1.0000 0.22760  0.99480  0.21788  Biso   1.000  C
  C24      1.0000 0.22250  0.02560  0.18712  Biso   1.000  C
  C25      1.0000 0.04050  0.08910  0.13783  Biso   1.000  C
  H17      1.0000 0.01180  0.09110  0.14960  Biso   1.000  H
  C26      1.0000 0.08520  0.07140  0.15126  Biso   1.000  C
  H18      1.0000 0.08690  0.05940  0.17170  Biso   1.000  H
  C27      1.0000 0.07640  0.10000  0.09298  Biso   1.000  C
  H19      1.0000 0.07330  0.10780  0.07250  Biso   1.000  H
  C28      1.0000 0.12250  0.08580  0.10462  Biso   1.000  C
  H20      1.0000 0.15050  0.08580  0.09230  Biso   1.000  H
  C29      1.0000 0.12740  0.07150  0.13435  Biso   1.000  C
  C30      1.0000 0.17590  0.05920  0.14802  Biso   1.000  C
  C31      1.0000 0.34340  0.11700  0.08229  Biso   1.000  C
  H21      1.0000 0.34150  0.13570  0.06240  Biso   1.000  H
  C32      1.0000 0.30060  0.10120  0.09723  Biso   1.000  C
  H22      1.0000 0.26990  0.10790  0.08770  Biso   1.000  H
  C33      1.0000 0.38970  0.08050  0.12265  Biso   1.000  C
  H23      1.0000 0.42090  0.07170  0.13140  Biso   1.000  H
  C34      1.0000 0.34860  0.06520  0.13932  Biso   1.000  C
  H24      1.0000 0.35130  0.04790  0.15930  Biso   1.000  H
  C35      1.0000 0.30300  0.07550  0.12630  Biso   1.000  C
  C36      1.0000 0.25780  0.06070  0.14382  Biso   1.000  C
  N1       1.0000 0.06156  0.50750  0.41682  Biso   1.000  N
  N2       1.0000 0.06390  0.92860  0.53280  Biso   1.000  N
  N3       1.0000 0.21240  0.92240  0.34329  Biso   1.000  N
  N4       1.0000 0.10110  0.17690  0.45537  Biso   1.000  N
  N5       1.0000 0.13650  0.03130  0.43727  Biso   1.000  N
  N6       1.0000 0.13583  0.17410  0.40826  Biso   1.000  N
  N7       1.0000 0.23825  0.92410  0.27432  Biso   1.000  N
  N8       1.0000 0.03584  0.10330  0.10947  Biso   1.000  N
  N9       1.0000 0.38773  0.10760  0.09434  Biso   1.000  N
  N10      1.0000 0.17727  0.03550  0.17627  Biso   1.000  N
  N11      1.0000 0.21491  0.07180  0.13059  Biso   1.000  N
  N12      1.0000 0.26412  0.03790  0.17191  Biso   1.000  N
  Zn4      1.0000 0.25367  0.15660  0.81144  Biso   1.000  Zn
  Zn5      1.0000 0.46981  0.35841  0.90931  Biso   1.000  Zn
  Zn6      1.0000 0.45118  0.13970  0.07199  Biso   1.000  Zn
  I7       1.0000 0.16273  0.17113  0.82277  Biso   1.000  I
  I8       1.0000 0.30526  0.31047  0.80406  Biso   1.000  I
  I9       1.0000 0.42230  0.27451  0.86902  Biso   1.000  I
  I10      1.0000 0.48506  0.27889  0.95869  Biso   1.000  I
  I11      1.0000 0.45111  0.32339  0.06424  Biso   1.000  I
  I12      1.0000 0.51768  0.04456  0.09831  Biso   1.000  I
  C37      1.0000 0.42750  0.54970  0.89393  Biso   1.000  C
  H25      1.0000 0.43190  0.52490  0.87480  Biso   1.000  H
  C38      1.0000 0.41010  0.64310  0.89746  Biso   1.000  C
  H26      1.0000 0.40300  0.68240  0.88090  Biso   1.000  H
  C39      1.0000 0.43110  0.52630  0.94364  Biso   1.000  C
  H27      1.0000 0.43740  0.48480  0.95980  Biso   1.000  H
  C40      1.0000 0.41440  0.62040  0.94863  Biso   1.000  C
  H28      1.0000 0.41090  0.64400  0.96800  Biso   1.000  H
  C41      1.0000 0.40300  0.67950  0.92520  Biso   1.000  C
  C42      1.0000 0.38680  0.78150  0.93015  Biso   1.000  C
  C43      1.0000 0.44790  0.97730  0.02865  Biso   1.000  C
  H29      1.0000 0.46750  0.94510  0.04280  Biso   1.000  H
  C44      1.0000 0.43270  0.92640  0.00472  Biso   1.000  C
  H30      1.0000 0.44190  0.86000  0.00240  Biso   1.000  H
  C45      1.0000 0.40950  0.11630  0.01220  Biso   1.000  C
  H31      1.0000 0.40220  0.18360  0.01460  Biso   1.000  H
  C46      1.0000 0.39230  0.06890  0.98759  Biso   1.000  C
  H32      1.0000 0.37290  0.10260  0.97360  Biso   1.000  H
  C47      1.0000 0.40390  0.97120  0.98373  Biso   1.000  C
  C48      1.0000 0.38730  0.91800  0.95729  Biso   1.000  C
  C49      1.0000 0.30920  0.12390  0.86574  Biso   1.000  C
  H33      1.0000 0.31040  0.19320  0.86570  Biso   1.000  H
  C50      1.0000 0.32970  0.07410  0.88881  Biso   1.000  C
  H34      1.0000 0.34390  0.10890  0.90460  Biso   1.000  H
  C51      1.0000 0.28740  0.98030  0.84345  Biso   1.000  C
  H35      1.0000 0.27230  0.94700  0.82760  Biso   1.000  H
  C52      1.0000 0.30810  0.92610  0.86555  Biso   1.000  C
  H36      1.0000 0.30750  0.85680  0.86480  Biso   1.000  H
  C53      1.0000 0.32960  0.97340  0.88878  Biso   1.000  C
  C54      1.0000 0.35310  0.91910  0.91279  Biso   1.000  C
  C55      1.0000 0.22290  0.04470  0.75895  Biso   1.000  C
  H37      1.0000 0.19150  0.04670  0.76790  Biso   1.000  H
  C56      1.0000 0.22660  0.00970  0.73072  Biso   1.000  C
  H38      1.0000 0.19820  0.98920  0.72040  Biso   1.000  H
  C57      1.0000 0.30600  0.06710  0.76227  Biso   1.000  C
  H39      1.0000 0.33390  0.08560  0.77330  Biso   1.000  H
  C58      1.0000 0.31270  0.03200  0.73412  Biso   1.000  C
  H40      1.0000 0.34480  0.02650  0.72620  Biso   1.000  H
  C59      1.0000 0.27240  0.00520  0.71788  Biso   1.000  C
  C60      1.0000 0.27750  0.97440  0.68712  Biso   1.000  C
  C61      1.0000 0.45950  0.91090  0.63783  Biso   1.000  C
  H41      1.0000 0.48820  0.90890  0.64960  Biso   1.000  H
  C62      1.0000 0.41480  0.92860  0.65126  Biso   1.000  C
  H42      1.0000 0.41310  0.94060  0.67170  Biso   1.000  H
  C63      1.0000 0.42360  0.90000  0.59298  Biso   1.000  C
  H43      1.0000 0.42670  0.89220  0.57250  Biso   1.000  H
  C64      1.0000 0.37750  0.91420  0.60462  Biso   1.000  C
  H44      1.0000 0.34950  0.91420  0.59230  Biso   1.000  H
  C65      1.0000 0.37260  0.92850  0.63435  Biso   1.000  C
  C66      1.0000 0.32410  0.94080  0.64802  Biso   1.000  C
  C67      1.0000 0.15660  0.88300  0.58229  Biso   1.000  C
  H45      1.0000 0.15850  0.86430  0.56240  Biso   1.000  H
  C68      1.0000 0.19940  0.89880  0.59723  Biso   1.000  C
  H46      1.0000 0.23010  0.89210  0.58770  Biso   1.000  H
  C69      1.0000 0.11030  0.91950  0.62265  Biso   1.000  C
  H47      1.0000 0.07910  0.92830  0.63140  Biso   1.000  H
  C70      1.0000 0.15140  0.93480  0.63932  Biso   1.000  C
  H48      1.0000 0.14870  0.95210  0.65930  Biso   1.000  H
  C71      1.0000 0.19700  0.92450  0.62630  Biso   1.000  C
  C72      1.0000 0.24220  0.93930  0.64382  Biso   1.000  C
  N13      1.0000 0.43844  0.49250  0.91682  Biso   1.000  N
  N14      1.0000 0.43610  0.07140  0.03280  Biso   1.000  N
  N15      1.0000 0.28760  0.07760  0.84329  Biso   1.000  N
  N16      1.0000 0.39890  0.82310  0.95537  Biso   1.000  N
  N17      1.0000 0.36350  0.96870  0.93727  Biso   1.000  N
  N18      1.0000 0.36417  0.82590  0.90826  Biso   1.000  N
  N19      1.0000 0.26175  0.07590  0.77432  Biso   1.000  N
  N20      1.0000 0.46416  0.89670  0.60947  Biso   1.000  N
  N21      1.0000 0.11227  0.89240  0.59434  Biso   1.000  N
  N22      1.0000 0.32273  0.96450  0.67627  Biso   1.000  N
  N23      1.0000 0.28509  0.92820  0.63059  Biso   1.000  N
  N24      1.0000 0.23588  0.96210  0.67191  Biso   1.000  N
  Zn7      1.0000 0.75367  0.34340  0.18856  Biso   1.000  Zn
  Zn8      1.0000 0.96981  0.14159  0.09069  Biso   1.000  Zn
  Zn9      1.0000 0.95118  0.36030  0.92801  Biso   1.000  Zn
  I13      1.0000 0.66273  0.32887  0.17723  Biso   1.000  I
  I14      1.0000 0.80526  0.18953  0.19594  Biso   1.000  I
  I15      1.0000 0.92230  0.22549  0.13098  Biso   1.000  I
  I16      1.0000 0.98506  0.22111  0.04131  Biso   1.000  I
  I17      1.0000 0.95111  0.17661  0.93576  Biso   1.000  I
  I18      1.0000 0.01768  0.45544  0.90169  Biso   1.000  I
  C73      1.0000 0.92750  0.95030  0.10607  Biso   1.000  C
  H49      1.0000 0.93190  0.97510  0.12520  Biso   1.000  H
  C74      1.0000 0.91010  0.85690  0.10254  Biso   1.000  C
  H50      1.0000 0.90300  0.81760  0.11910  Biso   1.000  H
  C75      1.0000 0.93110  0.97370  0.05636  Biso   1.000  C
  H51      1.0000 0.93740  0.01520  0.04020  Biso   1.000  H
  C76      1.0000 0.91440  0.87960  0.05137  Biso   1.000  C
  H52      1.0000 0.91090  0.85600  0.03200  Biso   1.000  H
  C77      1.0000 0.90300  0.82050  0.07480  Biso   1.000  C
  C78      1.0000 0.88680  0.71850  0.06985  Biso   1.000  C
  C79      1.0000 0.94790  0.52270  0.97135  Biso   1.000  C
  H53      1.0000 0.96750  0.55490  0.95720  Biso   1.000  H
  C80      1.0000 0.93270  0.57360  0.99528  Biso   1.000  C
  H54      1.0000 0.94190  0.64000  0.99760  Biso   1.000  H
  C81      1.0000 0.90950  0.38370  0.98780  Biso   1.000  C
  H55      1.0000 0.90220  0.31640  0.98540  Biso   1.000  H
  C82      1.0000 0.89230  0.43110  0.01241  Biso   1.000  C
  H56      1.0000 0.87290  0.39740  0.02640  Biso   1.000  H
  C83      1.0000 0.90390  0.52880  0.01627  Biso   1.000  C
  C84      1.0000 0.88730  0.58200  0.04271  Biso   1.000  C
  C85      1.0000 0.80920  0.37610  0.13426  Biso   1.000  C
  H57      1.0000 0.81040  0.30680  0.13430  Biso   1.000  H
  C86      1.0000 0.82970  0.42590  0.11119  Biso   1.000  C
  H58      1.0000 0.84390  0.39110  0.09540  Biso   1.000  H
  C87      1.0000 0.78740  0.51970  0.15655  Biso   1.000  C
  H59      1.0000 0.77230  0.55300  0.17240  Biso   1.000  H
  C88      1.0000 0.80810  0.57390  0.13445  Biso   1.000  C
  H60      1.0000 0.80750  0.64320  0.13520  Biso   1.000  H
  C89      1.0000 0.82960  0.52660  0.11122  Biso   1.000  C
  C90      1.0000 0.85310  0.58090  0.08721  Biso   1.000  C
  C91      1.0000 0.72290  0.45530  0.24105  Biso   1.000  C
  H61      1.0000 0.69150  0.45330  0.23210  Biso   1.000  H
  C92      1.0000 0.72660  0.49030  0.26928  Biso   1.000  C
  H62      1.0000 0.69820  0.51080  0.27960  Biso   1.000  H
  C93      1.0000 0.80600  0.43290  0.23773  Biso   1.000  C
  H63      1.0000 0.83390  0.41440  0.22670  Biso   1.000  H
  C94      1.0000 0.81270  0.46800  0.26588  Biso   1.000  C
  H64      1.0000 0.84480  0.47350  0.27380  Biso   1.000  H
  C95      1.0000 0.77240  0.49480  0.28212  Biso   1.000  C
  C96      1.0000 0.77750  0.52560  0.31288  Biso   1.000  C
  C97      1.0000 0.95950  0.58910  0.36217  Biso   1.000  C
  H65      1.0000 0.98820  0.59110  0.35040  Biso   1.000  H
  C98      1.0000 0.91480  0.57140  0.34874  Biso   1.000  C
  H66      1.0000 0.91310  0.55940  0.32830  Biso   1.000  H
  C99      1.0000 0.92360  0.60000  0.40702  Biso   1.000  C
  H67      1.0000 0.92670  0.60780  0.42750  Biso   1.000  H
  C100     1.0000 0.87750  0.58580  0.39538  Biso   1.000  C
  H68      1.0000 0.84950  0.58580  0.40770  Biso   1.000  H
  C101     1.0000 0.87260  0.57150  0.36565  Biso   1.000  C
  C102     1.0000 0.82410  0.55920  0.35198  Biso   1.000  C
  C103     1.0000 0.65660  0.61700  0.41771  Biso   1.000  C
  H69      1.0000 0.65850  0.63570  0.43760  Biso   1.000  H
  C104     1.0000 0.69940  0.60120  0.40277  Biso   1.000  C
  H70      1.0000 0.73010  0.60790  0.41230  Biso   1.000  H
  C105     1.0000 0.61030  0.58050  0.37735  Biso   1.000  C
  H71      1.0000 0.57910  0.57170  0.36860  Biso   1.000  H
  C106     1.0000 0.65140  0.56520  0.36068  Biso   1.000  C
  H72      1.0000 0.64870  0.54790  0.34070  Biso   1.000  H
  C107     1.0000 0.69700  0.57550  0.37370  Biso   1.000  C
  C108     1.0000 0.74220  0.56070  0.35618  Biso   1.000  C
  N25      1.0000 0.93844  0.00750  0.08318  Biso   1.000  N
  N26      1.0000 0.93610  0.42860  0.96720  Biso   1.000  N
  N27      1.0000 0.78760  0.42240  0.15671  Biso   1.000  N
  N28      1.0000 0.89890  0.67690  0.04463  Biso   1.000  N
  N29      1.0000 0.86350  0.53130  0.06273  Biso   1.000  N
  N30      1.0000 0.86417  0.67410  0.09174  Biso   1.000  N
  N31      1.0000 0.76175  0.42410  0.22568  Biso   1.000  N
  N32      1.0000 0.96416  0.60330  0.39053  Biso   1.000  N
  N33      1.0000 0.61227  0.60760  0.40566  Biso   1.000  N
  N34      1.0000 0.82273  0.53550  0.32373  Biso   1.000  N
  N35      1.0000 0.78509  0.57180  0.36941  Biso   1.000  N
  N36      1.0000 0.73588  0.53790  0.32809  Biso   1.000  N
  Zn10     1.0000 0.74633  0.65660  0.68856  Biso   1.000  Zn
  Zn11     1.0000 0.53019  0.85841  0.59069  Biso   1.000  Zn
  Zn12     1.0000 0.54882  0.63970  0.42801  Biso   1.000  Zn
  I19      1.0000 0.83727  0.67113  0.67723  Biso   1.000  I
  I20      1.0000 0.69474  0.81047  0.69594  Biso   1.000  I
  I21      1.0000 0.57770  0.77451  0.63098  Biso   1.000  I
  I22      1.0000 0.51494  0.77889  0.54131  Biso   1.000  I
  I23      1.0000 0.54889  0.82339  0.43576  Biso   1.000  I
  I24      1.0000 0.48232  0.54456  0.40169  Biso   1.000  I
  C109     1.0000 0.57250  0.04970  0.60607  Biso   1.000  C
  H73      1.0000 0.56810  0.02490  0.62520  Biso   1.000  H
  C110     1.0000 0.58990  0.14310  0.60254  Biso   1.000  C
  H74      1.0000 0.59700  0.18240  0.61910  Biso   1.000  H
  C111     1.0000 0.56890  0.02630  0.55636  Biso   1.000  C
  H75      1.0000 0.56260  0.98480  0.54020  Biso   1.000  H
  C112     1.0000 0.58560  0.12040  0.55137  Biso   1.000  C
  H76      1.0000 0.58910  0.14400  0.53200  Biso   1.000  H
  C113     1.0000 0.59700  0.17950  0.57480  Biso   1.000  C
  C114     1.0000 0.61320  0.28150  0.56985  Biso   1.000  C
  C115     1.0000 0.55210  0.47730  0.47135  Biso   1.000  C
  H77      1.0000 0.53250  0.44510  0.45720  Biso   1.000  H
  C116     1.0000 0.56730  0.42640  0.49528  Biso   1.000  C
  H78      1.0000 0.55810  0.36000  0.49760  Biso   1.000  H
  C117     1.0000 0.59050  0.61630  0.48780  Biso   1.000  C
  H79      1.0000 0.59780  0.68360  0.48540  Biso   1.000  H
  C118     1.0000 0.60770  0.56890  0.51241  Biso   1.000  C
  H80      1.0000 0.62710  0.60260  0.52640  Biso   1.000  H
  C119     1.0000 0.59610  0.47120  0.51627  Biso   1.000  C
  C120     1.0000 0.61270  0.41800  0.54271  Biso   1.000  C
  C121     1.0000 0.69080  0.62390  0.63426  Biso   1.000  C
  H81      1.0000 0.68960  0.69320  0.63430  Biso   1.000  H
  C122     1.0000 0.67030  0.57410  0.61119  Biso   1.000  C
  H82      1.0000 0.65610  0.60890  0.59540  Biso   1.000  H
  C123     1.0000 0.71260  0.48030  0.65655  Biso   1.000  C
  H83      1.0000 0.72770  0.44700  0.67240  Biso   1.000  H
  C124     1.0000 0.69190  0.42610  0.63445  Biso   1.000  C
  H84      1.0000 0.69250  0.35680  0.63520  Biso   1.000  H
  C125     1.0000 0.67040  0.47340  0.61122  Biso   1.000  C
  C126     1.0000 0.64690  0.41910  0.58721  Biso   1.000  C
  C127     1.0000 0.77710  0.54470  0.74105  Biso   1.000  C
  H85      1.0000 0.80850  0.54670  0.73210  Biso   1.000  H
  C128     1.0000 0.77340  0.50970  0.76928  Biso   1.000  C
  H86      1.0000 0.80180  0.48920  0.77960  Biso   1.000  H
  C129     1.0000 0.69400  0.56710  0.73773  Biso   1.000  C
  H87      1.0000 0.66610  0.58560  0.72670  Biso   1.000  H
  C130     1.0000 0.68730  0.53200  0.76588  Biso   1.000  C
  H88      1.0000 0.65520  0.52650  0.77380  Biso   1.000  H
  C131     1.0000 0.72760  0.50520  0.78212  Biso   1.000  C
  C132     1.0000 0.72250  0.47440  0.81288  Biso   1.000  C
  C133     1.0000 0.54050  0.41090  0.86217  Biso   1.000  C
  H89      1.0000 0.51180  0.40890  0.85040  Biso   1.000  H
  C134     1.0000 0.58520  0.42860  0.84874  Biso   1.000  C
  H90      1.0000 0.58690  0.44060  0.82830  Biso   1.000  H
  C135     1.0000 0.57640  0.40000  0.90702  Biso   1.000  C
  H91      1.0000 0.57330  0.39220  0.92750  Biso   1.000  H
  C136     1.0000 0.62250  0.41420  0.89538  Biso   1.000  C
  H92      1.0000 0.65050  0.41420  0.90770  Biso   1.000  H
  C137     1.0000 0.62740  0.42850  0.86565  Biso   1.000  C
  C138     1.0000 0.67590  0.44080  0.85198  Biso   1.000  C
  C139     1.0000 0.84340  0.38300  0.91771  Biso   1.000  C
  H93      1.0000 0.84150  0.36430  0.93760  Biso   1.000  H
  C140     1.0000 0.80060  0.39880  0.90277  Biso   1.000  C
  H94      1.0000 0.76990  0.39210  0.91230  Biso   1.000  H
  C141     1.0000 0.88970  0.41950  0.87735  Biso   1.000  C
  H95      1.0000 0.92090  0.42830  0.86860  Biso   1.000  H
  C142     1.0000 0.84860  0.43480  0.86068  Biso   1.000  C
  H96      1.0000 0.85130  0.45210  0.84070  Biso   1.000  H
  C143     1.0000 0.80300  0.42450  0.87370  Biso   1.000  C
  C144     1.0000 0.75780  0.43930  0.85618  Biso   1.000  C
  N37      1.0000 0.56156  0.99250  0.58318  Biso   1.000  N
  N38      1.0000 0.56390  0.57140  0.46720  Biso   1.000  N
  N39      1.0000 0.71240  0.57760  0.65671  Biso   1.000  N
  N40      1.0000 0.60110  0.32310  0.54463  Biso   1.000  N
  N41      1.0000 0.63650  0.46870  0.56273  Biso   1.000  N
  N42      1.0000 0.63583  0.32590  0.59174  Biso   1.000  N
  N43      1.0000 0.73825  0.57590  0.72568  Biso   1.000  N
  N44      1.0000 0.53584  0.39670  0.89053  Biso   1.000  N
  N45      1.0000 0.88773  0.39240  0.90566  Biso   1.000  N
  N46      1.0000 0.67727  0.46450  0.82373  Biso   1.000  N
  N47      1.0000 0.71491  0.42820  0.86941  Biso   1.000  N
  N48      1.0000 0.76412  0.46210  0.82809  Biso   1.000  N
  Zn13     1.0000 0.75367  0.15660  0.68856  Biso   1.000  Zn
  Zn14     1.0000 0.96981  0.35841  0.59069  Biso   1.000  Zn
  Zn15     1.0000 0.95118  0.13970  0.42801  Biso   1.000  Zn
  I25      1.0000 0.66273  0.17113  0.67723  Biso   1.000  I
  I26      1.0000 0.80526  0.31047  0.69594  Biso   1.000  I
  I27      1.0000 0.92230  0.27451  0.63098  Biso   1.000  I
  I28      1.0000 0.98506  0.27889  0.54131  Biso   1.000  I
  I29      1.0000 0.95111  0.32339  0.43576  Biso   1.000  I
  I30      1.0000 0.01768  0.04456  0.40169  Biso   1.000  I
  C145     1.0000 0.92750  0.54970  0.60607  Biso   1.000  C
  H97      1.0000 0.93190  0.52490  0.62520  Biso   1.000  H
  C146     1.0000 0.91010  0.64310  0.60254  Biso   1.000  C
  H98      1.0000 0.90300  0.68240  0.61910  Biso   1.000  H
  C147     1.0000 0.93110  0.52630  0.55636  Biso   1.000  C
  H99      1.0000 0.93740  0.48480  0.54020  Biso   1.000  H
  C148     1.0000 0.91440  0.62040  0.55137  Biso   1.000  C
  H100     1.0000 0.91090  0.64400  0.53200  Biso   1.000  H
  C149     1.0000 0.90300  0.67950  0.57480  Biso   1.000  C
  C150     1.0000 0.88680  0.78150  0.56985  Biso   1.000  C
  C151     1.0000 0.94790  0.97730  0.47135  Biso   1.000  C
  H101     1.0000 0.96750  0.94510  0.45720  Biso   1.000  H
  C152     1.0000 0.93270  0.92640  0.49528  Biso   1.000  C
  H102     1.0000 0.94190  0.86000  0.49760  Biso   1.000  H
  C153     1.0000 0.90950  0.11630  0.48780  Biso   1.000  C
  H103     1.0000 0.90220  0.18360  0.48540  Biso   1.000  H
  C154     1.0000 0.89230  0.06890  0.51241  Biso   1.000  C
  H104     1.0000 0.87290  0.10260  0.52640  Biso   1.000  H
  C155     1.0000 0.90390  0.97120  0.51627  Biso   1.000  C
  C156     1.0000 0.88730  0.91800  0.54271  Biso   1.000  C
  C157     1.0000 0.80920  0.12390  0.63426  Biso   1.000  C
  H105     1.0000 0.81040  0.19320  0.63430  Biso   1.000  H
  C158     1.0000 0.82970  0.07410  0.61119  Biso   1.000  C
  H106     1.0000 0.84390  0.10890  0.59540  Biso   1.000  H
  C159     1.0000 0.78740  0.98030  0.65655  Biso   1.000  C
  H107     1.0000 0.77230  0.94700  0.67240  Biso   1.000  H
  C160     1.0000 0.80810  0.92610  0.63445  Biso   1.000  C
  H108     1.0000 0.80750  0.85680  0.63520  Biso   1.000  H
  C161     1.0000 0.82960  0.97340  0.61122  Biso   1.000  C
  C162     1.0000 0.85310  0.91910  0.58721  Biso   1.000  C
  C163     1.0000 0.72290  0.04470  0.74105  Biso   1.000  C
  H109     1.0000 0.69150  0.04670  0.73210  Biso   1.000  H
  C164     1.0000 0.72660  0.00970  0.76928  Biso   1.000  C
  H110     1.0000 0.69820  0.98920  0.77960  Biso   1.000  H
  C165     1.0000 0.80600  0.06710  0.73773  Biso   1.000  C
  H111     1.0000 0.83390  0.08560  0.72670  Biso   1.000  H
  C166     1.0000 0.81270  0.03200  0.76588  Biso   1.000  C
  H112     1.0000 0.84480  0.02650  0.77380  Biso   1.000  H
  C167     1.0000 0.77240  0.00520  0.78212  Biso   1.000  C
  C168     1.0000 0.77750  0.97440  0.81288  Biso   1.000  C
  C169     1.0000 0.95950  0.91090  0.86217  Biso   1.000  C
  H113     1.0000 0.98820  0.90890  0.85040  Biso   1.000  H
  C170     1.0000 0.91480  0.92860  0.84874  Biso   1.000  C
  H114     1.0000 0.91310  0.94060  0.82830  Biso   1.000  H
  C171     1.0000 0.92360  0.90000  0.90702  Biso   1.000  C
  H115     1.0000 0.92670  0.89220  0.92750  Biso   1.000  H
  C172     1.0000 0.87750  0.91420  0.89538  Biso   1.000  C
  H116     1.0000 0.84950  0.91420  0.90770  Biso   1.000  H
  C173     1.0000 0.87260  0.92850  0.86565  Biso   1.000  C
  C174     1.0000 0.82410  0.94080  0.85198  Biso   1.000  C
  C175     1.0000 0.65660  0.88300  0.91771  Biso   1.000  C
  H117     1.0000 0.65850  0.86430  0.93760  Biso   1.000  H
  C176     1.0000 0.69940  0.89880  0.90277  Biso   1.000  C
  H118     1.0000 0.73010  0.89210  0.91230  Biso   1.000  H
  C177     1.0000 0.61030  0.91950  0.87735  Biso   1.000  C
  H119     1.0000 0.57910  0.92830  0.86860  Biso   1.000  H
  C178     1.0000 0.65140  0.93480  0.86068  Biso   1.000  C
  H120     1.0000 0.64870  0.95210  0.84070  Biso   1.000  H
  C179     1.0000 0.69700  0.92450  0.87370  Biso   1.000  C
  C180     1.0000 0.74220  0.93930  0.85618  Biso   1.000  C
  N49      1.0000 0.93844  0.49250  0.58318  Biso   1.000  N
  N50      1.0000 0.93610  0.07140  0.46720  Biso   1.000  N
  N51      1.0000 0.78760  0.07760  0.65671  Biso   1.000  N
  N52      1.0000 0.89890  0.82310  0.54463  Biso   1.000  N
  N53      1.0000 0.86350  0.96870  0.56273  Biso   1.000  N
  N54      1.0000 0.86417  0.82590  0.59174  Biso   1.000  N
  N55      1.0000 0.76175  0.07590  0.72568  Biso   1.000  N
  N56      1.0000 0.96416  0.89670  0.89053  Biso   1.000  N
  N57      1.0000 0.61227  0.89240  0.90566  Biso   1.000  N
  N58      1.0000 0.82273  0.96450  0.82373  Biso   1.000  N
  N59      1.0000 0.78509  0.92820  0.86941  Biso   1.000  N
  N60      1.0000 0.73588  0.96210  0.82809  Biso   1.000  N
  Zn16     1.0000 0.74633  0.84340  0.18856  Biso   1.000  Zn
  Zn17     1.0000 0.53019  0.64159  0.09069  Biso   1.000  Zn
  Zn18     1.0000 0.54882  0.86030  0.92801  Biso   1.000  Zn
  I31      1.0000 0.83727  0.82887  0.17723  Biso   1.000  I
  I32      1.0000 0.69474  0.68953  0.19594  Biso   1.000  I
  I33      1.0000 0.57770  0.72549  0.13098  Biso   1.000  I
  I34      1.0000 0.51494  0.72111  0.04131  Biso   1.000  I
  I35      1.0000 0.54889  0.67661  0.93576  Biso   1.000  I
  I36      1.0000 0.48232  0.95544  0.90169  Biso   1.000  I
  C181     1.0000 0.57250  0.45030  0.10607  Biso   1.000  C
  H121     1.0000 0.56810  0.47510  0.12520  Biso   1.000  H
  C182     1.0000 0.58990  0.35690  0.10254  Biso   1.000  C
  H122     1.0000 0.59700  0.31760  0.11910  Biso   1.000  H
  C183     1.0000 0.56890  0.47370  0.05636  Biso   1.000  C
  H123     1.0000 0.56260  0.51520  0.04020  Biso   1.000  H
  C184     1.0000 0.58560  0.37960  0.05137  Biso   1.000  C
  H124     1.0000 0.58910  0.35600  0.03200  Biso   1.000  H
  C185     1.0000 0.59700  0.32050  0.07480  Biso   1.000  C
  C186     1.0000 0.61320  0.21850  0.06985  Biso   1.000  C
  C187     1.0000 0.55210  0.02270  0.97135  Biso   1.000  C
  H125     1.0000 0.53250  0.05490  0.95720  Biso   1.000  H
  C188     1.0000 0.56730  0.07360  0.99528  Biso   1.000  C
  H126     1.0000 0.55810  0.14000  0.99760  Biso   1.000  H
  C189     1.0000 0.59050  0.88370  0.98780  Biso   1.000  C
  H127     1.0000 0.59780  0.81640  0.98540  Biso   1.000  H
  C190     1.0000 0.60770  0.93110  0.01241  Biso   1.000  C
  H128     1.0000 0.62710  0.89740  0.02640  Biso   1.000  H
  C191     1.0000 0.59610  0.02880  0.01627  Biso   1.000  C
  C192     1.0000 0.61270  0.08200  0.04271  Biso   1.000  C
  C193     1.0000 0.69080  0.87610  0.13426  Biso   1.000  C
  H129     1.0000 0.68960  0.80680  0.13430  Biso   1.000  H
  C194     1.0000 0.67030  0.92590  0.11119  Biso   1.000  C
  H130     1.0000 0.65610  0.89110  0.09540  Biso   1.000  H
  C195     1.0000 0.71260  0.01970  0.15655  Biso   1.000  C
  H131     1.0000 0.72770  0.05300  0.17240  Biso   1.000  H
  C196     1.0000 0.69190  0.07390  0.13445  Biso   1.000  C
  H132     1.0000 0.69250  0.14320  0.13520  Biso   1.000  H
  C197     1.0000 0.67040  0.02660  0.11122  Biso   1.000  C
  C198     1.0000 0.64690  0.08090  0.08721  Biso   1.000  C
  C199     1.0000 0.77710  0.95530  0.24105  Biso   1.000  C
  H133     1.0000 0.80850  0.95330  0.23210  Biso   1.000  H
  C200     1.0000 0.77340  0.99030  0.26928  Biso   1.000  C
  H134     1.0000 0.80180  0.01080  0.27960  Biso   1.000  H
  C201     1.0000 0.69400  0.93290  0.23773  Biso   1.000  C
  H135     1.0000 0.66610  0.91440  0.22670  Biso   1.000  H
  C202     1.0000 0.68730  0.96800  0.26588  Biso   1.000  C
  H136     1.0000 0.65520  0.97350  0.27380  Biso   1.000  H
  C203     1.0000 0.72760  0.99480  0.28212  Biso   1.000  C
  C204     1.0000 0.72250  0.02560  0.31288  Biso   1.000  C
  C205     1.0000 0.54050  0.08910  0.36217  Biso   1.000  C
  H137     1.0000 0.51180  0.09110  0.35040  Biso   1.000  H
  C206     1.0000 0.58520  0.07140  0.34874  Biso   1.000  C
  H138     1.0000 0.58690  0.05940  0.32830  Biso   1.000  H
  C207     1.0000 0.57640  0.10000  0.40702  Biso   1.000  C
  H139     1.0000 0.57330  0.10780  0.42750  Biso   1.000  H
  C208     1.0000 0.62250  0.08580  0.39538  Biso   1.000  C
  H140     1.0000 0.65050  0.08580  0.40770  Biso   1.000  H
  C209     1.0000 0.62740  0.07150  0.36565  Biso   1.000  C
  C210     1.0000 0.67590  0.05920  0.35198  Biso   1.000  C
  C211     1.0000 0.84340  0.11700  0.41771  Biso   1.000  C
  H141     1.0000 0.84150  0.13570  0.43760  Biso   1.000  H
  C212     1.0000 0.80060  0.10120  0.40277  Biso   1.000  C
  H142     1.0000 0.76990  0.10790  0.41230  Biso   1.000  H
  C213     1.0000 0.88970  0.08050  0.37735  Biso   1.000  C
  H143     1.0000 0.92090  0.07170  0.36860  Biso   1.000  H
  C214     1.0000 0.84860  0.06520  0.36068  Biso   1.000  C
  H144     1.0000 0.85130  0.04790  0.34070  Biso   1.000  H
  C215     1.0000 0.80300  0.07550  0.37370  Biso   1.000  C
  C216     1.0000 0.75780  0.06070  0.35618  Biso   1.000  C
  N61      1.0000 0.56156  0.50750  0.08318  Biso   1.000  N
  N62      1.0000 0.56390  0.92860  0.96720  Biso   1.000  N
  N63      1.0000 0.71240  0.92240  0.15671  Biso   1.000  N
  N64      1.0000 0.60110  0.17690  0.04463  Biso   1.000  N
  N65      1.0000 0.63650  0.03130  0.06273  Biso   1.000  N
  N66      1.0000 0.63583  0.17410  0.09174  Biso   1.000  N
  N67      1.0000 0.73825  0.92410  0.22568  Biso   1.000  N
  N68      1.0000 0.53584  0.10330  0.39053  Biso   1.000  N
  N69      1.0000 0.88773  0.10760  0.40566  Biso   1.000  N
  N70      1.0000 0.67727  0.03550  0.32373  Biso   1.000  N
  N71      1.0000 0.71491  0.07180  0.36941  Biso   1.000  N
  N72      1.0000 0.76412  0.03790  0.32809  Biso   1.000  N
  Zn19     1.0000 0.24633  0.65660  0.81144  Biso   1.000  Zn
  Zn20     1.0000 0.03019  0.85841  0.90931  Biso   1.000  Zn
  Zn21     1.0000 0.04882  0.63970  0.07199  Biso   1.000  Zn
  I37      1.0000 0.33727  0.67113  0.82277  Biso   1.000  I
  I38      1.0000 0.19474  0.81047  0.80406  Biso   1.000  I
  I39      1.0000 0.07770  0.77451  0.86902  Biso   1.000  I
  I40      1.0000 0.01494  0.77889  0.95869  Biso   1.000  I
  I41      1.0000 0.04889  0.82339  0.06424  Biso   1.000  I
  I42      1.0000 0.98232  0.54456  0.09831  Biso   1.000  I
  C217     1.0000 0.07250  0.04970  0.89393  Biso   1.000  C
  H145     1.0000 0.06810  0.02490  0.87480  Biso   1.000  H
  C218     1.0000 0.08990  0.14310  0.89746  Biso   1.000  C
  H146     1.0000 0.09700  0.18240  0.88090  Biso   1.000  H
  C219     1.0000 0.06890  0.02630  0.94364  Biso   1.000  C
  H147     1.0000 0.06260  0.98480  0.95980  Biso   1.000  H
  C220     1.0000 0.08560  0.12040  0.94863  Biso   1.000  C
  H148     1.0000 0.08910  0.14400  0.96800  Biso   1.000  H
  C221     1.0000 0.09700  0.17950  0.92520  Biso   1.000  C
  C222     1.0000 0.11320  0.28150  0.93015  Biso   1.000  C
  C223     1.0000 0.05210  0.47730  0.02865  Biso   1.000  C
  H149     1.0000 0.03250  0.44510  0.04280  Biso   1.000  H
  C224     1.0000 0.06730  0.42640  0.00472  Biso   1.000  C
  H150     1.0000 0.05810  0.36000  0.00240  Biso   1.000  H
  C225     1.0000 0.09050  0.61630  0.01220  Biso   1.000  C
  H151     1.0000 0.09780  0.68360  0.01460  Biso   1.000  H
  C226     1.0000 0.10770  0.56890  0.98759  Biso   1.000  C
  H152     1.0000 0.12710  0.60260  0.97360  Biso   1.000  H
  C227     1.0000 0.09610  0.47120  0.98373  Biso   1.000  C
  C228     1.0000 0.11270  0.41800  0.95729  Biso   1.000  C
  C229     1.0000 0.19080  0.62390  0.86574  Biso   1.000  C
  H153     1.0000 0.18960  0.69320  0.86570  Biso   1.000  H
  C230     1.0000 0.17030  0.57410  0.88881  Biso   1.000  C
  H154     1.0000 0.15610  0.60890  0.90460  Biso   1.000  H
  C231     1.0000 0.21260  0.48030  0.84345  Biso   1.000  C
  H155     1.0000 0.22770  0.44700  0.82760  Biso   1.000  H
  C232     1.0000 0.19190  0.42610  0.86555  Biso   1.000  C
  H156     1.0000 0.19250  0.35680  0.86480  Biso   1.000  H
  C233     1.0000 0.17040  0.47340  0.88878  Biso   1.000  C
  C234     1.0000 0.14690  0.41910  0.91279  Biso   1.000  C
  C235     1.0000 0.27710  0.54470  0.75895  Biso   1.000  C
  H157     1.0000 0.30850  0.54670  0.76790  Biso   1.000  H
  C236     1.0000 0.27340  0.50970  0.73072  Biso   1.000  C
  H158     1.0000 0.30180  0.48920  0.72040  Biso   1.000  H
  C237     1.0000 0.19400  0.56710  0.76227  Biso   1.000  C
  H159     1.0000 0.16610  0.58560  0.77330  Biso   1.000  H
  C238     1.0000 0.18730  0.53200  0.73412  Biso   1.000  C
  H160     1.0000 0.15520  0.52650  0.72620  Biso   1.000  H
  C239     1.0000 0.22760  0.50520  0.71788  Biso   1.000  C
  C240     1.0000 0.22250  0.47440  0.68712  Biso   1.000  C
  C241     1.0000 0.04050  0.41090  0.63783  Biso   1.000  C
  H161     1.0000 0.01180  0.40890  0.64960  Biso   1.000  H
  C242     1.0000 0.08520  0.42860  0.65126  Biso   1.000  C
  H162     1.0000 0.08690  0.44060  0.67170  Biso   1.000  H
  C243     1.0000 0.07640  0.40000  0.59298  Biso   1.000  C
  H163     1.0000 0.07330  0.39220  0.57250  Biso   1.000  H
  C244     1.0000 0.12250  0.41420  0.60462  Biso   1.000  C
  H164     1.0000 0.15050  0.41420  0.59230  Biso   1.000  H
  C245     1.0000 0.12740  0.42850  0.63435  Biso   1.000  C
  C246     1.0000 0.17590  0.44080  0.64802  Biso   1.000  C
  C247     1.0000 0.34340  0.38300  0.58229  Biso   1.000  C
  H165     1.0000 0.34150  0.36430  0.56240  Biso   1.000  H
  C248     1.0000 0.30060  0.39880  0.59723  Biso   1.000  C
  H166     1.0000 0.26990  0.39210  0.58770  Biso   1.000  H
  C249     1.0000 0.38970  0.41950  0.62265  Biso   1.000  C
  H167     1.0000 0.42090  0.42830  0.63140  Biso   1.000  H
  C250     1.0000 0.34860  0.43480  0.63932  Biso   1.000  C
  H168     1.0000 0.35130  0.45210  0.65930  Biso   1.000  H
  C251     1.0000 0.30300  0.42450  0.62630  Biso   1.000  C
  C252     1.0000 0.25780  0.43930  0.64382  Biso   1.000  C
  N73      1.0000 0.06156  0.99250  0.91682  Biso   1.000  N
  N74      1.0000 0.06390  0.57140  0.03280  Biso   1.000  N
  N75      1.0000 0.21240  0.57760  0.84329  Biso   1.000  N
  N76      1.0000 0.10110  0.32310  0.95537  Biso   1.000  N
  N77      1.0000 0.13650  0.46870  0.93727  Biso   1.000  N
  N78      1.0000 0.13583  0.32590  0.90826  Biso   1.000  N
  N79      1.0000 0.23825  0.57590  0.77432  Biso   1.000  N
  N80      1.0000 0.03584  0.39670  0.60947  Biso   1.000  N
  N81      1.0000 0.38773  0.39240  0.59434  Biso   1.000  N
  N82      1.0000 0.17727  0.46450  0.67627  Biso   1.000  N
  N83      1.0000 0.21491  0.42820  0.63059  Biso   1.000  N
  N84      1.0000 0.26412  0.46210  0.67191  Biso   1.000  N
  Zn22     1.0000 0.25367  0.34340  0.31144  Biso   1.000  Zn
  Zn23     1.0000 0.46981  0.14159  0.40931  Biso   1.000  Zn
  Zn24     1.0000 0.45118  0.36030  0.57199  Biso   1.000  Zn
  I43      1.0000 0.16273  0.32887  0.32277  Biso   1.000  I
  I44      1.0000 0.30526  0.18953  0.30406  Biso   1.000  I
  I45      1.0000 0.42230  0.22549  0.36902  Biso   1.000  I
  I46      1.0000 0.48506  0.22111  0.45869  Biso   1.000  I
  I47      1.0000 0.45111  0.17661  0.56424  Biso   1.000  I
  I48      1.0000 0.51768  0.45544  0.59831  Biso   1.000  I
  C253     1.0000 0.42750  0.95030  0.39393  Biso   1.000  C
  H169     1.0000 0.43190  0.97510  0.37480  Biso   1.000  H
  C254     1.0000 0.41010  0.85690  0.39746  Biso   1.000  C
  H170     1.0000 0.40300  0.81760  0.38090  Biso   1.000  H
  C255     1.0000 0.43110  0.97370  0.44364  Biso   1.000  C
  H171     1.0000 0.43740  0.01520  0.45980  Biso   1.000  H
  C256     1.0000 0.41440  0.87960  0.44863  Biso   1.000  C
  H172     1.0000 0.41090  0.85600  0.46800  Biso   1.000  H
  C257     1.0000 0.40300  0.82050  0.42520  Biso   1.000  C
  C258     1.0000 0.38680  0.71850  0.43015  Biso   1.000  C
  C259     1.0000 0.44790  0.52270  0.52865  Biso   1.000  C
  H173     1.0000 0.46750  0.55490  0.54280  Biso   1.000  H
  C260     1.0000 0.43270  0.57360  0.50472  Biso   1.000  C
  H174     1.0000 0.44190  0.64000  0.50240  Biso   1.000  H
  C261     1.0000 0.40950  0.38370  0.51220  Biso   1.000  C
  H175     1.0000 0.40220  0.31640  0.51460  Biso   1.000  H
  C262     1.0000 0.39230  0.43110  0.48759  Biso   1.000  C
  H176     1.0000 0.37290  0.39740  0.47360  Biso   1.000  H
  C263     1.0000 0.40390  0.52880  0.48373  Biso   1.000  C
  C264     1.0000 0.38730  0.58200  0.45729  Biso   1.000  C
  C265     1.0000 0.30920  0.37610  0.36574  Biso   1.000  C
  H177     1.0000 0.31040  0.30680  0.36570  Biso   1.000  H
  C266     1.0000 0.32970  0.42590  0.38881  Biso   1.000  C
  H178     1.0000 0.34390  0.39110  0.40460  Biso   1.000  H
  C267     1.0000 0.28740  0.51970  0.34345  Biso   1.000  C
  H179     1.0000 0.27230  0.55300  0.32760  Biso   1.000  H
  C268     1.0000 0.30810  0.57390  0.36555  Biso   1.000  C
  H180     1.0000 0.30750  0.64320  0.36480  Biso   1.000  H
  C269     1.0000 0.32960  0.52660  0.38878  Biso   1.000  C
  C270     1.0000 0.35310  0.58090  0.41279  Biso   1.000  C
  C271     1.0000 0.22290  0.45530  0.25895  Biso   1.000  C
  H181     1.0000 0.19150  0.45330  0.26790  Biso   1.000  H
  C272     1.0000 0.22660  0.49030  0.23072  Biso   1.000  C
  H182     1.0000 0.19820  0.51080  0.22040  Biso   1.000  H
  C273     1.0000 0.30600  0.43290  0.26227  Biso   1.000  C
  H183     1.0000 0.33390  0.41440  0.27330  Biso   1.000  H
  C274     1.0000 0.31270  0.46800  0.23412  Biso   1.000  C
  H184     1.0000 0.34480  0.47350  0.22620  Biso   1.000  H
  C275     1.0000 0.27240  0.49480  0.21788  Biso   1.000  C
  C276     1.0000 0.27750  0.52560  0.18712  Biso   1.000  C
  C277     1.0000 0.45950  0.58910  0.13783  Biso   1.000  C
  H185     1.0000 0.48820  0.59110  0.14960  Biso   1.000  H
  C278     1.0000 0.41480  0.57140  0.15126  Biso   1.000  C
  H186     1.0000 0.41310  0.55940  0.17170  Biso   1.000  H
  C279     1.0000 0.42360  0.60000  0.09298  Biso   1.000  C
  H187     1.0000 0.42670  0.60780  0.07250  Biso   1.000  H
  C280     1.0000 0.37750  0.58580  0.10462  Biso   1.000  C
  H188     1.0000 0.34950  0.58580  0.09230  Biso   1.000  H
  C281     1.0000 0.37260  0.57150  0.13435  Biso   1.000  C
  C282     1.0000 0.32410  0.55920  0.14802  Biso   1.000  C
  C283     1.0000 0.15660  0.61700  0.08229  Biso   1.000  C
  H189     1.0000 0.15850  0.63570  0.06240  Biso   1.000  H
  C284     1.0000 0.19940  0.60120  0.09723  Biso   1.000  C
  H190     1.0000 0.23010  0.60790  0.08770  Biso   1.000  H
  C285     1.0000 0.11030  0.58050  0.12265  Biso   1.000  C
  H191     1.0000 0.07910  0.57170  0.13140  Biso   1.000  H
  C286     1.0000 0.15140  0.56520  0.13932  Biso   1.000  C
  H192     1.0000 0.14870  0.54790  0.15930  Biso   1.000  H
  C287     1.0000 0.19700  0.57550  0.12630  Biso   1.000  C
  C288     1.0000 0.24220  0.56070  0.14382  Biso   1.000  C
  N85      1.0000 0.43844  0.00750  0.41682  Biso   1.000  N
  N86      1.0000 0.43610  0.42860  0.53280  Biso   1.000  N
  N87      1.0000 0.28760  0.42240  0.34329  Biso   1.000  N
  N88      1.0000 0.39890  0.67690  0.45537  Biso   1.000  N
  N89      1.0000 0.36350  0.53130  0.43727  Biso   1.000  N
  N90      1.0000 0.36417  0.67410  0.40826  Biso   1.000  N
  N91      1.0000 0.26175  0.42410  0.27432  Biso   1.000  N
  N92      1.0000 0.46416  0.60330  0.10947  Biso   1.000  N
  N93      1.0000 0.11227  0.60760  0.09434  Biso   1.000  N
  N94      1.0000 0.32273  0.53550  0.17627  Biso   1.000  N
  N95      1.0000 0.28509  0.57180  0.13059  Biso   1.000  N
  N96      1.0000 0.23588  0.53790  0.17191  Biso   1.000  N
