data_image0
_cell_length_a       26.306
_cell_length_b       49.555
_cell_length_c       10.7101
_cell_angle_alpha    90
_cell_angle_beta     90
_cell_angle_gamma    90

_symmetry_space_group_name_H-M    "P 1"
_symmetry_int_tables_number       1

loop_
  _symmetry_equiv_pos_as_xyz
  'x, y, z'

loop_
  _atom_site_label
  _atom_site_occupancy
  _atom_site_fract_x
  _atom_site_fract_y
  _atom_site_fract_z
  _atom_site_thermal_displace_type
  _atom_site_B_iso_or_equiv
  _atom_site_type_symbol
  Ag1      1.0000 0.28576  0.17241  0.01789  Biso   1.000  Ag
  Ag2      1.0000 0.39603  0.25721  0.60510  Biso   1.000  Ag
  Ag3      1.0000 0.51900  0.15621  0.81402  Biso   1.000  Ag
  P1       1.0000 0.34624  0.21591  0.81282  Biso   1.000  P
  N1       1.0000 0.34885  0.18606  0.87230  Biso   1.000  N
  P2       1.0000 0.39384  0.16579  0.83328  Biso   1.000  P
  N2       1.0000 0.40042  0.22522  0.75130  Biso   1.000  N
  P3       1.0000 0.45472  0.21117  0.78059  Biso   1.000  P
  N3       1.0000 0.44835  0.18083  0.83240  Biso   1.000  N
  N4       1.0000 0.32380  0.23531  0.92360  Biso   1.000  N
  H1       1.0000 0.30260  0.24840  0.90400  Biso   1.000  H
  C1       1.0000 0.33810  0.23154  0.05340  Biso   1.000  C
  H2       1.0000 0.34460  0.24950  0.09090  Biso   1.000  H
  H3       1.0000 0.37020  0.22120  0.05640  Biso   1.000  H
  C2       1.0000 0.29920  0.21717  0.13150  Biso   1.000  C
  H4       1.0000 0.31040  0.20950  0.20790  Biso   1.000  H
  C3       1.0000 0.25170  0.21448  0.10300  Biso   1.000  C
  H5       1.0000 0.23900  0.22190  0.02730  Biso   1.000  H
  H6       1.0000 0.22940  0.20510  0.15760  Biso   1.000  H
  N5       1.0000 0.39290  0.14095  0.93200  Biso   1.000  N
  H7       1.0000 0.39180  0.12430  0.90380  Biso   1.000  H
  C4       1.0000 0.39390  0.14569  0.06810  Biso   1.000  C
  H8       1.0000 0.40540  0.16440  0.08430  Biso   1.000  H
  H9       1.0000 0.41890  0.13330  0.10690  Biso   1.000  H
  C5       1.0000 0.34270  0.14146  0.12840  Biso   1.000  C
  H10      1.0000 0.33770  0.15010  0.20660  Biso   1.000  H
  C6       1.0000 0.30460  0.12752  0.08690  Biso   1.000  C
  H11      1.0000 0.30720  0.11840  0.00920  Biso   1.000  H
  H12      1.0000 0.27410  0.12640  0.13410  Biso   1.000  H
  N6       1.0000 0.49251  0.22579  0.88110  Biso   1.000  N
  H13      1.0000 0.51540  0.23720  0.85300  Biso   1.000  H
  C7       1.0000 0.49020  0.22079  0.01450  Biso   1.000  C
  H14      1.0000 0.46220  0.20790  0.03130  Biso   1.000  H
  H15      1.0000 0.48180  0.23790  0.05740  Biso   1.000  H
  C8       1.0000 0.53890  0.20958  0.07040  Biso   1.000  C
  H16      1.0000 0.53940  0.20680  0.15810  Biso   1.000  H
  C9       1.0000 0.58070  0.20339  0.00710  Biso   1.000  C
  H17      1.0000 0.58180  0.20590  0.91920  Biso   1.000  H
  H18      1.0000 0.60950  0.19650  0.04980  Biso   1.000  H
  N7       1.0000 0.30400  0.22064  0.70260  Biso   1.000  N
  H19      1.0000 0.27540  0.22900  0.71990  Biso   1.000  H
  C10      1.0000 0.31360  0.21104  0.57530  Biso   1.000  C
  H20      1.0000 0.28370  0.20070  0.54660  Biso   1.000  H
  H21      1.0000 0.34300  0.19860  0.57700  Biso   1.000  H
  C11      1.0000 0.32430  0.23327  0.48210  Biso   1.000  C
  H22      1.0000 0.34120  0.22850  0.40680  Biso   1.000  H
  C12      1.0000 0.31160  0.25963  0.49880  Biso   1.000  C
  H23      1.0000 0.29470  0.26510  0.57300  Biso   1.000  H
  H24      1.0000 0.31950  0.27250  0.43620  Biso   1.000  H
  N8       1.0000 0.38510  0.15383  0.69370  Biso   1.000  N
  H25      1.0000 0.41130  0.15340  0.64300  Biso   1.000  H
  C13      1.0000 0.33590  0.14371  0.64640  Biso   1.000  C
  H26      1.0000 0.33810  0.14130  0.55480  Biso   1.000  H
  H27      1.0000 0.30910  0.15720  0.66380  Biso   1.000  H
  C14      1.0000 0.32190  0.11747  0.70580  Biso   1.000  C
  H28      1.0000 0.34570  0.10310  0.70160  Biso   1.000  H
  C15      1.0000 0.27850  0.11316  0.76340  Biso   1.000  C
  H29      1.0000 0.25400  0.12720  0.76910  Biso   1.000  H
  H30      1.0000 0.27170  0.09600  0.79940  Biso   1.000  H
  N9       1.0000 0.48580  0.21506  0.64890  Biso   1.000  N
  H31      1.0000 0.47050  0.22330  0.58660  Biso   1.000  H
  C16      1.0000 0.53820  0.20527  0.63070  Biso   1.000  C
  H32      1.0000 0.55900  0.21120  0.70260  Biso   1.000  H
  H33      1.0000 0.55230  0.21390  0.55490  Biso   1.000  H
  C17      1.0000 0.54340  0.17507  0.61730  Biso   1.000  C
  H34      1.0000 0.51650  0.16560  0.57740  Biso   1.000  H
  C18      1.0000 0.58270  0.16091  0.65720  Biso   1.000  C
  H35      1.0000 0.61030  0.16970  0.69750  Biso   1.000  H
  H36      1.0000 0.58350  0.14190  0.64560  Biso   1.000  H
  Ag4      1.0000 0.28576  0.67241  0.51789  Biso   1.000  Ag
  Ag5      1.0000 0.39603  0.75721  0.10510  Biso   1.000  Ag
  Ag6      1.0000 0.51900  0.65621  0.31402  Biso   1.000  Ag
  P4       1.0000 0.34624  0.71591  0.31282  Biso   1.000  P
  N10      1.0000 0.34885  0.68606  0.37230  Biso   1.000  N
  P5       1.0000 0.39384  0.66579  0.33328  Biso   1.000  P
  N11      1.0000 0.40042  0.72522  0.25130  Biso   1.000  N
  P6       1.0000 0.45472  0.71117  0.28059  Biso   1.000  P
  N12      1.0000 0.44835  0.68083  0.33240  Biso   1.000  N
  N13      1.0000 0.32380  0.73531  0.42360  Biso   1.000  N
  H37      1.0000 0.30260  0.74840  0.40400  Biso   1.000  H
  C19      1.0000 0.33810  0.73154  0.55340  Biso   1.000  C
  H38      1.0000 0.34460  0.74950  0.59090  Biso   1.000  H
  H39      1.0000 0.37020  0.72120  0.55640  Biso   1.000  H
  C20      1.0000 0.29920  0.71717  0.63150  Biso   1.000  C
  H40      1.0000 0.31040  0.70950  0.70790  Biso   1.000  H
  C21      1.0000 0.25170  0.71448  0.60300  Biso   1.000  C
  H41      1.0000 0.23900  0.72190  0.52730  Biso   1.000  H
  H42      1.0000 0.22940  0.70510  0.65760  Biso   1.000  H
  N14      1.0000 0.39290  0.64095  0.43200  Biso   1.000  N
  H43      1.0000 0.39180  0.62430  0.40380  Biso   1.000  H
  C22      1.0000 0.39390  0.64569  0.56810  Biso   1.000  C
  H44      1.0000 0.40540  0.66440  0.58430  Biso   1.000  H
  H45      1.0000 0.41890  0.63330  0.60690  Biso   1.000  H
  C23      1.0000 0.34270  0.64146  0.62840  Biso   1.000  C
  H46      1.0000 0.33770  0.65010  0.70660  Biso   1.000  H
  C24      1.0000 0.30460  0.62752  0.58690  Biso   1.000  C
  H47      1.0000 0.30720  0.61840  0.50920  Biso   1.000  H
  H48      1.0000 0.27410  0.62640  0.63410  Biso   1.000  H
  N15      1.0000 0.49251  0.72579  0.38110  Biso   1.000  N
  H49      1.0000 0.51540  0.73720  0.35300  Biso   1.000  H
  C25      1.0000 0.49020  0.72079  0.51450  Biso   1.000  C
  H50      1.0000 0.46220  0.70790  0.53130  Biso   1.000  H
  H51      1.0000 0.48180  0.73790  0.55740  Biso   1.000  H
  C26      1.0000 0.53890  0.70958  0.57040  Biso   1.000  C
  H52      1.0000 0.53940  0.70680  0.65810  Biso   1.000  H
  C27      1.0000 0.58070  0.70339  0.50710  Biso   1.000  C
  H53      1.0000 0.58180  0.70590  0.41920  Biso   1.000  H
  H54      1.0000 0.60950  0.69650  0.54980  Biso   1.000  H
  N16      1.0000 0.30400  0.72064  0.20260  Biso   1.000  N
  H55      1.0000 0.27540  0.72900  0.21990  Biso   1.000  H
  C28      1.0000 0.31360  0.71104  0.07530  Biso   1.000  C
  H56      1.0000 0.28370  0.70070  0.04660  Biso   1.000  H
  H57      1.0000 0.34300  0.69860  0.07700  Biso   1.000  H
  C29      1.0000 0.32430  0.73327  0.98210  Biso   1.000  C
  H58      1.0000 0.34120  0.72850  0.90680  Biso   1.000  H
  C30      1.0000 0.31160  0.75963  0.99880  Biso   1.000  C
  H59      1.0000 0.29470  0.76510  0.07300  Biso   1.000  H
  H60      1.0000 0.31950  0.77250  0.93620  Biso   1.000  H
  N17      1.0000 0.38510  0.65383  0.19370  Biso   1.000  N
  H61      1.0000 0.41130  0.65340  0.14300  Biso   1.000  H
  C31      1.0000 0.33590  0.64371  0.14640  Biso   1.000  C
  H62      1.0000 0.33810  0.64130  0.05480  Biso   1.000  H
  H63      1.0000 0.30910  0.65720  0.16380  Biso   1.000  H
  C32      1.0000 0.32190  0.61747  0.20580  Biso   1.000  C
  H64      1.0000 0.34570  0.60310  0.20160  Biso   1.000  H
  C33      1.0000 0.27850  0.61316  0.26340  Biso   1.000  C
  H65      1.0000 0.25400  0.62720  0.26910  Biso   1.000  H
  H66      1.0000 0.27170  0.59600  0.29940  Biso   1.000  H
  N18      1.0000 0.48580  0.71506  0.14890  Biso   1.000  N
  H67      1.0000 0.47050  0.72330  0.08660  Biso   1.000  H
  C34      1.0000 0.53820  0.70527  0.13070  Biso   1.000  C
  H68      1.0000 0.55900  0.71120  0.20260  Biso   1.000  H
  H69      1.0000 0.55230  0.71390  0.05490  Biso   1.000  H
  C35      1.0000 0.54340  0.67507  0.11730  Biso   1.000  C
  H70      1.0000 0.51650  0.66560  0.07740  Biso   1.000  H
  C36      1.0000 0.58270  0.66091  0.15720  Biso   1.000  C
  H71      1.0000 0.61030  0.66970  0.19750  Biso   1.000  H
  H72      1.0000 0.58350  0.64190  0.14560  Biso   1.000  H
  Ag7      1.0000 0.78576  0.17241  0.51789  Biso   1.000  Ag
  Ag8      1.0000 0.89603  0.25721  0.10510  Biso   1.000  Ag
  Ag9      1.0000 0.01900  0.15621  0.31402  Biso   1.000  Ag
  P7       1.0000 0.84624  0.21591  0.31282  Biso   1.000  P
  N19      1.0000 0.84885  0.18606  0.37230  Biso   1.000  N
  P8       1.0000 0.89384  0.16579  0.33328  Biso   1.000  P
  N20      1.0000 0.90042  0.22522  0.25130  Biso   1.000  N
  P9       1.0000 0.95472  0.21117  0.28059  Biso   1.000  P
  N21      1.0000 0.94835  0.18083  0.33240  Biso   1.000  N
  N22      1.0000 0.82380  0.23531  0.42360  Biso   1.000  N
  H73      1.0000 0.80260  0.24840  0.40400  Biso   1.000  H
  C37      1.0000 0.83810  0.23154  0.55340  Biso   1.000  C
  H74      1.0000 0.84460  0.24950  0.59090  Biso   1.000  H
  H75      1.0000 0.87020  0.22120  0.55640  Biso   1.000  H
  C38      1.0000 0.79920  0.21717  0.63150  Biso   1.000  C
  H76      1.0000 0.81040  0.20950  0.70790  Biso   1.000  H
  C39      1.0000 0.75170  0.21448  0.60300  Biso   1.000  C
  H77      1.0000 0.73900  0.22190  0.52730  Biso   1.000  H
  H78      1.0000 0.72940  0.20510  0.65760  Biso   1.000  H
  N23      1.0000 0.89290  0.14095  0.43200  Biso   1.000  N
  H79      1.0000 0.89180  0.12430  0.40380  Biso   1.000  H
  C40      1.0000 0.89390  0.14569  0.56810  Biso   1.000  C
  H80      1.0000 0.90540  0.16440  0.58430  Biso   1.000  H
  H81      1.0000 0.91890  0.13330  0.60690  Biso   1.000  H
  C41      1.0000 0.84270  0.14146  0.62840  Biso   1.000  C
  H82      1.0000 0.83770  0.15010  0.70660  Biso   1.000  H
  C42      1.0000 0.80460  0.12752  0.58690  Biso   1.000  C
  H83      1.0000 0.80720  0.11840  0.50920  Biso   1.000  H
  H84      1.0000 0.77410  0.12640  0.63410  Biso   1.000  H
  N24      1.0000 0.99251  0.22579  0.38110  Biso   1.000  N
  H85      1.0000 0.01540  0.23720  0.35300  Biso   1.000  H
  C43      1.0000 0.99020  0.22079  0.51450  Biso   1.000  C
  H86      1.0000 0.96220  0.20790  0.53130  Biso   1.000  H
  H87      1.0000 0.98180  0.23790  0.55740  Biso   1.000  H
  C44      1.0000 0.03890  0.20958  0.57040  Biso   1.000  C
  H88      1.0000 0.03940  0.20680  0.65810  Biso   1.000  H
  C45      1.0000 0.08070  0.20339  0.50710  Biso   1.000  C
  H89      1.0000 0.08180  0.20590  0.41920  Biso   1.000  H
  H90      1.0000 0.10950  0.19650  0.54980  Biso   1.000  H
  N25      1.0000 0.80400  0.22064  0.20260  Biso   1.000  N
  H91      1.0000 0.77540  0.22900  0.21990  Biso   1.000  H
  C46      1.0000 0.81360  0.21104  0.07530  Biso   1.000  C
  H92      1.0000 0.78370  0.20070  0.04660  Biso   1.000  H
  H93      1.0000 0.84300  0.19860  0.07700  Biso   1.000  H
  C47      1.0000 0.82430  0.23327  0.98210  Biso   1.000  C
  H94      1.0000 0.84120  0.22850  0.90680  Biso   1.000  H
  C48      1.0000 0.81160  0.25963  0.99880  Biso   1.000  C
  H95      1.0000 0.79470  0.26510  0.07300  Biso   1.000  H
  H96      1.0000 0.81950  0.27250  0.93620  Biso   1.000  H
  N26      1.0000 0.88510  0.15383  0.19370  Biso   1.000  N
  H97      1.0000 0.91130  0.15340  0.14300  Biso   1.000  H
  C49      1.0000 0.83590  0.14371  0.14640  Biso   1.000  C
  H98      1.0000 0.83810  0.14130  0.05480  Biso   1.000  H
  H99      1.0000 0.80910  0.15720  0.16380  Biso   1.000  H
  C50      1.0000 0.82190  0.11747  0.20580  Biso   1.000  C
  H100     1.0000 0.84570  0.10310  0.20160  Biso   1.000  H
  C51      1.0000 0.77850  0.11316  0.26340  Biso   1.000  C
  H101     1.0000 0.75400  0.12720  0.26910  Biso   1.000  H
  H102     1.0000 0.77170  0.09600  0.29940  Biso   1.000  H
  N27      1.0000 0.98580  0.21506  0.14890  Biso   1.000  N
  H103     1.0000 0.97050  0.22330  0.08660  Biso   1.000  H
  C52      1.0000 0.03820  0.20527  0.13070  Biso   1.000  C
  H104     1.0000 0.05900  0.21120  0.20260  Biso   1.000  H
  H105     1.0000 0.05230  0.21390  0.05490  Biso   1.000  H
  C53      1.0000 0.04340  0.17507  0.11730  Biso   1.000  C
  H106     1.0000 0.01650  0.16560  0.07740  Biso   1.000  H
  C54      1.0000 0.08270  0.16091  0.15720  Biso   1.000  C
  H107     1.0000 0.11030  0.16970  0.19750  Biso   1.000  H
  H108     1.0000 0.08350  0.14190  0.14560  Biso   1.000  H
  Ag10     1.0000 0.78576  0.67241  0.01789  Biso   1.000  Ag
  Ag11     1.0000 0.89603  0.75721  0.60510  Biso   1.000  Ag
  Ag12     1.0000 0.01900  0.65621  0.81402  Biso   1.000  Ag
  P10      1.0000 0.84624  0.71591  0.81282  Biso   1.000  P
  N28      1.0000 0.84885  0.68606  0.87230  Biso   1.000  N
  P11      1.0000 0.89384  0.66579  0.83328  Biso   1.000  P
  N29      1.0000 0.90042  0.72522  0.75130  Biso   1.000  N
  P12      1.0000 0.95472  0.71117  0.78059  Biso   1.000  P
  N30      1.0000 0.94835  0.68083  0.83240  Biso   1.000  N
  N31      1.0000 0.82380  0.73531  0.92360  Biso   1.000  N
  H109     1.0000 0.80260  0.74840  0.90400  Biso   1.000  H
  C55      1.0000 0.83810  0.73154  0.05340  Biso   1.000  C
  H110     1.0000 0.84460  0.74950  0.09090  Biso   1.000  H
  H111     1.0000 0.87020  0.72120  0.05640  Biso   1.000  H
  C56      1.0000 0.79920  0.71717  0.13150  Biso   1.000  C
  H112     1.0000 0.81040  0.70950  0.20790  Biso   1.000  H
  C57      1.0000 0.75170  0.71448  0.10300  Biso   1.000  C
  H113     1.0000 0.73900  0.72190  0.02730  Biso   1.000  H
  H114     1.0000 0.72940  0.70510  0.15760  Biso   1.000  H
  N32      1.0000 0.89290  0.64095  0.93200  Biso   1.000  N
  H115     1.0000 0.89180  0.62430  0.90380  Biso   1.000  H
  C58      1.0000 0.89390  0.64569  0.06810  Biso   1.000  C
  H116     1.0000 0.90540  0.66440  0.08430  Biso   1.000  H
  H117     1.0000 0.91890  0.63330  0.10690  Biso   1.000  H
  C59      1.0000 0.84270  0.64146  0.12840  Biso   1.000  C
  H118     1.0000 0.83770  0.65010  0.20660  Biso   1.000  H
  C60      1.0000 0.80460  0.62752  0.08690  Biso   1.000  C
  H119     1.0000 0.80720  0.61840  0.00920  Biso   1.000  H
  H120     1.0000 0.77410  0.62640  0.13410  Biso   1.000  H
  N33      1.0000 0.99251  0.72579  0.88110  Biso   1.000  N
  H121     1.0000 0.01540  0.73720  0.85300  Biso   1.000  H
  C61      1.0000 0.99020  0.72079  0.01450  Biso   1.000  C
  H122     1.0000 0.96220  0.70790  0.03130  Biso   1.000  H
  H123     1.0000 0.98180  0.73790  0.05740  Biso   1.000  H
  C62      1.0000 0.03890  0.70958  0.07040  Biso   1.000  C
  H124     1.0000 0.03940  0.70680  0.15810  Biso   1.000  H
  C63      1.0000 0.08070  0.70339  0.00710  Biso   1.000  C
  H125     1.0000 0.08180  0.70590  0.91920  Biso   1.000  H
  H126     1.0000 0.10950  0.69650  0.04980  Biso   1.000  H
  N34      1.0000 0.80400  0.72064  0.70260  Biso   1.000  N
  H127     1.0000 0.77540  0.72900  0.71990  Biso   1.000  H
  C64      1.0000 0.81360  0.71104  0.57530  Biso   1.000  C
  H128     1.0000 0.78370  0.70070  0.54660  Biso   1.000  H
  H129     1.0000 0.84300  0.69860  0.57700  Biso   1.000  H
  C65      1.0000 0.82430  0.73327  0.48210  Biso   1.000  C
  H130     1.0000 0.84120  0.72850  0.40680  Biso   1.000  H
  C66      1.0000 0.81160  0.75963  0.49880  Biso   1.000  C
  H131     1.0000 0.79470  0.76510  0.57300  Biso   1.000  H
  H132     1.0000 0.81950  0.77250  0.43620  Biso   1.000  H
  N35      1.0000 0.88510  0.65383  0.69370  Biso   1.000  N
  H133     1.0000 0.91130  0.65340  0.64300  Biso   1.000  H
  C67      1.0000 0.83590  0.64371  0.64640  Biso   1.000  C
  H134     1.0000 0.83810  0.64130  0.55480  Biso   1.000  H
  H135     1.0000 0.80910  0.65720  0.66380  Biso   1.000  H
  C68      1.0000 0.82190  0.61747  0.70580  Biso   1.000  C
  H136     1.0000 0.84570  0.60310  0.70160  Biso   1.000  H
  C69      1.0000 0.77850  0.61316  0.76340  Biso   1.000  C
  H137     1.0000 0.75400  0.62720  0.76910  Biso   1.000  H
  H138     1.0000 0.77170  0.59600  0.79940  Biso   1.000  H
  N36      1.0000 0.98580  0.71506  0.64890  Biso   1.000  N
  H139     1.0000 0.97050  0.72330  0.58660  Biso   1.000  H
  C70      1.0000 0.03820  0.70527  0.63070  Biso   1.000  C
  H140     1.0000 0.05900  0.71120  0.70260  Biso   1.000  H
  H141     1.0000 0.05230  0.71390  0.55490  Biso   1.000  H
  C71      1.0000 0.04340  0.67507  0.61730  Biso   1.000  C
  H142     1.0000 0.01650  0.66560  0.57740  Biso   1.000  H
  C72      1.0000 0.08270  0.66091  0.65720  Biso   1.000  C
  H143     1.0000 0.11030  0.66970  0.69750  Biso   1.000  H
  H144     1.0000 0.08350  0.64190  0.64560  Biso   1.000  H
  Ag13     1.0000 0.71424  0.82759  0.01789  Biso   1.000  Ag
  Ag14     1.0000 0.60397  0.74279  0.60510  Biso   1.000  Ag
  Ag15     1.0000 0.48100  0.84379  0.81402  Biso   1.000  Ag
  P13      1.0000 0.65376  0.78409  0.81282  Biso   1.000  P
  N37      1.0000 0.65115  0.81394  0.87230  Biso   1.000  N
  P14      1.0000 0.60616  0.83421  0.83328  Biso   1.000  P
  N38      1.0000 0.59958  0.77478  0.75130  Biso   1.000  N
  P15      1.0000 0.54528  0.78883  0.78059  Biso   1.000  P
  N39      1.0000 0.55165  0.81917  0.83240  Biso   1.000  N
  N40      1.0000 0.67620  0.76469  0.92360  Biso   1.000  N
  H145     1.0000 0.69740  0.75160  0.90400  Biso   1.000  H
  C73      1.0000 0.66190  0.76846  0.05340  Biso   1.000  C
  H146     1.0000 0.65540  0.75050  0.09090  Biso   1.000  H
  H147     1.0000 0.62980  0.77880  0.05640  Biso   1.000  H
  C74      1.0000 0.70080  0.78283  0.13150  Biso   1.000  C
  H148     1.0000 0.68960  0.79050  0.20790  Biso   1.000  H
  C75      1.0000 0.74830  0.78552  0.10300  Biso   1.000  C
  H149     1.0000 0.76100  0.77810  0.02730  Biso   1.000  H
  H150     1.0000 0.77060  0.79490  0.15760  Biso   1.000  H
  N41      1.0000 0.60710  0.85905  0.93200  Biso   1.000  N
  H151     1.0000 0.60820  0.87570  0.90380  Biso   1.000  H
  C76      1.0000 0.60610  0.85431  0.06810  Biso   1.000  C
  H152     1.0000 0.59460  0.83560  0.08430  Biso   1.000  H
  H153     1.0000 0.58110  0.86670  0.10690  Biso   1.000  H
  C77      1.0000 0.65730  0.85854  0.12840  Biso   1.000  C
  H154     1.0000 0.66230  0.84990  0.20660  Biso   1.000  H
  C78      1.0000 0.69540  0.87248  0.08690  Biso   1.000  C
  H155     1.0000 0.69280  0.88160  0.00920  Biso   1.000  H
  H156     1.0000 0.72590  0.87360  0.13410  Biso   1.000  H
  N42      1.0000 0.50749  0.77421  0.88110  Biso   1.000  N
  H157     1.0000 0.48460  0.76280  0.85300  Biso   1.000  H
  C79      1.0000 0.50980  0.77921  0.01450  Biso   1.000  C
  H158     1.0000 0.53780  0.79210  0.03130  Biso   1.000  H
  H159     1.0000 0.51820  0.76210  0.05740  Biso   1.000  H
  C80      1.0000 0.46110  0.79042  0.07040  Biso   1.000  C
  H160     1.0000 0.46060  0.79320  0.15810  Biso   1.000  H
  C81      1.0000 0.41930  0.79661  0.00710  Biso   1.000  C
  H161     1.0000 0.41820  0.79410  0.91920  Biso   1.000  H
  H162     1.0000 0.39050  0.80350  0.04980  Biso   1.000  H
  N43      1.0000 0.69600  0.77936  0.70260  Biso   1.000  N
  H163     1.0000 0.72460  0.77100  0.71990  Biso   1.000  H
  C82      1.0000 0.68640  0.78896  0.57530  Biso   1.000  C
  H164     1.0000 0.71630  0.79930  0.54660  Biso   1.000  H
  H165     1.0000 0.65700  0.80140  0.57700  Biso   1.000  H
  C83      1.0000 0.67570  0.76673  0.48210  Biso   1.000  C
  H166     1.0000 0.65880  0.77150  0.40680  Biso   1.000  H
  C84      1.0000 0.68840  0.74037  0.49880  Biso   1.000  C
  H167     1.0000 0.70530  0.73490  0.57300  Biso   1.000  H
  H168     1.0000 0.68050  0.72750  0.43620  Biso   1.000  H
  N44      1.0000 0.61490  0.84617  0.69370  Biso   1.000  N
  H169     1.0000 0.58870  0.84660  0.64300  Biso   1.000  H
  C85      1.0000 0.66410  0.85629  0.64640  Biso   1.000  C
  H170     1.0000 0.66190  0.85870  0.55480  Biso   1.000  H
  H171     1.0000 0.69090  0.84280  0.66380  Biso   1.000  H
  C86      1.0000 0.67810  0.88253  0.70580  Biso   1.000  C
  H172     1.0000 0.65430  0.89690  0.70160  Biso   1.000  H
  C87      1.0000 0.72150  0.88684  0.76340  Biso   1.000  C
  H173     1.0000 0.74600  0.87280  0.76910  Biso   1.000  H
  H174     1.0000 0.72830  0.90400  0.79940  Biso   1.000  H
  N45      1.0000 0.51420  0.78494  0.64890  Biso   1.000  N
  H175     1.0000 0.52950  0.77670  0.58660  Biso   1.000  H
  C88      1.0000 0.46180  0.79473  0.63070  Biso   1.000  C
  H176     1.0000 0.44100  0.78880  0.70260  Biso   1.000  H
  H177     1.0000 0.44770  0.78610  0.55490  Biso   1.000  H
  C89      1.0000 0.45660  0.82493  0.61730  Biso   1.000  C
  H178     1.0000 0.48350  0.83440  0.57740  Biso   1.000  H
  C90      1.0000 0.41730  0.83909  0.65720  Biso   1.000  C
  H179     1.0000 0.38970  0.83030  0.69750  Biso   1.000  H
  H180     1.0000 0.41650  0.85810  0.64560  Biso   1.000  H
  Ag16     1.0000 0.71424  0.32759  0.51789  Biso   1.000  Ag
  Ag17     1.0000 0.60397  0.24279  0.10510  Biso   1.000  Ag
  Ag18     1.0000 0.48100  0.34379  0.31402  Biso   1.000  Ag
  P16      1.0000 0.65376  0.28409  0.31282  Biso   1.000  P
  N46      1.0000 0.65115  0.31394  0.37230  Biso   1.000  N
  P17      1.0000 0.60616  0.33421  0.33328  Biso   1.000  P
  N47      1.0000 0.59958  0.27478  0.25130  Biso   1.000  N
  P18      1.0000 0.54528  0.28883  0.28059  Biso   1.000  P
  N48      1.0000 0.55165  0.31917  0.33240  Biso   1.000  N
  N49      1.0000 0.67620  0.26469  0.42360  Biso   1.000  N
  H181     1.0000 0.69740  0.25160  0.40400  Biso   1.000  H
  C91      1.0000 0.66190  0.26846  0.55340  Biso   1.000  C
  H182     1.0000 0.65540  0.25050  0.59090  Biso   1.000  H
  H183     1.0000 0.62980  0.27880  0.55640  Biso   1.000  H
  C92      1.0000 0.70080  0.28283  0.63150  Biso   1.000  C
  H184     1.0000 0.68960  0.29050  0.70790  Biso   1.000  H
  C93      1.0000 0.74830  0.28552  0.60300  Biso   1.000  C
  H185     1.0000 0.76100  0.27810  0.52730  Biso   1.000  H
  H186     1.0000 0.77060  0.29490  0.65760  Biso   1.000  H
  N50      1.0000 0.60710  0.35905  0.43200  Biso   1.000  N
  H187     1.0000 0.60820  0.37570  0.40380  Biso   1.000  H
  C94      1.0000 0.60610  0.35431  0.56810  Biso   1.000  C
  H188     1.0000 0.59460  0.33560  0.58430  Biso   1.000  H
  H189     1.0000 0.58110  0.36670  0.60690  Biso   1.000  H
  C95      1.0000 0.65730  0.35854  0.62840  Biso   1.000  C
  H190     1.0000 0.66230  0.34990  0.70660  Biso   1.000  H
  C96      1.0000 0.69540  0.37248  0.58690  Biso   1.000  C
  H191     1.0000 0.69280  0.38160  0.50920  Biso   1.000  H
  H192     1.0000 0.72590  0.37360  0.63410  Biso   1.000  H
  N51      1.0000 0.50749  0.27421  0.38110  Biso   1.000  N
  H193     1.0000 0.48460  0.26280  0.35300  Biso   1.000  H
  C97      1.0000 0.50980  0.27921  0.51450  Biso   1.000  C
  H194     1.0000 0.53780  0.29210  0.53130  Biso   1.000  H
  H195     1.0000 0.51820  0.26210  0.55740  Biso   1.000  H
  C98      1.0000 0.46110  0.29042  0.57040  Biso   1.000  C
  H196     1.0000 0.46060  0.29320  0.65810  Biso   1.000  H
  C99      1.0000 0.41930  0.29661  0.50710  Biso   1.000  C
  H197     1.0000 0.41820  0.29410  0.41920  Biso   1.000  H
  H198     1.0000 0.39050  0.30350  0.54980  Biso   1.000  H
  N52      1.0000 0.69600  0.27936  0.20260  Biso   1.000  N
  H199     1.0000 0.72460  0.27100  0.21990  Biso   1.000  H
  C100     1.0000 0.68640  0.28896  0.07530  Biso   1.000  C
  H200     1.0000 0.71630  0.29930  0.04660  Biso   1.000  H
  H201     1.0000 0.65700  0.30140  0.07700  Biso   1.000  H
  C101     1.0000 0.67570  0.26673  0.98210  Biso   1.000  C
  H202     1.0000 0.65880  0.27150  0.90680  Biso   1.000  H
  C102     1.0000 0.68840  0.24037  0.99880  Biso   1.000  C
  H203     1.0000 0.70530  0.23490  0.07300  Biso   1.000  H
  H204     1.0000 0.68050  0.22750  0.93620  Biso   1.000  H
  N53      1.0000 0.61490  0.34617  0.19370  Biso   1.000  N
  H205     1.0000 0.58870  0.34660  0.14300  Biso   1.000  H
  C103     1.0000 0.66410  0.35629  0.14640  Biso   1.000  C
  H206     1.0000 0.66190  0.35870  0.05480  Biso   1.000  H
  H207     1.0000 0.69090  0.34280  0.16380  Biso   1.000  H
  C104     1.0000 0.67810  0.38253  0.20580  Biso   1.000  C
  H208     1.0000 0.65430  0.39690  0.20160  Biso   1.000  H
  C105     1.0000 0.72150  0.38684  0.26340  Biso   1.000  C
  H209     1.0000 0.74600  0.37280  0.26910  Biso   1.000  H
  H210     1.0000 0.72830  0.40400  0.29940  Biso   1.000  H
  N54      1.0000 0.51420  0.28494  0.14890  Biso   1.000  N
  H211     1.0000 0.52950  0.27670  0.08660  Biso   1.000  H
  C106     1.0000 0.46180  0.29473  0.13070  Biso   1.000  C
  H212     1.0000 0.44100  0.28880  0.20260  Biso   1.000  H
  H213     1.0000 0.44770  0.28610  0.05490  Biso   1.000  H
  C107     1.0000 0.45660  0.32493  0.11730  Biso   1.000  C
  H214     1.0000 0.48350  0.33440  0.07740  Biso   1.000  H
  C108     1.0000 0.41730  0.33909  0.15720  Biso   1.000  C
  H215     1.0000 0.38970  0.33030  0.19750  Biso   1.000  H
  H216     1.0000 0.41650  0.35810  0.14560  Biso   1.000  H
  Ag19     1.0000 0.21424  0.82759  0.51789  Biso   1.000  Ag
  Ag20     1.0000 0.10397  0.74279  0.10510  Biso   1.000  Ag
  Ag21     1.0000 0.98100  0.84379  0.31402  Biso   1.000  Ag
  P19      1.0000 0.15376  0.78409  0.31282  Biso   1.000  P
  N55      1.0000 0.15115  0.81394  0.37230  Biso   1.000  N
  P20      1.0000 0.10616  0.83421  0.33328  Biso   1.000  P
  N56      1.0000 0.09958  0.77478  0.25130  Biso   1.000  N
  P21      1.0000 0.04528  0.78883  0.28059  Biso   1.000  P
  N57      1.0000 0.05165  0.81917  0.33240  Biso   1.000  N
  N58      1.0000 0.17620  0.76469  0.42360  Biso   1.000  N
  H217     1.0000 0.19740  0.75160  0.40400  Biso   1.000  H
  C109     1.0000 0.16190  0.76846  0.55340  Biso   1.000  C
  H218     1.0000 0.15540  0.75050  0.59090  Biso   1.000  H
  H219     1.0000 0.12980  0.77880  0.55640  Biso   1.000  H
  C110     1.0000 0.20080  0.78283  0.63150  Biso   1.000  C
  H220     1.0000 0.18960  0.79050  0.70790  Biso   1.000  H
  C111     1.0000 0.24830  0.78552  0.60300  Biso   1.000  C
  H221     1.0000 0.26100  0.77810  0.52730  Biso   1.000  H
  H222     1.0000 0.27060  0.79490  0.65760  Biso   1.000  H
  N59      1.0000 0.10710  0.85905  0.43200  Biso   1.000  N
  H223     1.0000 0.10820  0.87570  0.40380  Biso   1.000  H
  C112     1.0000 0.10610  0.85431  0.56810  Biso   1.000  C
  H224     1.0000 0.09460  0.83560  0.58430  Biso   1.000  H
  H225     1.0000 0.08110  0.86670  0.60690  Biso   1.000  H
  C113     1.0000 0.15730  0.85854  0.62840  Biso   1.000  C
  H226     1.0000 0.16230  0.84990  0.70660  Biso   1.000  H
  C114     1.0000 0.19540  0.87248  0.58690  Biso   1.000  C
  H227     1.0000 0.19280  0.88160  0.50920  Biso   1.000  H
  H228     1.0000 0.22590  0.87360  0.63410  Biso   1.000  H
  N60      1.0000 0.00749  0.77421  0.38110  Biso   1.000  N
  H229     1.0000 0.98460  0.76280  0.35300  Biso   1.000  H
  C115     1.0000 0.00980  0.77921  0.51450  Biso   1.000  C
  H230     1.0000 0.03780  0.79210  0.53130  Biso   1.000  H
  H231     1.0000 0.01820  0.76210  0.55740  Biso   1.000  H
  C116     1.0000 0.96110  0.79042  0.57040  Biso   1.000  C
  H232     1.0000 0.96060  0.79320  0.65810  Biso   1.000  H
  C117     1.0000 0.91930  0.79661  0.50710  Biso   1.000  C
  H233     1.0000 0.91820  0.79410  0.41920  Biso   1.000  H
  H234     1.0000 0.89050  0.80350  0.54980  Biso   1.000  H
  N61      1.0000 0.19600  0.77936  0.20260  Biso   1.000  N
  H235     1.0000 0.22460  0.77100  0.21990  Biso   1.000  H
  C118     1.0000 0.18640  0.78896  0.07530  Biso   1.000  C
  H236     1.0000 0.21630  0.79930  0.04660  Biso   1.000  H
  H237     1.0000 0.15700  0.80140  0.07700  Biso   1.000  H
  C119     1.0000 0.17570  0.76673  0.98210  Biso   1.000  C
  H238     1.0000 0.15880  0.77150  0.90680  Biso   1.000  H
  C120     1.0000 0.18840  0.74037  0.99880  Biso   1.000  C
  H239     1.0000 0.20530  0.73490  0.07300  Biso   1.000  H
  H240     1.0000 0.18050  0.72750  0.93620  Biso   1.000  H
  N62      1.0000 0.11490  0.84617  0.19370  Biso   1.000  N
  H241     1.0000 0.08870  0.84660  0.14300  Biso   1.000  H
  C121     1.0000 0.16410  0.85629  0.14640  Biso   1.000  C
  H242     1.0000 0.16190  0.85870  0.05480  Biso   1.000  H
  H243     1.0000 0.19090  0.84280  0.16380  Biso   1.000  H
  C122     1.0000 0.17810  0.88253  0.20580  Biso   1.000  C
  H244     1.0000 0.15430  0.89690  0.20160  Biso   1.000  H
  C123     1.0000 0.22150  0.88684  0.26340  Biso   1.000  C
  H245     1.0000 0.24600  0.87280  0.26910  Biso   1.000  H
  H246     1.0000 0.22830  0.90400  0.29940  Biso   1.000  H
  N63      1.0000 0.01420  0.78494  0.14890  Biso   1.000  N
  H247     1.0000 0.02950  0.77670  0.08660  Biso   1.000  H
  C124     1.0000 0.96180  0.79473  0.13070  Biso   1.000  C
  H248     1.0000 0.94100  0.78880  0.20260  Biso   1.000  H
  H249     1.0000 0.94770  0.78610  0.05490  Biso   1.000  H
  C125     1.0000 0.95660  0.82493  0.11730  Biso   1.000  C
  H250     1.0000 0.98350  0.83440  0.07740  Biso   1.000  H
  C126     1.0000 0.91730  0.83909  0.15720  Biso   1.000  C
  H251     1.0000 0.88970  0.83030  0.19750  Biso   1.000  H
  H252     1.0000 0.91650  0.85810  0.14560  Biso   1.000  H
  Ag22     1.0000 0.21424  0.32759  0.01789  Biso   1.000  Ag
  Ag23     1.0000 0.10397  0.24279  0.60510  Biso   1.000  Ag
  Ag24     1.0000 0.98100  0.34379  0.81402  Biso   1.000  Ag
  P22      1.0000 0.15376  0.28409  0.81282  Biso   1.000  P
  N64      1.0000 0.15115  0.31394  0.87230  Biso   1.000  N
  P23      1.0000 0.10616  0.33421  0.83328  Biso   1.000  P
  N65      1.0000 0.09958  0.27478  0.75130  Biso   1.000  N
  P24      1.0000 0.04528  0.28883  0.78059  Biso   1.000  P
  N66      1.0000 0.05165  0.31917  0.83240  Biso   1.000  N
  N67      1.0000 0.17620  0.26469  0.92360  Biso   1.000  N
  H253     1.0000 0.19740  0.25160  0.90400  Biso   1.000  H
  C127     1.0000 0.16190  0.26846  0.05340  Biso   1.000  C
  H254     1.0000 0.15540  0.25050  0.09090  Biso   1.000  H
  H255     1.0000 0.12980  0.27880  0.05640  Biso   1.000  H
  C128     1.0000 0.20080  0.28283  0.13150  Biso   1.000  C
  H256     1.0000 0.18960  0.29050  0.20790  Biso   1.000  H
  C129     1.0000 0.24830  0.28552  0.10300  Biso   1.000  C
  H257     1.0000 0.26100  0.27810  0.02730  Biso   1.000  H
  H258     1.0000 0.27060  0.29490  0.15760  Biso   1.000  H
  N68      1.0000 0.10710  0.35905  0.93200  Biso   1.000  N
  H259     1.0000 0.10820  0.37570  0.90380  Biso   1.000  H
  C130     1.0000 0.10610  0.35431  0.06810  Biso   1.000  C
  H260     1.0000 0.09460  0.33560  0.08430  Biso   1.000  H
  H261     1.0000 0.08110  0.36670  0.10690  Biso   1.000  H
  C131     1.0000 0.15730  0.35854  0.12840  Biso   1.000  C
  H262     1.0000 0.16230  0.34990  0.20660  Biso   1.000  H
  C132     1.0000 0.19540  0.37248  0.08690  Biso   1.000  C
  H263     1.0000 0.19280  0.38160  0.00920  Biso   1.000  H
  H264     1.0000 0.22590  0.37360  0.13410  Biso   1.000  H
  N69      1.0000 0.00749  0.27421  0.88110  Biso   1.000  N
  H265     1.0000 0.98460  0.26280  0.85300  Biso   1.000  H
  C133     1.0000 0.00980  0.27921  0.01450  Biso   1.000  C
  H266     1.0000 0.03780  0.29210  0.03130  Biso   1.000  H
  H267     1.0000 0.01820  0.26210  0.05740  Biso   1.000  H
  C134     1.0000 0.96110  0.29042  0.07040  Biso   1.000  C
  H268     1.0000 0.96060  0.29320  0.15810  Biso   1.000  H
  C135     1.0000 0.91930  0.29661  0.00710  Biso   1.000  C
  H269     1.0000 0.91820  0.29410  0.91920  Biso   1.000  H
  H270     1.0000 0.89050  0.30350  0.04980  Biso   1.000  H
  N70      1.0000 0.19600  0.27936  0.70260  Biso   1.000  N
  H271     1.0000 0.22460  0.27100  0.71990  Biso   1.000  H
  C136     1.0000 0.18640  0.28896  0.57530  Biso   1.000  C
  H272     1.0000 0.21630  0.29930  0.54660  Biso   1.000  H
  H273     1.0000 0.15700  0.30140  0.57700  Biso   1.000  H
  C137     1.0000 0.17570  0.26673  0.48210  Biso   1.000  C
  H274     1.0000 0.15880  0.27150  0.40680  Biso   1.000  H
  C138     1.0000 0.18840  0.24037  0.49880  Biso   1.000  C
  H275     1.0000 0.20530  0.23490  0.57300  Biso   1.000  H
  H276     1.0000 0.18050  0.22750  0.43620  Biso   1.000  H
  N71      1.0000 0.11490  0.34617  0.69370  Biso   1.000  N
  H277     1.0000 0.08870  0.34660  0.64300  Biso   1.000  H
  C139     1.0000 0.16410  0.35629  0.64640  Biso   1.000  C
  H278     1.0000 0.16190  0.35870  0.55480  Biso   1.000  H
  H279     1.0000 0.19090  0.34280  0.66380  Biso   1.000  H
  C140     1.0000 0.17810  0.38253  0.70580  Biso   1.000  C
  H280     1.0000 0.15430  0.39690  0.70160  Biso   1.000  H
  C141     1.0000 0.22150  0.38684  0.76340  Biso   1.000  C
  H281     1.0000 0.24600  0.37280  0.76910  Biso   1.000  H
  H282     1.0000 0.22830  0.40400  0.79940  Biso   1.000  H
  N72      1.0000 0.01420  0.28494  0.64890  Biso   1.000  N
  H283     1.0000 0.02950  0.27670  0.58660  Biso   1.000  H
  C142     1.0000 0.96180  0.29473  0.63070  Biso   1.000  C
  H284     1.0000 0.94100  0.28880  0.70260  Biso   1.000  H
  H285     1.0000 0.94770  0.28610  0.55490  Biso   1.000  H
  C143     1.0000 0.95660  0.32493  0.61730  Biso   1.000  C
  H286     1.0000 0.98350  0.33440  0.57740  Biso   1.000  H
  C144     1.0000 0.91730  0.33909  0.65720  Biso   1.000  C
  H287     1.0000 0.88970  0.33030  0.69750  Biso   1.000  H
  H288     1.0000 0.91650  0.35810  0.64560  Biso   1.000  H
  Ag25     1.0000 0.53576  0.07759  0.26789  Biso   1.000  Ag
  Ag26     1.0000 0.64603  0.99279  0.85510  Biso   1.000  Ag
  Ag27     1.0000 0.76900  0.09379  0.06402  Biso   1.000  Ag
  P25      1.0000 0.59624  0.03409  0.06282  Biso   1.000  P
  N73      1.0000 0.59885  0.06394  0.12230  Biso   1.000  N
  P26      1.0000 0.64384  0.08421  0.08328  Biso   1.000  P
  N74      1.0000 0.65042  0.02478  0.00130  Biso   1.000  N
  P27      1.0000 0.70472  0.03883  0.03059  Biso   1.000  P
  N75      1.0000 0.69835  0.06917  0.08240  Biso   1.000  N
  N76      1.0000 0.57380  0.01469  0.17360  Biso   1.000  N
  H289     1.0000 0.55260  0.00160  0.15400  Biso   1.000  H
  C145     1.0000 0.58810  0.01846  0.30340  Biso   1.000  C
  H290     1.0000 0.59460  0.00050  0.34090  Biso   1.000  H
  H291     1.0000 0.62020  0.02880  0.30640  Biso   1.000  H
  C146     1.0000 0.54920  0.03283  0.38150  Biso   1.000  C
  H292     1.0000 0.56040  0.04050  0.45790  Biso   1.000  H
  C147     1.0000 0.50170  0.03552  0.35300  Biso   1.000  C
  H293     1.0000 0.48900  0.02810  0.27730  Biso   1.000  H
  H294     1.0000 0.47940  0.04490  0.40760  Biso   1.000  H
  N77      1.0000 0.64290  0.10905  0.18200  Biso   1.000  N
  H295     1.0000 0.64180  0.12570  0.15380  Biso   1.000  H
  C148     1.0000 0.64390  0.10431  0.31810  Biso   1.000  C
  H296     1.0000 0.65540  0.08560  0.33430  Biso   1.000  H
  H297     1.0000 0.66890  0.11670  0.35690  Biso   1.000  H
  C149     1.0000 0.59270  0.10854  0.37840  Biso   1.000  C
  H298     1.0000 0.58770  0.09990  0.45660  Biso   1.000  H
  C150     1.0000 0.55460  0.12248  0.33690  Biso   1.000  C
  H299     1.0000 0.55720  0.13160  0.25920  Biso   1.000  H
  H300     1.0000 0.52410  0.12360  0.38410  Biso   1.000  H
  N78      1.0000 0.74251  0.02421  0.13110  Biso   1.000  N
  H301     1.0000 0.76540  0.01280  0.10300  Biso   1.000  H
  C151     1.0000 0.74020  0.02921  0.26450  Biso   1.000  C
  H302     1.0000 0.71220  0.04210  0.28130  Biso   1.000  H
  H303     1.0000 0.73180  0.01210  0.30740  Biso   1.000  H
  C152     1.0000 0.78890  0.04042  0.32040  Biso   1.000  C
  H304     1.0000 0.78940  0.04320  0.40810  Biso   1.000  H
  C153     1.0000 0.83070  0.04661  0.25710  Biso   1.000  C
  H305     1.0000 0.83180  0.04410  0.16920  Biso   1.000  H
  H306     1.0000 0.85950  0.05350  0.29980  Biso   1.000  H
  N79      1.0000 0.55400  0.02936  0.95260  Biso   1.000  N
  H307     1.0000 0.52540  0.02100  0.96990  Biso   1.000  H
  C154     1.0000 0.56360  0.03896  0.82530  Biso   1.000  C
  H308     1.0000 0.53370  0.04930  0.79660  Biso   1.000  H
  H309     1.0000 0.59300  0.05140  0.82700  Biso   1.000  H
  C155     1.0000 0.57430  0.01673  0.73210  Biso   1.000  C
  H310     1.0000 0.59120  0.02150  0.65680  Biso   1.000  H
  C156     1.0000 0.56160  0.99037  0.74880  Biso   1.000  C
  H311     1.0000 0.54470  0.98490  0.82300  Biso   1.000  H
  H312     1.0000 0.56950  0.97750  0.68620  Biso   1.000  H
  N80      1.0000 0.63510  0.09617  0.94370  Biso   1.000  N
  H313     1.0000 0.66130  0.09660  0.89300  Biso   1.000  H
  C157     1.0000 0.58590  0.10629  0.89640  Biso   1.000  C
  H314     1.0000 0.58810  0.10870  0.80480  Biso   1.000  H
  H315     1.0000 0.55910  0.09280  0.91380  Biso   1.000  H
  C158     1.0000 0.57190  0.13253  0.95580  Biso   1.000  C
  H316     1.0000 0.59570  0.14690  0.95160  Biso   1.000  H
  C159     1.0000 0.52850  0.13684  0.01340  Biso   1.000  C
  H317     1.0000 0.50400  0.12280  0.01910  Biso   1.000  H
  H318     1.0000 0.52170  0.15400  0.04940  Biso   1.000  H
  N81      1.0000 0.73580  0.03494  0.89890  Biso   1.000  N
  H319     1.0000 0.72050  0.02670  0.83660  Biso   1.000  H
  C160     1.0000 0.78820  0.04473  0.88070  Biso   1.000  C
  H320     1.0000 0.80900  0.03880  0.95260  Biso   1.000  H
  H321     1.0000 0.80230  0.03610  0.80490  Biso   1.000  H
  C161     1.0000 0.79340  0.07493  0.86730  Biso   1.000  C
  H322     1.0000 0.76650  0.08440  0.82740  Biso   1.000  H
  C162     1.0000 0.83270  0.08909  0.90720  Biso   1.000  C
  H323     1.0000 0.86030  0.08030  0.94750  Biso   1.000  H
  H324     1.0000 0.83350  0.10810  0.89560  Biso   1.000  H
  Ag28     1.0000 0.53576  0.57759  0.76789  Biso   1.000  Ag
  Ag29     1.0000 0.64603  0.49279  0.35510  Biso   1.000  Ag
  Ag30     1.0000 0.76900  0.59379  0.56402  Biso   1.000  Ag
  P28      1.0000 0.59624  0.53409  0.56282  Biso   1.000  P
  N82      1.0000 0.59885  0.56394  0.62230  Biso   1.000  N
  P29      1.0000 0.64384  0.58421  0.58328  Biso   1.000  P
  N83      1.0000 0.65042  0.52478  0.50130  Biso   1.000  N
  P30      1.0000 0.70472  0.53883  0.53059  Biso   1.000  P
  N84      1.0000 0.69835  0.56917  0.58240  Biso   1.000  N
  N85      1.0000 0.57380  0.51469  0.67360  Biso   1.000  N
  H325     1.0000 0.55260  0.50160  0.65400  Biso   1.000  H
  C163     1.0000 0.58810  0.51846  0.80340  Biso   1.000  C
  H326     1.0000 0.59460  0.50050  0.84090  Biso   1.000  H
  H327     1.0000 0.62020  0.52880  0.80640  Biso   1.000  H
  C164     1.0000 0.54920  0.53283  0.88150  Biso   1.000  C
  H328     1.0000 0.56040  0.54050  0.95790  Biso   1.000  H
  C165     1.0000 0.50170  0.53552  0.85300  Biso   1.000  C
  H329     1.0000 0.48900  0.52810  0.77730  Biso   1.000  H
  H330     1.0000 0.47940  0.54490  0.90760  Biso   1.000  H
  N86      1.0000 0.64290  0.60905  0.68200  Biso   1.000  N
  H331     1.0000 0.64180  0.62570  0.65380  Biso   1.000  H
  C166     1.0000 0.64390  0.60431  0.81810  Biso   1.000  C
  H332     1.0000 0.65540  0.58560  0.83430  Biso   1.000  H
  H333     1.0000 0.66890  0.61670  0.85690  Biso   1.000  H
  C167     1.0000 0.59270  0.60854  0.87840  Biso   1.000  C
  H334     1.0000 0.58770  0.59990  0.95660  Biso   1.000  H
  C168     1.0000 0.55460  0.62248  0.83690  Biso   1.000  C
  H335     1.0000 0.55720  0.63160  0.75920  Biso   1.000  H
  H336     1.0000 0.52410  0.62360  0.88410  Biso   1.000  H
  N87      1.0000 0.74251  0.52421  0.63110  Biso   1.000  N
  H337     1.0000 0.76540  0.51280  0.60300  Biso   1.000  H
  C169     1.0000 0.74020  0.52921  0.76450  Biso   1.000  C
  H338     1.0000 0.71220  0.54210  0.78130  Biso   1.000  H
  H339     1.0000 0.73180  0.51210  0.80740  Biso   1.000  H
  C170     1.0000 0.78890  0.54042  0.82040  Biso   1.000  C
  H340     1.0000 0.78940  0.54320  0.90810  Biso   1.000  H
  C171     1.0000 0.83070  0.54661  0.75710  Biso   1.000  C
  H341     1.0000 0.83180  0.54410  0.66920  Biso   1.000  H
  H342     1.0000 0.85950  0.55350  0.79980  Biso   1.000  H
  N88      1.0000 0.55400  0.52936  0.45260  Biso   1.000  N
  H343     1.0000 0.52540  0.52100  0.46990  Biso   1.000  H
  C172     1.0000 0.56360  0.53896  0.32530  Biso   1.000  C
  H344     1.0000 0.53370  0.54930  0.29660  Biso   1.000  H
  H345     1.0000 0.59300  0.55140  0.32700  Biso   1.000  H
  C173     1.0000 0.57430  0.51673  0.23210  Biso   1.000  C
  H346     1.0000 0.59120  0.52150  0.15680  Biso   1.000  H
  C174     1.0000 0.56160  0.49037  0.24880  Biso   1.000  C
  H347     1.0000 0.54470  0.48490  0.32300  Biso   1.000  H
  H348     1.0000 0.56950  0.47750  0.18620  Biso   1.000  H
  N89      1.0000 0.63510  0.59617  0.44370  Biso   1.000  N
  H349     1.0000 0.66130  0.59660  0.39300  Biso   1.000  H
  C175     1.0000 0.58590  0.60629  0.39640  Biso   1.000  C
  H350     1.0000 0.58810  0.60870  0.30480  Biso   1.000  H
  H351     1.0000 0.55910  0.59280  0.41380  Biso   1.000  H
  C176     1.0000 0.57190  0.63253  0.45580  Biso   1.000  C
  H352     1.0000 0.59570  0.64690  0.45160  Biso   1.000  H
  C177     1.0000 0.52850  0.63684  0.51340  Biso   1.000  C
  H353     1.0000 0.50400  0.62280  0.51910  Biso   1.000  H
  H354     1.0000 0.52170  0.65400  0.54940  Biso   1.000  H
  N90      1.0000 0.73580  0.53494  0.39890  Biso   1.000  N
  H355     1.0000 0.72050  0.52670  0.33660  Biso   1.000  H
  C178     1.0000 0.78820  0.54473  0.38070  Biso   1.000  C
  H356     1.0000 0.80900  0.53880  0.45260  Biso   1.000  H
  H357     1.0000 0.80230  0.53610  0.30490  Biso   1.000  H
  C179     1.0000 0.79340  0.57493  0.36730  Biso   1.000  C
  H358     1.0000 0.76650  0.58440  0.32740  Biso   1.000  H
  C180     1.0000 0.83270  0.58909  0.40720  Biso   1.000  C
  H359     1.0000 0.86030  0.58030  0.44750  Biso   1.000  H
  H360     1.0000 0.83350  0.60810  0.39560  Biso   1.000  H
  Ag31     1.0000 0.03576  0.07759  0.76789  Biso   1.000  Ag
  Ag32     1.0000 0.14603  0.99279  0.35510  Biso   1.000  Ag
  Ag33     1.0000 0.26900  0.09379  0.56402  Biso   1.000  Ag
  P31      1.0000 0.09624  0.03409  0.56282  Biso   1.000  P
  N91      1.0000 0.09885  0.06394  0.62230  Biso   1.000  N
  P32      1.0000 0.14384  0.08421  0.58328  Biso   1.000  P
  N92      1.0000 0.15042  0.02478  0.50130  Biso   1.000  N
  P33      1.0000 0.20472  0.03883  0.53059  Biso   1.000  P
  N93      1.0000 0.19835  0.06917  0.58240  Biso   1.000  N
  N94      1.0000 0.07380  0.01469  0.67360  Biso   1.000  N
  H361     1.0000 0.05260  0.00160  0.65400  Biso   1.000  H
  C181     1.0000 0.08810  0.01846  0.80340  Biso   1.000  C
  H362     1.0000 0.09460  0.00050  0.84090  Biso   1.000  H
  H363     1.0000 0.12020  0.02880  0.80640  Biso   1.000  H
  C182     1.0000 0.04920  0.03283  0.88150  Biso   1.000  C
  H364     1.0000 0.06040  0.04050  0.95790  Biso   1.000  H
  C183     1.0000 0.00170  0.03552  0.85300  Biso   1.000  C
  H365     1.0000 0.98900  0.02810  0.77730  Biso   1.000  H
  H366     1.0000 0.97940  0.04490  0.90760  Biso   1.000  H
  N95      1.0000 0.14290  0.10905  0.68200  Biso   1.000  N
  H367     1.0000 0.14180  0.12570  0.65380  Biso   1.000  H
  C184     1.0000 0.14390  0.10431  0.81810  Biso   1.000  C
  H368     1.0000 0.15540  0.08560  0.83430  Biso   1.000  H
  H369     1.0000 0.16890  0.11670  0.85690  Biso   1.000  H
  C185     1.0000 0.09270  0.10854  0.87840  Biso   1.000  C
  H370     1.0000 0.08770  0.09990  0.95660  Biso   1.000  H
  C186     1.0000 0.05460  0.12248  0.83690  Biso   1.000  C
  H371     1.0000 0.05720  0.13160  0.75920  Biso   1.000  H
  H372     1.0000 0.02410  0.12360  0.88410  Biso   1.000  H
  N96      1.0000 0.24251  0.02421  0.63110  Biso   1.000  N
  H373     1.0000 0.26540  0.01280  0.60300  Biso   1.000  H
  C187     1.0000 0.24020  0.02921  0.76450  Biso   1.000  C
  H374     1.0000 0.21220  0.04210  0.78130  Biso   1.000  H
  H375     1.0000 0.23180  0.01210  0.80740  Biso   1.000  H
  C188     1.0000 0.28890  0.04042  0.82040  Biso   1.000  C
  H376     1.0000 0.28940  0.04320  0.90810  Biso   1.000  H
  C189     1.0000 0.33070  0.04661  0.75710  Biso   1.000  C
  H377     1.0000 0.33180  0.04410  0.66920  Biso   1.000  H
  H378     1.0000 0.35950  0.05350  0.79980  Biso   1.000  H
  N97      1.0000 0.05400  0.02936  0.45260  Biso   1.000  N
  H379     1.0000 0.02540  0.02100  0.46990  Biso   1.000  H
  C190     1.0000 0.06360  0.03896  0.32530  Biso   1.000  C
  H380     1.0000 0.03370  0.04930  0.29660  Biso   1.000  H
  H381     1.0000 0.09300  0.05140  0.32700  Biso   1.000  H
  C191     1.0000 0.07430  0.01673  0.23210  Biso   1.000  C
  H382     1.0000 0.09120  0.02150  0.15680  Biso   1.000  H
  C192     1.0000 0.06160  0.99037  0.24880  Biso   1.000  C
  H383     1.0000 0.04470  0.98490  0.32300  Biso   1.000  H
  H384     1.0000 0.06950  0.97750  0.18620  Biso   1.000  H
  N98      1.0000 0.13510  0.09617  0.44370  Biso   1.000  N
  H385     1.0000 0.16130  0.09660  0.39300  Biso   1.000  H
  C193     1.0000 0.08590  0.10629  0.39640  Biso   1.000  C
  H386     1.0000 0.08810  0.10870  0.30480  Biso   1.000  H
  H387     1.0000 0.05910  0.09280  0.41380  Biso   1.000  H
  C194     1.0000 0.07190  0.13253  0.45580  Biso   1.000  C
  H388     1.0000 0.09570  0.14690  0.45160  Biso   1.000  H
  C195     1.0000 0.02850  0.13684  0.51340  Biso   1.000  C
  H389     1.0000 0.00400  0.12280  0.51910  Biso   1.000  H
  H390     1.0000 0.02170  0.15400  0.54940  Biso   1.000  H
  N99      1.0000 0.23580  0.03494  0.39890  Biso   1.000  N
  H391     1.0000 0.22050  0.02670  0.33660  Biso   1.000  H
  C196     1.0000 0.28820  0.04473  0.38070  Biso   1.000  C
  H392     1.0000 0.30900  0.03880  0.45260  Biso   1.000  H
  H393     1.0000 0.30230  0.03610  0.30490  Biso   1.000  H
  C197     1.0000 0.29340  0.07493  0.36730  Biso   1.000  C
  H394     1.0000 0.26650  0.08440  0.32740  Biso   1.000  H
  C198     1.0000 0.33270  0.08909  0.40720  Biso   1.000  C
  H395     1.0000 0.36030  0.08030  0.44750  Biso   1.000  H
  H396     1.0000 0.33350  0.10810  0.39560  Biso   1.000  H
  Ag34     1.0000 0.03576  0.57759  0.26789  Biso   1.000  Ag
  Ag35     1.0000 0.14603  0.49279  0.85510  Biso   1.000  Ag
  Ag36     1.0000 0.26900  0.59379  0.06402  Biso   1.000  Ag
  P34      1.0000 0.09624  0.53409  0.06282  Biso   1.000  P
  N100     1.0000 0.09885  0.56394  0.12230  Biso   1.000  N
  P35      1.0000 0.14384  0.58421  0.08328  Biso   1.000  P
  N101     1.0000 0.15042  0.52478  0.00130  Biso   1.000  N
  P36      1.0000 0.20472  0.53883  0.03059  Biso   1.000  P
  N102     1.0000 0.19835  0.56917  0.08240  Biso   1.000  N
  N103     1.0000 0.07380  0.51469  0.17360  Biso   1.000  N
  H397     1.0000 0.05260  0.50160  0.15400  Biso   1.000  H
  C199     1.0000 0.08810  0.51846  0.30340  Biso   1.000  C
  H398     1.0000 0.09460  0.50050  0.34090  Biso   1.000  H
  H399     1.0000 0.12020  0.52880  0.30640  Biso   1.000  H
  C200     1.0000 0.04920  0.53283  0.38150  Biso   1.000  C
  H400     1.0000 0.06040  0.54050  0.45790  Biso   1.000  H
  C201     1.0000 0.00170  0.53552  0.35300  Biso   1.000  C
  H401     1.0000 0.98900  0.52810  0.27730  Biso   1.000  H
  H402     1.0000 0.97940  0.54490  0.40760  Biso   1.000  H
  N104     1.0000 0.14290  0.60905  0.18200  Biso   1.000  N
  H403     1.0000 0.14180  0.62570  0.15380  Biso   1.000  H
  C202     1.0000 0.14390  0.60431  0.31810  Biso   1.000  C
  H404     1.0000 0.15540  0.58560  0.33430  Biso   1.000  H
  H405     1.0000 0.16890  0.61670  0.35690  Biso   1.000  H
  C203     1.0000 0.09270  0.60854  0.37840  Biso   1.000  C
  H406     1.0000 0.08770  0.59990  0.45660  Biso   1.000  H
  C204     1.0000 0.05460  0.62248  0.33690  Biso   1.000  C
  H407     1.0000 0.05720  0.63160  0.25920  Biso   1.000  H
  H408     1.0000 0.02410  0.62360  0.38410  Biso   1.000  H
  N105     1.0000 0.24251  0.52421  0.13110  Biso   1.000  N
  H409     1.0000 0.26540  0.51280  0.10300  Biso   1.000  H
  C205     1.0000 0.24020  0.52921  0.26450  Biso   1.000  C
  H410     1.0000 0.21220  0.54210  0.28130  Biso   1.000  H
  H411     1.0000 0.23180  0.51210  0.30740  Biso   1.000  H
  C206     1.0000 0.28890  0.54042  0.32040  Biso   1.000  C
  H412     1.0000 0.28940  0.54320  0.40810  Biso   1.000  H
  C207     1.0000 0.33070  0.54661  0.25710  Biso   1.000  C
  H413     1.0000 0.33180  0.54410  0.16920  Biso   1.000  H
  H414     1.0000 0.35950  0.55350  0.29980  Biso   1.000  H
  N106     1.0000 0.05400  0.52936  0.95260  Biso   1.000  N
  H415     1.0000 0.02540  0.52100  0.96990  Biso   1.000  H
  C208     1.0000 0.06360  0.53896  0.82530  Biso   1.000  C
  H416     1.0000 0.03370  0.54930  0.79660  Biso   1.000  H
  H417     1.0000 0.09300  0.55140  0.82700  Biso   1.000  H
  C209     1.0000 0.07430  0.51673  0.73210  Biso   1.000  C
  H418     1.0000 0.09120  0.52150  0.65680  Biso   1.000  H
  C210     1.0000 0.06160  0.49037  0.74880  Biso   1.000  C
  H419     1.0000 0.04470  0.48490  0.82300  Biso   1.000  H
  H420     1.0000 0.06950  0.47750  0.68620  Biso   1.000  H
  N107     1.0000 0.13510  0.59617  0.94370  Biso   1.000  N
  H421     1.0000 0.16130  0.59660  0.89300  Biso   1.000  H
  C211     1.0000 0.08590  0.60629  0.89640  Biso   1.000  C
  H422     1.0000 0.08810  0.60870  0.80480  Biso   1.000  H
  H423     1.0000 0.05910  0.59280  0.91380  Biso   1.000  H
  C212     1.0000 0.07190  0.63253  0.95580  Biso   1.000  C
  H424     1.0000 0.09570  0.64690  0.95160  Biso   1.000  H
  C213     1.0000 0.02850  0.63684  0.01340  Biso   1.000  C
  H425     1.0000 0.00400  0.62280  0.01910  Biso   1.000  H
  H426     1.0000 0.02170  0.65400  0.04940  Biso   1.000  H
  N108     1.0000 0.23580  0.53494  0.89890  Biso   1.000  N
  H427     1.0000 0.22050  0.52670  0.83660  Biso   1.000  H
  C214     1.0000 0.28820  0.54473  0.88070  Biso   1.000  C
  H428     1.0000 0.30900  0.53880  0.95260  Biso   1.000  H
  H429     1.0000 0.30230  0.53610  0.80490  Biso   1.000  H
  C215     1.0000 0.29340  0.57493  0.86730  Biso   1.000  C
  H430     1.0000 0.26650  0.58440  0.82740  Biso   1.000  H
  C216     1.0000 0.33270  0.58909  0.90720  Biso   1.000  C
  H431     1.0000 0.36030  0.58030  0.94750  Biso   1.000  H
  H432     1.0000 0.33350  0.60810  0.89560  Biso   1.000  H
  Ag37     1.0000 0.96424  0.42241  0.26789  Biso   1.000  Ag
  Ag38     1.0000 0.85397  0.50721  0.85510  Biso   1.000  Ag
  Ag39     1.0000 0.73100  0.40621  0.06402  Biso   1.000  Ag
  P37      1.0000 0.90376  0.46591  0.06282  Biso   1.000  P
  N109     1.0000 0.90115  0.43606  0.12230  Biso   1.000  N
  P38      1.0000 0.85616  0.41579  0.08328  Biso   1.000  P
  N110     1.0000 0.84958  0.47522  0.00130  Biso   1.000  N
  P39      1.0000 0.79528  0.46117  0.03059  Biso   1.000  P
  N111     1.0000 0.80165  0.43083  0.08240  Biso   1.000  N
  N112     1.0000 0.92620  0.48531  0.17360  Biso   1.000  N
  H433     1.0000 0.94740  0.49840  0.15400  Biso   1.000  H
  C217     1.0000 0.91190  0.48154  0.30340  Biso   1.000  C
  H434     1.0000 0.90540  0.49950  0.34090  Biso   1.000  H
  H435     1.0000 0.87980  0.47120  0.30640  Biso   1.000  H
  C218     1.0000 0.95080  0.46717  0.38150  Biso   1.000  C
  H436     1.0000 0.93960  0.45950  0.45790  Biso   1.000  H
  C219     1.0000 0.99830  0.46448  0.35300  Biso   1.000  C
  H437     1.0000 0.01100  0.47190  0.27730  Biso   1.000  H
  H438     1.0000 0.02060  0.45510  0.40760  Biso   1.000  H
  N113     1.0000 0.85710  0.39095  0.18200  Biso   1.000  N
  H439     1.0000 0.85820  0.37430  0.15380  Biso   1.000  H
  C220     1.0000 0.85610  0.39569  0.31810  Biso   1.000  C
  H440     1.0000 0.84460  0.41440  0.33430  Biso   1.000  H
  H441     1.0000 0.83110  0.38330  0.35690  Biso   1.000  H
  C221     1.0000 0.90730  0.39146  0.37840  Biso   1.000  C
  H442     1.0000 0.91230  0.40010  0.45660  Biso   1.000  H
  C222     1.0000 0.94540  0.37752  0.33690  Biso   1.000  C
  H443     1.0000 0.94280  0.36840  0.25920  Biso   1.000  H
  H444     1.0000 0.97590  0.37640  0.38410  Biso   1.000  H
  N114     1.0000 0.75749  0.47579  0.13110  Biso   1.000  N
  H445     1.0000 0.73460  0.48720  0.10300  Biso   1.000  H
  C223     1.0000 0.75980  0.47079  0.26450  Biso   1.000  C
  H446     1.0000 0.78780  0.45790  0.28130  Biso   1.000  H
  H447     1.0000 0.76820  0.48790  0.30740  Biso   1.000  H
  C224     1.0000 0.71110  0.45958  0.32040  Biso   1.000  C
  H448     1.0000 0.71060  0.45680  0.40810  Biso   1.000  H
  C225     1.0000 0.66930  0.45339  0.25710  Biso   1.000  C
  H449     1.0000 0.66820  0.45590  0.16920  Biso   1.000  H
  H450     1.0000 0.64050  0.44650  0.29980  Biso   1.000  H
  N115     1.0000 0.94600  0.47064  0.95260  Biso   1.000  N
  H451     1.0000 0.97460  0.47900  0.96990  Biso   1.000  H
  C226     1.0000 0.93640  0.46104  0.82530  Biso   1.000  C
  H452     1.0000 0.96630  0.45070  0.79660  Biso   1.000  H
  H453     1.0000 0.90700  0.44860  0.82700  Biso   1.000  H
  C227     1.0000 0.92570  0.48327  0.73210  Biso   1.000  C
  H454     1.0000 0.90880  0.47850  0.65680  Biso   1.000  H
  C228     1.0000 0.93840  0.50963  0.74880  Biso   1.000  C
  H455     1.0000 0.95530  0.51510  0.82300  Biso   1.000  H
  H456     1.0000 0.93050  0.52250  0.68620  Biso   1.000  H
  N116     1.0000 0.86490  0.40383  0.94370  Biso   1.000  N
  H457     1.0000 0.83870  0.40340  0.89300  Biso   1.000  H
  C229     1.0000 0.91410  0.39371  0.89640  Biso   1.000  C
  H458     1.0000 0.91190  0.39130  0.80480  Biso   1.000  H
  H459     1.0000 0.94090  0.40720  0.91380  Biso   1.000  H
  C230     1.0000 0.92810  0.36747  0.95580  Biso   1.000  C
  H460     1.0000 0.90430  0.35310  0.95160  Biso   1.000  H
  C231     1.0000 0.97150  0.36316  0.01340  Biso   1.000  C
  H461     1.0000 0.99600  0.37720  0.01910  Biso   1.000  H
  H462     1.0000 0.97830  0.34600  0.04940  Biso   1.000  H
  N117     1.0000 0.76420  0.46506  0.89890  Biso   1.000  N
  H463     1.0000 0.77950  0.47330  0.83660  Biso   1.000  H
  C232     1.0000 0.71180  0.45527  0.88070  Biso   1.000  C
  H464     1.0000 0.69100  0.46120  0.95260  Biso   1.000  H
  H465     1.0000 0.69770  0.46390  0.80490  Biso   1.000  H
  C233     1.0000 0.70660  0.42507  0.86730  Biso   1.000  C
  H466     1.0000 0.73350  0.41560  0.82740  Biso   1.000  H
  C234     1.0000 0.66730  0.41091  0.90720  Biso   1.000  C
  H467     1.0000 0.63970  0.41970  0.94750  Biso   1.000  H
  H468     1.0000 0.66650  0.39190  0.89560  Biso   1.000  H
  Ag40     1.0000 0.96424  0.92241  0.76789  Biso   1.000  Ag
  Ag41     1.0000 0.85397  0.00721  0.35510  Biso   1.000  Ag
  Ag42     1.0000 0.73100  0.90621  0.56402  Biso   1.000  Ag
  P40      1.0000 0.90376  0.96591  0.56282  Biso   1.000  P
  N118     1.0000 0.90115  0.93606  0.62230  Biso   1.000  N
  P41      1.0000 0.85616  0.91579  0.58328  Biso   1.000  P
  N119     1.0000 0.84958  0.97522  0.50130  Biso   1.000  N
  P42      1.0000 0.79528  0.96117  0.53059  Biso   1.000  P
  N120     1.0000 0.80165  0.93083  0.58240  Biso   1.000  N
  N121     1.0000 0.92620  0.98531  0.67360  Biso   1.000  N
  H469     1.0000 0.94740  0.99840  0.65400  Biso   1.000  H
  C235     1.0000 0.91190  0.98154  0.80340  Biso   1.000  C
  H470     1.0000 0.90540  0.99950  0.84090  Biso   1.000  H
  H471     1.0000 0.87980  0.97120  0.80640  Biso   1.000  H
  C236     1.0000 0.95080  0.96717  0.88150  Biso   1.000  C
  H472     1.0000 0.93960  0.95950  0.95790  Biso   1.000  H
  C237     1.0000 0.99830  0.96448  0.85300  Biso   1.000  C
  H473     1.0000 0.01100  0.97190  0.77730  Biso   1.000  H
  H474     1.0000 0.02060  0.95510  0.90760  Biso   1.000  H
  N122     1.0000 0.85710  0.89095  0.68200  Biso   1.000  N
  H475     1.0000 0.85820  0.87430  0.65380  Biso   1.000  H
  C238     1.0000 0.85610  0.89569  0.81810  Biso   1.000  C
  H476     1.0000 0.84460  0.91440  0.83430  Biso   1.000  H
  H477     1.0000 0.83110  0.88330  0.85690  Biso   1.000  H
  C239     1.0000 0.90730  0.89146  0.87840  Biso   1.000  C
  H478     1.0000 0.91230  0.90010  0.95660  Biso   1.000  H
  C240     1.0000 0.94540  0.87752  0.83690  Biso   1.000  C
  H479     1.0000 0.94280  0.86840  0.75920  Biso   1.000  H
  H480     1.0000 0.97590  0.87640  0.88410  Biso   1.000  H
  N123     1.0000 0.75749  0.97579  0.63110  Biso   1.000  N
  H481     1.0000 0.73460  0.98720  0.60300  Biso   1.000  H
  C241     1.0000 0.75980  0.97079  0.76450  Biso   1.000  C
  H482     1.0000 0.78780  0.95790  0.78130  Biso   1.000  H
  H483     1.0000 0.76820  0.98790  0.80740  Biso   1.000  H
  C242     1.0000 0.71110  0.95958  0.82040  Biso   1.000  C
  H484     1.0000 0.71060  0.95680  0.90810  Biso   1.000  H
  C243     1.0000 0.66930  0.95339  0.75710  Biso   1.000  C
  H485     1.0000 0.66820  0.95590  0.66920  Biso   1.000  H
  H486     1.0000 0.64050  0.94650  0.79980  Biso   1.000  H
  N124     1.0000 0.94600  0.97064  0.45260  Biso   1.000  N
  H487     1.0000 0.97460  0.97900  0.46990  Biso   1.000  H
  C244     1.0000 0.93640  0.96104  0.32530  Biso   1.000  C
  H488     1.0000 0.96630  0.95070  0.29660  Biso   1.000  H
  H489     1.0000 0.90700  0.94860  0.32700  Biso   1.000  H
  C245     1.0000 0.92570  0.98327  0.23210  Biso   1.000  C
  H490     1.0000 0.90880  0.97850  0.15680  Biso   1.000  H
  C246     1.0000 0.93840  0.00963  0.24880  Biso   1.000  C
  H491     1.0000 0.95530  0.01510  0.32300  Biso   1.000  H
  H492     1.0000 0.93050  0.02250  0.18620  Biso   1.000  H
  N125     1.0000 0.86490  0.90383  0.44370  Biso   1.000  N
  H493     1.0000 0.83870  0.90340  0.39300  Biso   1.000  H
  C247     1.0000 0.91410  0.89371  0.39640  Biso   1.000  C
  H494     1.0000 0.91190  0.89130  0.30480  Biso   1.000  H
  H495     1.0000 0.94090  0.90720  0.41380  Biso   1.000  H
  C248     1.0000 0.92810  0.86747  0.45580  Biso   1.000  C
  H496     1.0000 0.90430  0.85310  0.45160  Biso   1.000  H
  C249     1.0000 0.97150  0.86316  0.51340  Biso   1.000  C
  H497     1.0000 0.99600  0.87720  0.51910  Biso   1.000  H
  H498     1.0000 0.97830  0.84600  0.54940  Biso   1.000  H
  N126     1.0000 0.76420  0.96506  0.39890  Biso   1.000  N
  H499     1.0000 0.77950  0.97330  0.33660  Biso   1.000  H
  C250     1.0000 0.71180  0.95527  0.38070  Biso   1.000  C
  H500     1.0000 0.69100  0.96120  0.45260  Biso   1.000  H
  H501     1.0000 0.69770  0.96390  0.30490  Biso   1.000  H
  C251     1.0000 0.70660  0.92507  0.36730  Biso   1.000  C
  H502     1.0000 0.73350  0.91560  0.32740  Biso   1.000  H
  C252     1.0000 0.66730  0.91091  0.40720  Biso   1.000  C
  H503     1.0000 0.63970  0.91970  0.44750  Biso   1.000  H
  H504     1.0000 0.66650  0.89190  0.39560  Biso   1.000  H
  Ag43     1.0000 0.46424  0.42241  0.76789  Biso   1.000  Ag
  Ag44     1.0000 0.35397  0.50721  0.35510  Biso   1.000  Ag
  Ag45     1.0000 0.23100  0.40621  0.56402  Biso   1.000  Ag
  P43      1.0000 0.40376  0.46591  0.56282  Biso   1.000  P
  N127     1.0000 0.40115  0.43606  0.62230  Biso   1.000  N
  P44      1.0000 0.35616  0.41579  0.58328  Biso   1.000  P
  N128     1.0000 0.34958  0.47522  0.50130  Biso   1.000  N
  P45      1.0000 0.29528  0.46117  0.53059  Biso   1.000  P
  N129     1.0000 0.30165  0.43083  0.58240  Biso   1.000  N
  N130     1.0000 0.42620  0.48531  0.67360  Biso   1.000  N
  H505     1.0000 0.44740  0.49840  0.65400  Biso   1.000  H
  C253     1.0000 0.41190  0.48154  0.80340  Biso   1.000  C
  H506     1.0000 0.40540  0.49950  0.84090  Biso   1.000  H
  H507     1.0000 0.37980  0.47120  0.80640  Biso   1.000  H
  C254     1.0000 0.45080  0.46717  0.88150  Biso   1.000  C
  H508     1.0000 0.43960  0.45950  0.95790  Biso   1.000  H
  C255     1.0000 0.49830  0.46448  0.85300  Biso   1.000  C
  H509     1.0000 0.51100  0.47190  0.77730  Biso   1.000  H
  H510     1.0000 0.52060  0.45510  0.90760  Biso   1.000  H
  N131     1.0000 0.35710  0.39095  0.68200  Biso   1.000  N
  H511     1.0000 0.35820  0.37430  0.65380  Biso   1.000  H
  C256     1.0000 0.35610  0.39569  0.81810  Biso   1.000  C
  H512     1.0000 0.34460  0.41440  0.83430  Biso   1.000  H
  H513     1.0000 0.33110  0.38330  0.85690  Biso   1.000  H
  C257     1.0000 0.40730  0.39146  0.87840  Biso   1.000  C
  H514     1.0000 0.41230  0.40010  0.95660  Biso   1.000  H
  C258     1.0000 0.44540  0.37752  0.83690  Biso   1.000  C
  H515     1.0000 0.44280  0.36840  0.75920  Biso   1.000  H
  H516     1.0000 0.47590  0.37640  0.88410  Biso   1.000  H
  N132     1.0000 0.25749  0.47579  0.63110  Biso   1.000  N
  H517     1.0000 0.23460  0.48720  0.60300  Biso   1.000  H
  C259     1.0000 0.25980  0.47079  0.76450  Biso   1.000  C
  H518     1.0000 0.28780  0.45790  0.78130  Biso   1.000  H
  H519     1.0000 0.26820  0.48790  0.80740  Biso   1.000  H
  C260     1.0000 0.21110  0.45958  0.82040  Biso   1.000  C
  H520     1.0000 0.21060  0.45680  0.90810  Biso   1.000  H
  C261     1.0000 0.16930  0.45339  0.75710  Biso   1.000  C
  H521     1.0000 0.16820  0.45590  0.66920  Biso   1.000  H
  H522     1.0000 0.14050  0.44650  0.79980  Biso   1.000  H
  N133     1.0000 0.44600  0.47064  0.45260  Biso   1.000  N
  H523     1.0000 0.47460  0.47900  0.46990  Biso   1.000  H
  C262     1.0000 0.43640  0.46104  0.32530  Biso   1.000  C
  H524     1.0000 0.46630  0.45070  0.29660  Biso   1.000  H
  H525     1.0000 0.40700  0.44860  0.32700  Biso   1.000  H
  C263     1.0000 0.42570  0.48327  0.23210  Biso   1.000  C
  H526     1.0000 0.40880  0.47850  0.15680  Biso   1.000  H
  C264     1.0000 0.43840  0.50963  0.24880  Biso   1.000  C
  H527     1.0000 0.45530  0.51510  0.32300  Biso   1.000  H
  H528     1.0000 0.43050  0.52250  0.18620  Biso   1.000  H
  N134     1.0000 0.36490  0.40383  0.44370  Biso   1.000  N
  H529     1.0000 0.33870  0.40340  0.39300  Biso   1.000  H
  C265     1.0000 0.41410  0.39371  0.39640  Biso   1.000  C
  H530     1.0000 0.41190  0.39130  0.30480  Biso   1.000  H
  H531     1.0000 0.44090  0.40720  0.41380  Biso   1.000  H
  C266     1.0000 0.42810  0.36747  0.45580  Biso   1.000  C
  H532     1.0000 0.40430  0.35310  0.45160  Biso   1.000  H
  C267     1.0000 0.47150  0.36316  0.51340  Biso   1.000  C
  H533     1.0000 0.49600  0.37720  0.51910  Biso   1.000  H
  H534     1.0000 0.47830  0.34600  0.54940  Biso   1.000  H
  N135     1.0000 0.26420  0.46506  0.39890  Biso   1.000  N
  H535     1.0000 0.27950  0.47330  0.33660  Biso   1.000  H
  C268     1.0000 0.21180  0.45527  0.38070  Biso   1.000  C
  H536     1.0000 0.19100  0.46120  0.45260  Biso   1.000  H
  H537     1.0000 0.19770  0.46390  0.30490  Biso   1.000  H
  C269     1.0000 0.20660  0.42507  0.36730  Biso   1.000  C
  H538     1.0000 0.23350  0.41560  0.32740  Biso   1.000  H
  C270     1.0000 0.16730  0.41091  0.40720  Biso   1.000  C
  H539     1.0000 0.13970  0.41970  0.44750  Biso   1.000  H
  H540     1.0000 0.16650  0.39190  0.39560  Biso   1.000  H
  Ag46     1.0000 0.46424  0.92241  0.26789  Biso   1.000  Ag
  Ag47     1.0000 0.35397  0.00721  0.85510  Biso   1.000  Ag
  Ag48     1.0000 0.23100  0.90621  0.06402  Biso   1.000  Ag
  P46      1.0000 0.40376  0.96591  0.06282  Biso   1.000  P
  N136     1.0000 0.40115  0.93606  0.12230  Biso   1.000  N
  P47      1.0000 0.35616  0.91579  0.08328  Biso   1.000  P
  N137     1.0000 0.34958  0.97522  0.00130  Biso   1.000  N
  P48      1.0000 0.29528  0.96117  0.03059  Biso   1.000  P
  N138     1.0000 0.30165  0.93083  0.08240  Biso   1.000  N
  N139     1.0000 0.42620  0.98531  0.17360  Biso   1.000  N
  H541     1.0000 0.44740  0.99840  0.15400  Biso   1.000  H
  C271     1.0000 0.41190  0.98154  0.30340  Biso   1.000  C
  H542     1.0000 0.40540  0.99950  0.34090  Biso   1.000  H
  H543     1.0000 0.37980  0.97120  0.30640  Biso   1.000  H
  C272     1.0000 0.45080  0.96717  0.38150  Biso   1.000  C
  H544     1.0000 0.43960  0.95950  0.45790  Biso   1.000  H
  C273     1.0000 0.49830  0.96448  0.35300  Biso   1.000  C
  H545     1.0000 0.51100  0.97190  0.27730  Biso   1.000  H
  H546     1.0000 0.52060  0.95510  0.40760  Biso   1.000  H
  N140     1.0000 0.35710  0.89095  0.18200  Biso   1.000  N
  H547     1.0000 0.35820  0.87430  0.15380  Biso   1.000  H
  C274     1.0000 0.35610  0.89569  0.31810  Biso   1.000  C
  H548     1.0000 0.34460  0.91440  0.33430  Biso   1.000  H
  H549     1.0000 0.33110  0.88330  0.35690  Biso   1.000  H
  C275     1.0000 0.40730  0.89146  0.37840  Biso   1.000  C
  H550     1.0000 0.41230  0.90010  0.45660  Biso   1.000  H
  C276     1.0000 0.44540  0.87752  0.33690  Biso   1.000  C
  H551     1.0000 0.44280  0.86840  0.25920  Biso   1.000  H
  H552     1.0000 0.47590  0.87640  0.38410  Biso   1.000  H
  N141     1.0000 0.25749  0.97579  0.13110  Biso   1.000  N
  H553     1.0000 0.23460  0.98720  0.10300  Biso   1.000  H
  C277     1.0000 0.25980  0.97079  0.26450  Biso   1.000  C
  H554     1.0000 0.28780  0.95790  0.28130  Biso   1.000  H
  H555     1.0000 0.26820  0.98790  0.30740  Biso   1.000  H
  C278     1.0000 0.21110  0.95958  0.32040  Biso   1.000  C
  H556     1.0000 0.21060  0.95680  0.40810  Biso   1.000  H
  C279     1.0000 0.16930  0.95339  0.25710  Biso   1.000  C
  H557     1.0000 0.16820  0.95590  0.16920  Biso   1.000  H
  H558     1.0000 0.14050  0.94650  0.29980  Biso   1.000  H
  N142     1.0000 0.44600  0.97064  0.95260  Biso   1.000  N
  H559     1.0000 0.47460  0.97900  0.96990  Biso   1.000  H
  C280     1.0000 0.43640  0.96104  0.82530  Biso   1.000  C
  H560     1.0000 0.46630  0.95070  0.79660  Biso   1.000  H
  H561     1.0000 0.40700  0.94860  0.82700  Biso   1.000  H
  C281     1.0000 0.42570  0.98327  0.73210  Biso   1.000  C
  H562     1.0000 0.40880  0.97850  0.65680  Biso   1.000  H
  C282     1.0000 0.43840  0.00963  0.74880  Biso   1.000  C
  H563     1.0000 0.45530  0.01510  0.82300  Biso   1.000  H
  H564     1.0000 0.43050  0.02250  0.68620  Biso   1.000  H
  N143     1.0000 0.36490  0.90383  0.94370  Biso   1.000  N
  H565     1.0000 0.33870  0.90340  0.89300  Biso   1.000  H
  C283     1.0000 0.41410  0.89371  0.89640  Biso   1.000  C
  H566     1.0000 0.41190  0.89130  0.80480  Biso   1.000  H
  H567     1.0000 0.44090  0.90720  0.91380  Biso   1.000  H
  C284     1.0000 0.42810  0.86747  0.95580  Biso   1.000  C
  H568     1.0000 0.40430  0.85310  0.95160  Biso   1.000  H
  C285     1.0000 0.47150  0.86316  0.01340  Biso   1.000  C
  H569     1.0000 0.49600  0.87720  0.01910  Biso   1.000  H
  H570     1.0000 0.47830  0.84600  0.04940  Biso   1.000  H
  N144     1.0000 0.26420  0.96506  0.89890  Biso   1.000  N
  H571     1.0000 0.27950  0.97330  0.83660  Biso   1.000  H
  C286     1.0000 0.21180  0.95527  0.88070  Biso   1.000  C
  H572     1.0000 0.19100  0.96120  0.95260  Biso   1.000  H
  H573     1.0000 0.19770  0.96390  0.80490  Biso   1.000  H
  C287     1.0000 0.20660  0.92507  0.86730  Biso   1.000  C
  H574     1.0000 0.23350  0.91560  0.82740  Biso   1.000  H
  C288     1.0000 0.16730  0.91091  0.90720  Biso   1.000  C
  H575     1.0000 0.13970  0.91970  0.94750  Biso   1.000  H
  H576     1.0000 0.16650  0.89190  0.89560  Biso   1.000  H
