data_image0
_cell_length_a       27.295
_cell_length_b       27.295
_cell_length_c       27.295
_cell_angle_alpha    109.471
_cell_angle_beta     109.471
_cell_angle_gamma    109.471

_symmetry_space_group_name_H-M    "P 1"
_symmetry_int_tables_number       1

loop_
  _symmetry_equiv_pos_as_xyz
  'x, y, z'

loop_
  _atom_site_label
  _atom_site_occupancy
  _atom_site_fract_x
  _atom_site_fract_y
  _atom_site_fract_z
  _atom_site_thermal_displace_type
  _atom_site_B_iso_or_equiv
  _atom_site_type_symbol
  Tb1      1.0000 0.57904  0.08757  0.81670  Biso   1.000  Tb
  C1       1.0000 0.60050  0.14190  0.72820  Biso   1.000  C
  C2       1.0000 0.62800  0.20270  0.73270  Biso   1.000  C
  C3       1.0000 0.62600  0.20800  0.68200  Biso   1.000  C
  H1       1.0000 0.60690  0.17270  0.64440  Biso   1.000  H
  C4       1.0000 0.65100  0.26240  0.68640  Biso   1.000  C
  C5       1.0000 0.67090  0.31340  0.74590  Biso   1.000  C
  H2       1.0000 0.68170  0.35190  0.74960  Biso   1.000  H
  C6       1.0000 0.67430  0.30840  0.79250  Biso   1.000  C
  C7       1.0000 0.65310  0.25520  0.78890  Biso   1.000  C
  H3       1.0000 0.65450  0.25190  0.82280  Biso   1.000  H
  C8       1.0000 0.69550  0.36160  0.84990  Biso   1.000  C
  C9       1.0000 0.64770  0.26980  0.63310  Biso   1.000  C
  H4       1.0000 0.68370  0.30740  0.64710  Biso   1.000  H
  H5       1.0000 0.64820  0.23610  0.60510  Biso   1.000  H
  C10      1.0000 0.54980  0.22260  0.55280  Biso   1.000  C
  H6       1.0000 0.55260  0.18750  0.53790  Biso   1.000  H
  C11      1.0000 0.49690  0.22160  0.52190  Biso   1.000  C
  H7       1.0000 0.46410  0.18610  0.48620  Biso   1.000  H
  C12      1.0000 0.49250  0.27380  0.54410  Biso   1.000  C
  C13      1.0000 0.54760  0.32200  0.58900  Biso   1.000  C
  H8       1.0000 0.55070  0.36020  0.60010  Biso   1.000  H
  C14      1.0000 0.59700  0.32210  0.61870  Biso   1.000  C
  H9       1.0000 0.63230  0.35840  0.65130  Biso   1.000  H
  C15      1.0000 0.43620  0.27070  0.51190  Biso   1.000  C
  C16      1.0000 0.38090  0.21540  0.46790  Biso   1.000  C
  H10      1.0000 0.37890  0.17820  0.46130  Biso   1.000  H
  C17      1.0000 0.33140  0.21620  0.43580  Biso   1.000  C
  H11      1.0000 0.29640  0.17910  0.40450  Biso   1.000  H
  C18      1.0000 0.38320  0.32260  0.48920  Biso   1.000  C
  H12      1.0000 0.38290  0.35890  0.49560  Biso   1.000  H
  C19      1.0000 0.43850  0.32670  0.52420  Biso   1.000  C
  H13      1.0000 0.47410  0.36410  0.55340  Biso   1.000  H
  N1       1.0000 0.32960  0.26850  0.44650  Biso   1.000  N
  N2       1.0000 0.59590  0.27160  0.60230  Biso   1.000  N
  O1       1.0000 0.56620  0.09540  0.67640  Biso   1.000  O
  O2       1.0000 0.61520  0.14350  0.77910  Biso   1.000  O
  O3       1.0000 0.70230  0.35620  0.89490  Biso   1.000  O
  O4       1.0000 0.70850  0.41190  0.85180  Biso   1.000  O
  O5       1.0000 0.56420  0.00870  0.73390  Biso   1.000  O
  H14      1.0000 0.59680  0.01210  0.73530  Biso   1.000  H
  Tb2      1.0000 0.77088  0.76234  0.68330  Biso   1.000  Tb
  C20      1.0000 0.91370  0.87230  0.77180  Biso   1.000  C
  C21      1.0000 0.97000  0.89530  0.76730  Biso   1.000  C
  C22      1.0000 0.02600  0.94400  0.81800  Biso   1.000  C
  H15      1.0000 0.02830  0.96250  0.85560  Biso   1.000  H
  C23      1.0000 0.07600  0.96460  0.81360  Biso   1.000  C
  C24      1.0000 0.06750  0.92500  0.75410  Biso   1.000  C
  H16      1.0000 0.10230  0.93210  0.75040  Biso   1.000  H
  C25      1.0000 0.01590  0.88180  0.70750  Biso   1.000  C
  C26      1.0000 0.96630  0.86420  0.71110  Biso   1.000  C
  H17      1.0000 0.92910  0.83170  0.67720  Biso   1.000  H
  C27      1.0000 0.01170  0.84560  0.65010  Biso   1.000  C
  C28      1.0000 0.13670  0.01460  0.86690  Biso   1.000  C
  H18      1.0000 0.16030  0.03660  0.85290  Biso   1.000  H
  H19      1.0000 0.13100  0.04310  0.89490  Biso   1.000  H
  C29      1.0000 0.16980  0.99700  0.94720  Biso   1.000  C
  H20      1.0000 0.14960  0.01470  0.96210  Biso   1.000  H
  C30      1.0000 0.19970  0.97500  0.97810  Biso   1.000  C
  H21      1.0000 0.19990  0.97790  0.01380  Biso   1.000  H
  C31      1.0000 0.22970  0.94840  0.95590  Biso   1.000  C
  C32      1.0000 0.23300  0.95860  0.91100  Biso   1.000  C
  H22      1.0000 0.26010  0.95060  0.89990  Biso   1.000  H
  C33      1.0000 0.20340  0.97830  0.88130  Biso   1.000  C
  H23      1.0000 0.20710  0.98100  0.84870  Biso   1.000  H
  C34      1.0000 0.25880  0.92430  0.98810  Biso   1.000  C
  C35      1.0000 0.24750  0.91300  0.03210  Biso   1.000  C
  H24      1.0000 0.21690  0.91760  0.03870  Biso   1.000  H
  C36      1.0000 0.28040  0.89560  0.06420  Biso   1.000  C
  H25      1.0000 0.27460  0.89190  0.09550  Biso   1.000  H
  C37      1.0000 0.33340  0.89400  0.01080  Biso   1.000  C
  H26      1.0000 0.36330  0.88730  0.00440  Biso   1.000  H
  C38      1.0000 0.30250  0.91430  0.97580  Biso   1.000  C
  H27      1.0000 0.31070  0.92070  0.94660  Biso   1.000  H
  N3       1.0000 0.32200  0.88310  0.05350  Biso   1.000  N
  N4       1.0000 0.16930  0.99360  0.89770  Biso   1.000  N
  O6       1.0000 0.91900  0.88980  0.82360  Biso   1.000  O
  O7       1.0000 0.86440  0.83610  0.72090  Biso   1.000  O
  O8       1.0000 0.96130  0.80740  0.60510  Biso   1.000  O
  O9       1.0000 0.06010  0.85670  0.64820  Biso   1.000  O
  O10      1.0000 0.77480  0.83030  0.76610  Biso   1.000  O
  H28      1.0000 0.77680  0.86150  0.76470  Biso   1.000  H
  Tb3      1.0000 0.72912  0.41243  0.99147  Biso   1.000  Tb
  C39      1.0000 0.58630  0.35810  0.95860  Biso   1.000  C
  C40      1.0000 0.53000  0.29730  0.92530  Biso   1.000  C
  C41      1.0000 0.47400  0.29200  0.91800  Biso   1.000  C
  H29      1.0000 0.47170  0.32730  0.93420  Biso   1.000  H
  C42      1.0000 0.42400  0.23760  0.88860  Biso   1.000  C
  C43      1.0000 0.43250  0.18660  0.85750  Biso   1.000  C
  H30      1.0000 0.39770  0.14810  0.82980  Biso   1.000  H
  C44      1.0000 0.48410  0.19160  0.86590  Biso   1.000  C
  C45      1.0000 0.53370  0.24480  0.89790  Biso   1.000  C
  H31      1.0000 0.57090  0.24810  0.90260  Biso   1.000  H
  C46      1.0000 0.48830  0.13840  0.83390  Biso   1.000  C
  C47      1.0000 0.36330  0.23020  0.87790  Biso   1.000  C
  H32      1.0000 0.33970  0.19260  0.87630  Biso   1.000  H
  H33      1.0000 0.36900  0.26390  0.91210  Biso   1.000  H
  C48      1.0000 0.33020  0.27740  0.82720  Biso   1.000  C
  H34      1.0000 0.35040  0.31250  0.86510  Biso   1.000  H
  C49      1.0000 0.30030  0.27840  0.77530  Biso   1.000  C
  H35      1.0000 0.30010  0.31390  0.77800  Biso   1.000  H
  C50      1.0000 0.27030  0.22620  0.71870  Biso   1.000  C
  C51      1.0000 0.26700  0.17800  0.72560  Biso   1.000  C
  H36      1.0000 0.23990  0.13980  0.69050  Biso   1.000  H
  C52      1.0000 0.29660  0.17790  0.77490  Biso   1.000  C
  H37      1.0000 0.29290  0.14160  0.77390  Biso   1.000  H
  C53      1.0000 0.24120  0.22930  0.66550  Biso   1.000  C
  C54      1.0000 0.25250  0.28460  0.66550  Biso   1.000  C
  H38      1.0000 0.28310  0.32180  0.70070  Biso   1.000  H
  C55      1.0000 0.21960  0.28380  0.61520  Biso   1.000  C
  H39      1.0000 0.22540  0.32090  0.61730  Biso   1.000  H
  C56      1.0000 0.16660  0.17740  0.56060  Biso   1.000  C
  H40      1.0000 0.13670  0.14110  0.52400  Biso   1.000  H
  C57      1.0000 0.19750  0.17330  0.61180  Biso   1.000  C
  H41      1.0000 0.18930  0.13590  0.61000  Biso   1.000  H
  N5       1.0000 0.17800  0.23150  0.56110  Biso   1.000  N
  N6       1.0000 0.33070  0.22840  0.82430  Biso   1.000  N
  O11      1.0000 0.58100  0.40460  0.97080  Biso   1.000  O
  O12      1.0000 0.63560  0.35650  0.97170  Biso   1.000  O
  O13      1.0000 0.53870  0.14380  0.84610  Biso   1.000  O
  O14      1.0000 0.43990  0.08810  0.79660  Biso   1.000  O
  O15      1.0000 0.72520  0.49130  0.05550  Biso   1.000  O
  H42      1.0000 0.72320  0.48790  0.08470  Biso   1.000  H
  Tb4      1.0000 0.92096  0.73766  0.50853  Biso   1.000  Tb
  C58      1.0000 0.89950  0.62770  0.54140  Biso   1.000  C
  C59      1.0000 0.87200  0.60470  0.57470  Biso   1.000  C
  C60      1.0000 0.87400  0.55600  0.58200  Biso   1.000  C
  H43      1.0000 0.89310  0.53750  0.56580  Biso   1.000  H
  C61      1.0000 0.84900  0.53540  0.61140  Biso   1.000  C
  C62      1.0000 0.82910  0.57500  0.64250  Biso   1.000  C
  H44      1.0000 0.81830  0.56790  0.67020  Biso   1.000  H
  C63      1.0000 0.82570  0.61820  0.63410  Biso   1.000  C
  C64      1.0000 0.84690  0.63580  0.60210  Biso   1.000  C
  H45      1.0000 0.84550  0.66830  0.59740  Biso   1.000  H
  C65      1.0000 0.80450  0.65440  0.66610  Biso   1.000  C
  C66      1.0000 0.85230  0.48540  0.62210  Biso   1.000  C
  H46      1.0000 0.81630  0.46340  0.62370  Biso   1.000  H
  H47      1.0000 0.85180  0.45690  0.58790  Biso   1.000  H
  C67      1.0000 0.95020  0.50300  0.67280  Biso   1.000  C
  H48      1.0000 0.94740  0.48530  0.63490  Biso   1.000  H
  C68      1.0000 0.00310  0.52500  0.72470  Biso   1.000  C
  H49      1.0000 0.03590  0.52210  0.72200  Biso   1.000  H
  C69      1.0000 0.00750  0.55160  0.78130  Biso   1.000  C
  C70      1.0000 0.95240  0.54140  0.77440  Biso   1.000  C
  H50      1.0000 0.94930  0.54940  0.80950  Biso   1.000  H
  C71      1.0000 0.90300  0.52170  0.72510  Biso   1.000  C
  H51      1.0000 0.86770  0.51900  0.72610  Biso   1.000  H
  C72      1.0000 0.06380  0.57570  0.83450  Biso   1.000  C
  C73      1.0000 0.11910  0.58700  0.83450  Biso   1.000  C
  H52      1.0000 0.12110  0.58240  0.79930  Biso   1.000  H
  C74      1.0000 0.16860  0.60440  0.88480  Biso   1.000  C
  H53      1.0000 0.20360  0.60810  0.88270  Biso   1.000  H
  C75      1.0000 0.11680  0.60600  0.93940  Biso   1.000  C
  H54      1.0000 0.11710  0.61270  0.97600  Biso   1.000  H
  C76      1.0000 0.06150  0.58570  0.88820  Biso   1.000  C
  H55      1.0000 0.02590  0.57930  0.89000  Biso   1.000  H
  N7       1.0000 0.17040  0.61690  0.93890  Biso   1.000  N
  N8       1.0000 0.90410  0.50640  0.67570  Biso   1.000  N
  O16      1.0000 0.93380  0.61020  0.52920  Biso   1.000  O
  O17      1.0000 0.88480  0.66390  0.52830  Biso   1.000  O
  O18      1.0000 0.79770  0.69260  0.65390  Biso   1.000  O
  O19      1.0000 0.79150  0.64330  0.70340  Biso   1.000  O
  O20      1.0000 0.93580  0.66970  0.44450  Biso   1.000  O
  H56      1.0000 0.90320  0.63850  0.41530  Biso   1.000  H
  Tb5      1.0000 0.81670  0.57904  0.08757  Biso   1.000  Tb
  C77      1.0000 0.72820  0.60050  0.14190  Biso   1.000  C
  C78      1.0000 0.73270  0.62800  0.20270  Biso   1.000  C
  C79      1.0000 0.68200  0.62600  0.20800  Biso   1.000  C
  H57      1.0000 0.64440  0.60690  0.17270  Biso   1.000  H
  C80      1.0000 0.68640  0.65100  0.26240  Biso   1.000  C
  C81      1.0000 0.74590  0.67090  0.31340  Biso   1.000  C
  H58      1.0000 0.74960  0.68170  0.35190  Biso   1.000  H
  C82      1.0000 0.79250  0.67430  0.30840  Biso   1.000  C
  C83      1.0000 0.78890  0.65310  0.25520  Biso   1.000  C
  H59      1.0000 0.82280  0.65450  0.25190  Biso   1.000  H
  C84      1.0000 0.84990  0.69550  0.36160  Biso   1.000  C
  C85      1.0000 0.63310  0.64770  0.26980  Biso   1.000  C
  H60      1.0000 0.64710  0.68370  0.30740  Biso   1.000  H
  H61      1.0000 0.60510  0.64820  0.23610  Biso   1.000  H
  C86      1.0000 0.55280  0.54980  0.22260  Biso   1.000  C
  H62      1.0000 0.53790  0.55260  0.18750  Biso   1.000  H
  C87      1.0000 0.52190  0.49690  0.22160  Biso   1.000  C
  H63      1.0000 0.48620  0.46410  0.18610  Biso   1.000  H
  C88      1.0000 0.54410  0.49250  0.27380  Biso   1.000  C
  C89      1.0000 0.58900  0.54760  0.32200  Biso   1.000  C
  H64      1.0000 0.60010  0.55070  0.36020  Biso   1.000  H
  C90      1.0000 0.61870  0.59700  0.32210  Biso   1.000  C
  H65      1.0000 0.65130  0.63230  0.35840  Biso   1.000  H
  C91      1.0000 0.51190  0.43620  0.27070  Biso   1.000  C
  C92      1.0000 0.46790  0.38090  0.21540  Biso   1.000  C
  H66      1.0000 0.46130  0.37890  0.17820  Biso   1.000  H
  C93      1.0000 0.43580  0.33140  0.21620  Biso   1.000  C
  H67      1.0000 0.40450  0.29640  0.17910  Biso   1.000  H
  C94      1.0000 0.48920  0.38320  0.32260  Biso   1.000  C
  H68      1.0000 0.49560  0.38290  0.35890  Biso   1.000  H
  C95      1.0000 0.52420  0.43850  0.32670  Biso   1.000  C
  H69      1.0000 0.55340  0.47410  0.36410  Biso   1.000  H
  N9       1.0000 0.44650  0.32960  0.26850  Biso   1.000  N
  N10      1.0000 0.60230  0.59590  0.27160  Biso   1.000  N
  O21      1.0000 0.67640  0.56620  0.09540  Biso   1.000  O
  O22      1.0000 0.77910  0.61520  0.14350  Biso   1.000  O
  O23      1.0000 0.89490  0.70230  0.35620  Biso   1.000  O
  O24      1.0000 0.85180  0.70850  0.41190  Biso   1.000  O
  O25      1.0000 0.73390  0.56420  0.00870  Biso   1.000  O
  H70      1.0000 0.73530  0.59680  0.01210  Biso   1.000  H
  Tb6      1.0000 0.68330  0.77088  0.76234  Biso   1.000  Tb
  C96      1.0000 0.77180  0.91370  0.87230  Biso   1.000  C
  C97      1.0000 0.76730  0.97000  0.89530  Biso   1.000  C
  C98      1.0000 0.81800  0.02600  0.94400  Biso   1.000  C
  H71      1.0000 0.85560  0.02830  0.96250  Biso   1.000  H
  C99      1.0000 0.81360  0.07600  0.96460  Biso   1.000  C
  C100     1.0000 0.75410  0.06750  0.92500  Biso   1.000  C
  H72      1.0000 0.75040  0.10230  0.93210  Biso   1.000  H
  C101     1.0000 0.70750  0.01590  0.88180  Biso   1.000  C
  C102     1.0000 0.71110  0.96630  0.86420  Biso   1.000  C
  H73      1.0000 0.67720  0.92910  0.83170  Biso   1.000  H
  C103     1.0000 0.65010  0.01170  0.84560  Biso   1.000  C
  C104     1.0000 0.86690  0.13670  0.01460  Biso   1.000  C
  H74      1.0000 0.85290  0.16030  0.03660  Biso   1.000  H
  H75      1.0000 0.89490  0.13100  0.04310  Biso   1.000  H
  C105     1.0000 0.94720  0.16980  0.99700  Biso   1.000  C
  H76      1.0000 0.96210  0.14960  0.01470  Biso   1.000  H
  C106     1.0000 0.97810  0.19970  0.97500  Biso   1.000  C
  H77      1.0000 0.01380  0.19990  0.97790  Biso   1.000  H
  C107     1.0000 0.95590  0.22970  0.94840  Biso   1.000  C
  C108     1.0000 0.91100  0.23300  0.95860  Biso   1.000  C
  H78      1.0000 0.89990  0.26010  0.95060  Biso   1.000  H
  C109     1.0000 0.88130  0.20340  0.97830  Biso   1.000  C
  H79      1.0000 0.84870  0.20710  0.98100  Biso   1.000  H
  C110     1.0000 0.98810  0.25880  0.92430  Biso   1.000  C
  C111     1.0000 0.03210  0.24750  0.91300  Biso   1.000  C
  H80      1.0000 0.03870  0.21690  0.91760  Biso   1.000  H
  C112     1.0000 0.06420  0.28040  0.89560  Biso   1.000  C
  H81      1.0000 0.09550  0.27460  0.89190  Biso   1.000  H
  C113     1.0000 0.01080  0.33340  0.89400  Biso   1.000  C
  H82      1.0000 0.00440  0.36330  0.88730  Biso   1.000  H
  C114     1.0000 0.97580  0.30250  0.91430  Biso   1.000  C
  H83      1.0000 0.94660  0.31070  0.92070  Biso   1.000  H
  N11      1.0000 0.05350  0.32200  0.88310  Biso   1.000  N
  N12      1.0000 0.89770  0.16930  0.99360  Biso   1.000  N
  O26      1.0000 0.82360  0.91900  0.88980  Biso   1.000  O
  O27      1.0000 0.72090  0.86440  0.83610  Biso   1.000  O
  O28      1.0000 0.60510  0.96130  0.80740  Biso   1.000  O
  O29      1.0000 0.64820  0.06010  0.85670  Biso   1.000  O
  O30      1.0000 0.76610  0.77480  0.83030  Biso   1.000  O
  H84      1.0000 0.76470  0.77680  0.86150  Biso   1.000  H
  Tb7      1.0000 0.99147  0.72912  0.41243  Biso   1.000  Tb
  C115     1.0000 0.95860  0.58630  0.35810  Biso   1.000  C
  C116     1.0000 0.92530  0.53000  0.29730  Biso   1.000  C
  C117     1.0000 0.91800  0.47400  0.29200  Biso   1.000  C
  H85      1.0000 0.93420  0.47170  0.32730  Biso   1.000  H
  C118     1.0000 0.88860  0.42400  0.23760  Biso   1.000  C
  C119     1.0000 0.85750  0.43250  0.18660  Biso   1.000  C
  H86      1.0000 0.82980  0.39770  0.14810  Biso   1.000  H
  C120     1.0000 0.86590  0.48410  0.19160  Biso   1.000  C
  C121     1.0000 0.89790  0.53370  0.24480  Biso   1.000  C
  H87      1.0000 0.90260  0.57090  0.24810  Biso   1.000  H
  C122     1.0000 0.83390  0.48830  0.13840  Biso   1.000  C
  C123     1.0000 0.87790  0.36330  0.23020  Biso   1.000  C
  H88      1.0000 0.87630  0.33970  0.19260  Biso   1.000  H
  H89      1.0000 0.91210  0.36900  0.26390  Biso   1.000  H
  C124     1.0000 0.82720  0.33020  0.27740  Biso   1.000  C
  H90      1.0000 0.86510  0.35040  0.31250  Biso   1.000  H
  C125     1.0000 0.77530  0.30030  0.27840  Biso   1.000  C
  H91      1.0000 0.77800  0.30010  0.31390  Biso   1.000  H
  C126     1.0000 0.71870  0.27030  0.22620  Biso   1.000  C
  C127     1.0000 0.72560  0.26700  0.17800  Biso   1.000  C
  H92      1.0000 0.69050  0.23990  0.13980  Biso   1.000  H
  C128     1.0000 0.77490  0.29660  0.17790  Biso   1.000  C
  H93      1.0000 0.77390  0.29290  0.14160  Biso   1.000  H
  C129     1.0000 0.66550  0.24120  0.22930  Biso   1.000  C
  C130     1.0000 0.66550  0.25250  0.28460  Biso   1.000  C
  H94      1.0000 0.70070  0.28310  0.32180  Biso   1.000  H
  C131     1.0000 0.61520  0.21960  0.28380  Biso   1.000  C
  H95      1.0000 0.61730  0.22540  0.32090  Biso   1.000  H
  C132     1.0000 0.56060  0.16660  0.17740  Biso   1.000  C
  H96      1.0000 0.52400  0.13670  0.14110  Biso   1.000  H
  C133     1.0000 0.61180  0.19750  0.17330  Biso   1.000  C
  H97      1.0000 0.61000  0.18930  0.13590  Biso   1.000  H
  N13      1.0000 0.56110  0.17800  0.23150  Biso   1.000  N
  N14      1.0000 0.82430  0.33070  0.22840  Biso   1.000  N
  O31      1.0000 0.97080  0.58100  0.40460  Biso   1.000  O
  O32      1.0000 0.97170  0.63560  0.35650  Biso   1.000  O
  O33      1.0000 0.84610  0.53870  0.14380  Biso   1.000  O
  O34      1.0000 0.79660  0.43990  0.08810  Biso   1.000  O
  O35      1.0000 0.05550  0.72520  0.49130  Biso   1.000  O
  H98      1.0000 0.08470  0.72320  0.48790  Biso   1.000  H
  Tb8      1.0000 0.50853  0.92096  0.73766  Biso   1.000  Tb
  C134     1.0000 0.54140  0.89950  0.62770  Biso   1.000  C
  C135     1.0000 0.57470  0.87200  0.60470  Biso   1.000  C
  C136     1.0000 0.58200  0.87400  0.55600  Biso   1.000  C
  H99      1.0000 0.56580  0.89310  0.53750  Biso   1.000  H
  C137     1.0000 0.61140  0.84900  0.53540  Biso   1.000  C
  C138     1.0000 0.64250  0.82910  0.57500  Biso   1.000  C
  H100     1.0000 0.67020  0.81830  0.56790  Biso   1.000  H
  C139     1.0000 0.63410  0.82570  0.61820  Biso   1.000  C
  C140     1.0000 0.60210  0.84690  0.63580  Biso   1.000  C
  H101     1.0000 0.59740  0.84550  0.66830  Biso   1.000  H
  C141     1.0000 0.66610  0.80450  0.65440  Biso   1.000  C
  C142     1.0000 0.62210  0.85230  0.48540  Biso   1.000  C
  H102     1.0000 0.62370  0.81630  0.46340  Biso   1.000  H
  H103     1.0000 0.58790  0.85180  0.45690  Biso   1.000  H
  C143     1.0000 0.67280  0.95020  0.50300  Biso   1.000  C
  H104     1.0000 0.63490  0.94740  0.48530  Biso   1.000  H
  C144     1.0000 0.72470  0.00310  0.52500  Biso   1.000  C
  H105     1.0000 0.72200  0.03590  0.52210  Biso   1.000  H
  C145     1.0000 0.78130  0.00750  0.55160  Biso   1.000  C
  C146     1.0000 0.77440  0.95240  0.54140  Biso   1.000  C
  H106     1.0000 0.80950  0.94930  0.54940  Biso   1.000  H
  C147     1.0000 0.72510  0.90300  0.52170  Biso   1.000  C
  H107     1.0000 0.72610  0.86770  0.51900  Biso   1.000  H
  C148     1.0000 0.83450  0.06380  0.57570  Biso   1.000  C
  C149     1.0000 0.83450  0.11910  0.58700  Biso   1.000  C
  H108     1.0000 0.79930  0.12110  0.58240  Biso   1.000  H
  C150     1.0000 0.88480  0.16860  0.60440  Biso   1.000  C
  H109     1.0000 0.88270  0.20360  0.60810  Biso   1.000  H
  C151     1.0000 0.93940  0.11680  0.60600  Biso   1.000  C
  H110     1.0000 0.97600  0.11710  0.61270  Biso   1.000  H
  C152     1.0000 0.88820  0.06150  0.58570  Biso   1.000  C
  H111     1.0000 0.89000  0.02590  0.57930  Biso   1.000  H
  N15      1.0000 0.93890  0.17040  0.61690  Biso   1.000  N
  N16      1.0000 0.67570  0.90410  0.50640  Biso   1.000  N
  O36      1.0000 0.52920  0.93380  0.61020  Biso   1.000  O
  O37      1.0000 0.52830  0.88480  0.66390  Biso   1.000  O
  O38      1.0000 0.65390  0.79770  0.69260  Biso   1.000  O
  O39      1.0000 0.70340  0.79150  0.64330  Biso   1.000  O
  O40      1.0000 0.44450  0.93580  0.66970  Biso   1.000  O
  H112     1.0000 0.41530  0.90320  0.63850  Biso   1.000  H
  Tb9      1.0000 0.08757  0.81670  0.57904  Biso   1.000  Tb
  C153     1.0000 0.14190  0.72820  0.60050  Biso   1.000  C
  C154     1.0000 0.20270  0.73270  0.62800  Biso   1.000  C
  C155     1.0000 0.20800  0.68200  0.62600  Biso   1.000  C
  H113     1.0000 0.17270  0.64440  0.60690  Biso   1.000  H
  C156     1.0000 0.26240  0.68640  0.65100  Biso   1.000  C
  C157     1.0000 0.31340  0.74590  0.67090  Biso   1.000  C
  H114     1.0000 0.35190  0.74960  0.68170  Biso   1.000  H
  C158     1.0000 0.30840  0.79250  0.67430  Biso   1.000  C
  C159     1.0000 0.25520  0.78890  0.65310  Biso   1.000  C
  H115     1.0000 0.25190  0.82280  0.65450  Biso   1.000  H
  C160     1.0000 0.36160  0.84990  0.69550  Biso   1.000  C
  C161     1.0000 0.26980  0.63310  0.64770  Biso   1.000  C
  H116     1.0000 0.30740  0.64710  0.68370  Biso   1.000  H
  H117     1.0000 0.23610  0.60510  0.64820  Biso   1.000  H
  C162     1.0000 0.22260  0.55280  0.54980  Biso   1.000  C
  H118     1.0000 0.18750  0.53790  0.55260  Biso   1.000  H
  C163     1.0000 0.22160  0.52190  0.49690  Biso   1.000  C
  H119     1.0000 0.18610  0.48620  0.46410  Biso   1.000  H
  C164     1.0000 0.27380  0.54410  0.49250  Biso   1.000  C
  C165     1.0000 0.32200  0.58900  0.54760  Biso   1.000  C
  H120     1.0000 0.36020  0.60010  0.55070  Biso   1.000  H
  C166     1.0000 0.32210  0.61870  0.59700  Biso   1.000  C
  H121     1.0000 0.35840  0.65130  0.63230  Biso   1.000  H
  C167     1.0000 0.27070  0.51190  0.43620  Biso   1.000  C
  C168     1.0000 0.21540  0.46790  0.38090  Biso   1.000  C
  H122     1.0000 0.17820  0.46130  0.37890  Biso   1.000  H
  C169     1.0000 0.21620  0.43580  0.33140  Biso   1.000  C
  H123     1.0000 0.17910  0.40450  0.29640  Biso   1.000  H
  C170     1.0000 0.32260  0.48920  0.38320  Biso   1.000  C
  H124     1.0000 0.35890  0.49560  0.38290  Biso   1.000  H
  C171     1.0000 0.32670  0.52420  0.43850  Biso   1.000  C
  H125     1.0000 0.36410  0.55340  0.47410  Biso   1.000  H
  N17      1.0000 0.26850  0.44650  0.32960  Biso   1.000  N
  N18      1.0000 0.27160  0.60230  0.59590  Biso   1.000  N
  O41      1.0000 0.09540  0.67640  0.56620  Biso   1.000  O
  O42      1.0000 0.14350  0.77910  0.61520  Biso   1.000  O
  O43      1.0000 0.35620  0.89490  0.70230  Biso   1.000  O
  O44      1.0000 0.41190  0.85180  0.70850  Biso   1.000  O
  O45      1.0000 0.00870  0.73390  0.56420  Biso   1.000  O
  H126     1.0000 0.01210  0.73530  0.59680  Biso   1.000  H
  Tb10     1.0000 0.76234  0.68330  0.77088  Biso   1.000  Tb
  C172     1.0000 0.87230  0.77180  0.91370  Biso   1.000  C
  C173     1.0000 0.89530  0.76730  0.97000  Biso   1.000  C
  C174     1.0000 0.94400  0.81800  0.02600  Biso   1.000  C
  H127     1.0000 0.96250  0.85560  0.02830  Biso   1.000  H
  C175     1.0000 0.96460  0.81360  0.07600  Biso   1.000  C
  C176     1.0000 0.92500  0.75410  0.06750  Biso   1.000  C
  H128     1.0000 0.93210  0.75040  0.10230  Biso   1.000  H
  C177     1.0000 0.88180  0.70750  0.01590  Biso   1.000  C
  C178     1.0000 0.86420  0.71110  0.96630  Biso   1.000  C
  H129     1.0000 0.83170  0.67720  0.92910  Biso   1.000  H
  C179     1.0000 0.84560  0.65010  0.01170  Biso   1.000  C
  C180     1.0000 0.01460  0.86690  0.13670  Biso   1.000  C
  H130     1.0000 0.03660  0.85290  0.16030  Biso   1.000  H
  H131     1.0000 0.04310  0.89490  0.13100  Biso   1.000  H
  C181     1.0000 0.99700  0.94720  0.16980  Biso   1.000  C
  H132     1.0000 0.01470  0.96210  0.14960  Biso   1.000  H
  C182     1.0000 0.97500  0.97810  0.19970  Biso   1.000  C
  H133     1.0000 0.97790  0.01380  0.19990  Biso   1.000  H
  C183     1.0000 0.94840  0.95590  0.22970  Biso   1.000  C
  C184     1.0000 0.95860  0.91100  0.23300  Biso   1.000  C
  H134     1.0000 0.95060  0.89990  0.26010  Biso   1.000  H
  C185     1.0000 0.97830  0.88130  0.20340  Biso   1.000  C
  H135     1.0000 0.98100  0.84870  0.20710  Biso   1.000  H
  C186     1.0000 0.92430  0.98810  0.25880  Biso   1.000  C
  C187     1.0000 0.91300  0.03210  0.24750  Biso   1.000  C
  H136     1.0000 0.91760  0.03870  0.21690  Biso   1.000  H
  C188     1.0000 0.89560  0.06420  0.28040  Biso   1.000  C
  H137     1.0000 0.89190  0.09550  0.27460  Biso   1.000  H
  C189     1.0000 0.89400  0.01080  0.33340  Biso   1.000  C
  H138     1.0000 0.88730  0.00440  0.36330  Biso   1.000  H
  C190     1.0000 0.91430  0.97580  0.30250  Biso   1.000  C
  H139     1.0000 0.92070  0.94660  0.31070  Biso   1.000  H
  N19      1.0000 0.88310  0.05350  0.32200  Biso   1.000  N
  N20      1.0000 0.99360  0.89770  0.16930  Biso   1.000  N
  O46      1.0000 0.88980  0.82360  0.91900  Biso   1.000  O
  O47      1.0000 0.83610  0.72090  0.86440  Biso   1.000  O
  O48      1.0000 0.80740  0.60510  0.96130  Biso   1.000  O
  O49      1.0000 0.85670  0.64820  0.06010  Biso   1.000  O
  O50      1.0000 0.83030  0.76610  0.77480  Biso   1.000  O
  H140     1.0000 0.86150  0.76470  0.77680  Biso   1.000  H
  Tb11     1.0000 0.41243  0.99147  0.72912  Biso   1.000  Tb
  C191     1.0000 0.35810  0.95860  0.58630  Biso   1.000  C
  C192     1.0000 0.29730  0.92530  0.53000  Biso   1.000  C
  C193     1.0000 0.29200  0.91800  0.47400  Biso   1.000  C
  H141     1.0000 0.32730  0.93420  0.47170  Biso   1.000  H
  C194     1.0000 0.23760  0.88860  0.42400  Biso   1.000  C
  C195     1.0000 0.18660  0.85750  0.43250  Biso   1.000  C
  H142     1.0000 0.14810  0.82980  0.39770  Biso   1.000  H
  C196     1.0000 0.19160  0.86590  0.48410  Biso   1.000  C
  C197     1.0000 0.24480  0.89790  0.53370  Biso   1.000  C
  H143     1.0000 0.24810  0.90260  0.57090  Biso   1.000  H
  C198     1.0000 0.13840  0.83390  0.48830  Biso   1.000  C
  C199     1.0000 0.23020  0.87790  0.36330  Biso   1.000  C
  H144     1.0000 0.19260  0.87630  0.33970  Biso   1.000  H
  H145     1.0000 0.26390  0.91210  0.36900  Biso   1.000  H
  C200     1.0000 0.27740  0.82720  0.33020  Biso   1.000  C
  H146     1.0000 0.31250  0.86510  0.35040  Biso   1.000  H
  C201     1.0000 0.27840  0.77530  0.30030  Biso   1.000  C
  H147     1.0000 0.31390  0.77800  0.30010  Biso   1.000  H
  C202     1.0000 0.22620  0.71870  0.27030  Biso   1.000  C
  C203     1.0000 0.17800  0.72560  0.26700  Biso   1.000  C
  H148     1.0000 0.13980  0.69050  0.23990  Biso   1.000  H
  C204     1.0000 0.17790  0.77490  0.29660  Biso   1.000  C
  H149     1.0000 0.14160  0.77390  0.29290  Biso   1.000  H
  C205     1.0000 0.22930  0.66550  0.24120  Biso   1.000  C
  C206     1.0000 0.28460  0.66550  0.25250  Biso   1.000  C
  H150     1.0000 0.32180  0.70070  0.28310  Biso   1.000  H
  C207     1.0000 0.28380  0.61520  0.21960  Biso   1.000  C
  H151     1.0000 0.32090  0.61730  0.22540  Biso   1.000  H
  C208     1.0000 0.17740  0.56060  0.16660  Biso   1.000  C
  H152     1.0000 0.14110  0.52400  0.13670  Biso   1.000  H
  C209     1.0000 0.17330  0.61180  0.19750  Biso   1.000  C
  H153     1.0000 0.13590  0.61000  0.18930  Biso   1.000  H
  N21      1.0000 0.23150  0.56110  0.17800  Biso   1.000  N
  N22      1.0000 0.22840  0.82430  0.33070  Biso   1.000  N
  O51      1.0000 0.40460  0.97080  0.58100  Biso   1.000  O
  O52      1.0000 0.35650  0.97170  0.63560  Biso   1.000  O
  O53      1.0000 0.14380  0.84610  0.53870  Biso   1.000  O
  O54      1.0000 0.08810  0.79660  0.43990  Biso   1.000  O
  O55      1.0000 0.49130  0.05550  0.72520  Biso   1.000  O
  H154     1.0000 0.48790  0.08470  0.72320  Biso   1.000  H
  Tb12     1.0000 0.73766  0.50853  0.92096  Biso   1.000  Tb
  C210     1.0000 0.62770  0.54140  0.89950  Biso   1.000  C
  C211     1.0000 0.60470  0.57470  0.87200  Biso   1.000  C
  C212     1.0000 0.55600  0.58200  0.87400  Biso   1.000  C
  H155     1.0000 0.53750  0.56580  0.89310  Biso   1.000  H
  C213     1.0000 0.53540  0.61140  0.84900  Biso   1.000  C
  C214     1.0000 0.57500  0.64250  0.82910  Biso   1.000  C
  H156     1.0000 0.56790  0.67020  0.81830  Biso   1.000  H
  C215     1.0000 0.61820  0.63410  0.82570  Biso   1.000  C
  C216     1.0000 0.63580  0.60210  0.84690  Biso   1.000  C
  H157     1.0000 0.66830  0.59740  0.84550  Biso   1.000  H
  C217     1.0000 0.65440  0.66610  0.80450  Biso   1.000  C
  C218     1.0000 0.48540  0.62210  0.85230  Biso   1.000  C
  H158     1.0000 0.46340  0.62370  0.81630  Biso   1.000  H
  H159     1.0000 0.45690  0.58790  0.85180  Biso   1.000  H
  C219     1.0000 0.50300  0.67280  0.95020  Biso   1.000  C
  H160     1.0000 0.48530  0.63490  0.94740  Biso   1.000  H
  C220     1.0000 0.52500  0.72470  0.00310  Biso   1.000  C
  H161     1.0000 0.52210  0.72200  0.03590  Biso   1.000  H
  C221     1.0000 0.55160  0.78130  0.00750  Biso   1.000  C
  C222     1.0000 0.54140  0.77440  0.95240  Biso   1.000  C
  H162     1.0000 0.54940  0.80950  0.94930  Biso   1.000  H
  C223     1.0000 0.52170  0.72510  0.90300  Biso   1.000  C
  H163     1.0000 0.51900  0.72610  0.86770  Biso   1.000  H
  C224     1.0000 0.57570  0.83450  0.06380  Biso   1.000  C
  C225     1.0000 0.58700  0.83450  0.11910  Biso   1.000  C
  H164     1.0000 0.58240  0.79930  0.12110  Biso   1.000  H
  C226     1.0000 0.60440  0.88480  0.16860  Biso   1.000  C
  H165     1.0000 0.60810  0.88270  0.20360  Biso   1.000  H
  C227     1.0000 0.60600  0.93940  0.11680  Biso   1.000  C
  H166     1.0000 0.61270  0.97600  0.11710  Biso   1.000  H
  C228     1.0000 0.58570  0.88820  0.06150  Biso   1.000  C
  H167     1.0000 0.57930  0.89000  0.02590  Biso   1.000  H
  N23      1.0000 0.61690  0.93890  0.17040  Biso   1.000  N
  N24      1.0000 0.50640  0.67570  0.90410  Biso   1.000  N
  O56      1.0000 0.61020  0.52920  0.93380  Biso   1.000  O
  O57      1.0000 0.66390  0.52830  0.88480  Biso   1.000  O
  O58      1.0000 0.69260  0.65390  0.79770  Biso   1.000  O
  O59      1.0000 0.64330  0.70340  0.79150  Biso   1.000  O
  O60      1.0000 0.66970  0.44450  0.93580  Biso   1.000  O
  H168     1.0000 0.63850  0.41530  0.90320  Biso   1.000  H
  Tb13     1.0000 0.50000  0.00000  0.64812  Biso   1.000  Tb
  O61      1.0000 0.50000  0.00000  0.79260  Biso   1.000  O
  H169     1.0000 0.50000  0.00000  0.82920  Biso   1.000  H
  Tb14     1.0000 0.85188  0.85188  0.85188  Biso   1.000  Tb
  O62      1.0000 0.70740  0.70740  0.70740  Biso   1.000  O
  H170     1.0000 0.67080  0.67080  0.67080  Biso   1.000  H
  Tb15     1.0000 0.64812  0.50000  0.00000  Biso   1.000  Tb
  O63      1.0000 0.79260  0.50000  0.00000  Biso   1.000  O
  H171     1.0000 0.82920  0.50000  0.00000  Biso   1.000  H
  Tb16     1.0000 1.00000  0.64812  0.50000  Biso   1.000  Tb
  O64      1.0000 0.00000  0.79260  0.50000  Biso   1.000  O
  H172     1.0000 1.00000  0.82920  0.50000  Biso   1.000  H
  Tb17     1.0000 0.58757  0.07904  0.31670  Biso   1.000  Tb
  C229     1.0000 0.64190  0.10050  0.22820  Biso   1.000  C
  C230     1.0000 0.70270  0.12800  0.23270  Biso   1.000  C
  C231     1.0000 0.70800  0.12600  0.18200  Biso   1.000  C
  H173     1.0000 0.67270  0.10690  0.14440  Biso   1.000  H
  C232     1.0000 0.76240  0.15100  0.18640  Biso   1.000  C
  C233     1.0000 0.81340  0.17090  0.24590  Biso   1.000  C
  H174     1.0000 0.85190  0.18170  0.24960  Biso   1.000  H
  C234     1.0000 0.80840  0.17430  0.29250  Biso   1.000  C
  C235     1.0000 0.75520  0.15310  0.28890  Biso   1.000  C
  H175     1.0000 0.75190  0.15450  0.32280  Biso   1.000  H
  C236     1.0000 0.86160  0.19550  0.34990  Biso   1.000  C
  C237     1.0000 0.76980  0.14770  0.13310  Biso   1.000  C
  H176     1.0000 0.80740  0.18370  0.14710  Biso   1.000  H
  H177     1.0000 0.73610  0.14820  0.10510  Biso   1.000  H
  C238     1.0000 0.72260  0.04980  0.05280  Biso   1.000  C
  H178     1.0000 0.68750  0.05260  0.03790  Biso   1.000  H
  C239     1.0000 0.72160  0.99690  0.02190  Biso   1.000  C
  H179     1.0000 0.68610  0.96410  0.98620  Biso   1.000  H
  C240     1.0000 0.77380  0.99250  0.04410  Biso   1.000  C
  C241     1.0000 0.82200  0.04760  0.08900  Biso   1.000  C
  H180     1.0000 0.86020  0.05070  0.10010  Biso   1.000  H
  C242     1.0000 0.82210  0.09700  0.11870  Biso   1.000  C
  H181     1.0000 0.85840  0.13230  0.15130  Biso   1.000  H
  C243     1.0000 0.77070  0.93620  0.01190  Biso   1.000  C
  C244     1.0000 0.71540  0.88090  0.96790  Biso   1.000  C
  H182     1.0000 0.67820  0.87890  0.96130  Biso   1.000  H
  C245     1.0000 0.71620  0.83140  0.93580  Biso   1.000  C
  H183     1.0000 0.67910  0.79640  0.90450  Biso   1.000  H
  C246     1.0000 0.82260  0.88320  0.98920  Biso   1.000  C
  H184     1.0000 0.85890  0.88290  0.99560  Biso   1.000  H
  C247     1.0000 0.82670  0.93850  0.02420  Biso   1.000  C
  H185     1.0000 0.86410  0.97410  0.05340  Biso   1.000  H
  N25      1.0000 0.76850  0.82960  0.94650  Biso   1.000  N
  N26      1.0000 0.77160  0.09590  0.10230  Biso   1.000  N
  O65      1.0000 0.59540  0.06620  0.17640  Biso   1.000  O
  O66      1.0000 0.64350  0.11520  0.27910  Biso   1.000  O
  O67      1.0000 0.85620  0.20230  0.39490  Biso   1.000  O
  O68      1.0000 0.91190  0.20850  0.35180  Biso   1.000  O
  O69      1.0000 0.50870  0.06420  0.23390  Biso   1.000  O
  H186     1.0000 0.51210  0.09680  0.23530  Biso   1.000  H
  Tb18     1.0000 0.26234  0.27088  0.18330  Biso   1.000  Tb
  C248     1.0000 0.37230  0.41370  0.27180  Biso   1.000  C
  C249     1.0000 0.39530  0.47000  0.26730  Biso   1.000  C
  C250     1.0000 0.44400  0.52600  0.31800  Biso   1.000  C
  H187     1.0000 0.46250  0.52830  0.35560  Biso   1.000  H
  C251     1.0000 0.46460  0.57600  0.31360  Biso   1.000  C
  C252     1.0000 0.42500  0.56750  0.25410  Biso   1.000  C
  H188     1.0000 0.43210  0.60230  0.25040  Biso   1.000  H
  C253     1.0000 0.38180  0.51590  0.20750  Biso   1.000  C
  C254     1.0000 0.36420  0.46630  0.21110  Biso   1.000  C
  H189     1.0000 0.33170  0.42910  0.17720  Biso   1.000  H
  C255     1.0000 0.34560  0.51170  0.15010  Biso   1.000  C
  C256     1.0000 0.51460  0.63670  0.36690  Biso   1.000  C
  H190     1.0000 0.53660  0.66030  0.35290  Biso   1.000  H
  H191     1.0000 0.54310  0.63100  0.39490  Biso   1.000  H
  C257     1.0000 0.49700  0.66980  0.44720  Biso   1.000  C
  H192     1.0000 0.51470  0.64960  0.46210  Biso   1.000  H
  C258     1.0000 0.47500  0.69970  0.47810  Biso   1.000  C
  H193     1.0000 0.47790  0.69990  0.51380  Biso   1.000  H
  C259     1.0000 0.44840  0.72970  0.45590  Biso   1.000  C
  C260     1.0000 0.45860  0.73300  0.41100  Biso   1.000  C
  H194     1.0000 0.45060  0.76010  0.39990  Biso   1.000  H
  C261     1.0000 0.47830  0.70340  0.38130  Biso   1.000  C
  H195     1.0000 0.48100  0.70710  0.34870  Biso   1.000  H
  C262     1.0000 0.42430  0.75880  0.48810  Biso   1.000  C
  C263     1.0000 0.41300  0.74750  0.53210  Biso   1.000  C
  H196     1.0000 0.41760  0.71690  0.53870  Biso   1.000  H
  C264     1.0000 0.39560  0.78040  0.56420  Biso   1.000  C
  H197     1.0000 0.39190  0.77460  0.59550  Biso   1.000  H
  C265     1.0000 0.39400  0.83340  0.51080  Biso   1.000  C
  H198     1.0000 0.38730  0.86330  0.50440  Biso   1.000  H
  C266     1.0000 0.41430  0.80250  0.47580  Biso   1.000  C
  H199     1.0000 0.42070  0.81070  0.44660  Biso   1.000  H
  N27      1.0000 0.38310  0.82200  0.55350  Biso   1.000  N
  N28      1.0000 0.49360  0.66930  0.39770  Biso   1.000  N
  O70      1.0000 0.38980  0.41900  0.32360  Biso   1.000  O
  O71      1.0000 0.33610  0.36440  0.22090  Biso   1.000  O
  O72      1.0000 0.30740  0.46130  0.10510  Biso   1.000  O
  O73      1.0000 0.35670  0.56010  0.14820  Biso   1.000  O
  O74      1.0000 0.33030  0.27480  0.26610  Biso   1.000  O
  H200     1.0000 0.36150  0.27680  0.26470  Biso   1.000  H
  Tb19     1.0000 0.91243  0.22912  0.49147  Biso   1.000  Tb
  C267     1.0000 0.85810  0.08630  0.45860  Biso   1.000  C
  C268     1.0000 0.79730  0.03000  0.42530  Biso   1.000  C
  C269     1.0000 0.79200  0.97400  0.41800  Biso   1.000  C
  H201     1.0000 0.82730  0.97170  0.43420  Biso   1.000  H
  C270     1.0000 0.73760  0.92400  0.38860  Biso   1.000  C
  C271     1.0000 0.68660  0.93250  0.35750  Biso   1.000  C
  H202     1.0000 0.64810  0.89770  0.32980  Biso   1.000  H
  C272     1.0000 0.69160  0.98410  0.36590  Biso   1.000  C
  C273     1.0000 0.74480  0.03370  0.39790  Biso   1.000  C
  H203     1.0000 0.74810  0.07090  0.40260  Biso   1.000  H
  C274     1.0000 0.63840  0.98830  0.33390  Biso   1.000  C
  C275     1.0000 0.73020  0.86330  0.37790  Biso   1.000  C
  H204     1.0000 0.69260  0.83970  0.37630  Biso   1.000  H
  H205     1.0000 0.76390  0.86900  0.41210  Biso   1.000  H
  C276     1.0000 0.77740  0.83020  0.32720  Biso   1.000  C
  H206     1.0000 0.81250  0.85040  0.36510  Biso   1.000  H
  C277     1.0000 0.77840  0.80030  0.27530  Biso   1.000  C
  H207     1.0000 0.81390  0.80010  0.27800  Biso   1.000  H
  C278     1.0000 0.72620  0.77030  0.21870  Biso   1.000  C
  C279     1.0000 0.67800  0.76700  0.22560  Biso   1.000  C
  H208     1.0000 0.63980  0.73990  0.19050  Biso   1.000  H
  C280     1.0000 0.67790  0.79660  0.27490  Biso   1.000  C
  H209     1.0000 0.64160  0.79290  0.27390  Biso   1.000  H
  C281     1.0000 0.72930  0.74120  0.16550  Biso   1.000  C
  C282     1.0000 0.78460  0.75250  0.16550  Biso   1.000  C
  H210     1.0000 0.82180  0.78310  0.20070  Biso   1.000  H
  C283     1.0000 0.78380  0.71960  0.11520  Biso   1.000  C
  H211     1.0000 0.82090  0.72540  0.11730  Biso   1.000  H
  C284     1.0000 0.67740  0.66660  0.06060  Biso   1.000  C
  H212     1.0000 0.64110  0.63670  0.02400  Biso   1.000  H
  C285     1.0000 0.67330  0.69750  0.11180  Biso   1.000  C
  H213     1.0000 0.63590  0.68930  0.11000  Biso   1.000  H
  N29      1.0000 0.73150  0.67800  0.06110  Biso   1.000  N
  N30      1.0000 0.72840  0.83070  0.32430  Biso   1.000  N
  O75      1.0000 0.90460  0.08100  0.47080  Biso   1.000  O
  O76      1.0000 0.85650  0.13560  0.47170  Biso   1.000  O
  O77      1.0000 0.64380  0.03870  0.34610  Biso   1.000  O
  O78      1.0000 0.58810  0.93990  0.29660  Biso   1.000  O
  O79      1.0000 0.99130  0.22520  0.55550  Biso   1.000  O
  H214     1.0000 0.98790  0.22320  0.58470  Biso   1.000  H
  Tb20     1.0000 0.23766  0.42096  0.00853  Biso   1.000  Tb
  C286     1.0000 0.12770  0.39950  0.04140  Biso   1.000  C
  C287     1.0000 0.10470  0.37200  0.07470  Biso   1.000  C
  C288     1.0000 0.05600  0.37400  0.08200  Biso   1.000  C
  H215     1.0000 0.03750  0.39310  0.06580  Biso   1.000  H
  C289     1.0000 0.03540  0.34900  0.11140  Biso   1.000  C
  C290     1.0000 0.07500  0.32910  0.14250  Biso   1.000  C
  H216     1.0000 0.06790  0.31830  0.17020  Biso   1.000  H
  C291     1.0000 0.11820  0.32570  0.13410  Biso   1.000  C
  C292     1.0000 0.13580  0.34690  0.10210  Biso   1.000  C
  H217     1.0000 0.16830  0.34550  0.09740  Biso   1.000  H
  C293     1.0000 0.15440  0.30450  0.16610  Biso   1.000  C
  C294     1.0000 0.98540  0.35230  0.12210  Biso   1.000  C
  H218     1.0000 0.96340  0.31630  0.12370  Biso   1.000  H
  H219     1.0000 0.95690  0.35180  0.08790  Biso   1.000  H
  C295     1.0000 0.00300  0.45020  0.17280  Biso   1.000  C
  H220     1.0000 0.98530  0.44740  0.13490  Biso   1.000  H
  C296     1.0000 0.02500  0.50310  0.22470  Biso   1.000  C
  H221     1.0000 0.02210  0.53590  0.22200  Biso   1.000  H
  C297     1.0000 0.05160  0.50750  0.28130  Biso   1.000  C
  C298     1.0000 0.04140  0.45240  0.27440  Biso   1.000  C
  H222     1.0000 0.04940  0.44930  0.30950  Biso   1.000  H
  C299     1.0000 0.02170  0.40300  0.22510  Biso   1.000  C
  H223     1.0000 0.01900  0.36770  0.22610  Biso   1.000  H
  C300     1.0000 0.07570  0.56380  0.33450  Biso   1.000  C
  C301     1.0000 0.08700  0.61910  0.33450  Biso   1.000  C
  H224     1.0000 0.08240  0.62110  0.29930  Biso   1.000  H
  C302     1.0000 0.10440  0.66860  0.38480  Biso   1.000  C
  H225     1.0000 0.10810  0.70360  0.38270  Biso   1.000  H
  C303     1.0000 0.10600  0.61680  0.43940  Biso   1.000  C
  H226     1.0000 0.11270  0.61710  0.47600  Biso   1.000  H
  C304     1.0000 0.08570  0.56150  0.38820  Biso   1.000  C
  H227     1.0000 0.07930  0.52590  0.39000  Biso   1.000  H
  N31      1.0000 0.11690  0.67040  0.43890  Biso   1.000  N
  N32      1.0000 0.00640  0.40410  0.17570  Biso   1.000  N
  O80      1.0000 0.11020  0.43380  0.02920  Biso   1.000  O
  O81      1.0000 0.16390  0.38480  0.02830  Biso   1.000  O
  O82      1.0000 0.19260  0.29770  0.15390  Biso   1.000  O
  O83      1.0000 0.14330  0.29150  0.20340  Biso   1.000  O
  O84      1.0000 0.16970  0.43580  0.94450  Biso   1.000  O
  H228     1.0000 0.13850  0.40320  0.91530  Biso   1.000  H
  Tb21     1.0000 0.07904  0.31670  0.58757  Biso   1.000  Tb
  C305     1.0000 0.10050  0.22820  0.64190  Biso   1.000  C
  C306     1.0000 0.12800  0.23270  0.70270  Biso   1.000  C
  C307     1.0000 0.12600  0.18200  0.70800  Biso   1.000  C
  H229     1.0000 0.10690  0.14440  0.67270  Biso   1.000  H
  C308     1.0000 0.15100  0.18640  0.76240  Biso   1.000  C
  C309     1.0000 0.17090  0.24590  0.81340  Biso   1.000  C
  H230     1.0000 0.18170  0.24960  0.85190  Biso   1.000  H
  C310     1.0000 0.17430  0.29250  0.80840  Biso   1.000  C
  C311     1.0000 0.15310  0.28890  0.75520  Biso   1.000  C
  H231     1.0000 0.15450  0.32280  0.75190  Biso   1.000  H
  C312     1.0000 0.19550  0.34990  0.86160  Biso   1.000  C
  C313     1.0000 0.14770  0.13310  0.76980  Biso   1.000  C
  H232     1.0000 0.18370  0.14710  0.80740  Biso   1.000  H
  H233     1.0000 0.14820  0.10510  0.73610  Biso   1.000  H
  C314     1.0000 0.04980  0.05280  0.72260  Biso   1.000  C
  H234     1.0000 0.05260  0.03790  0.68750  Biso   1.000  H
  C315     1.0000 0.99690  0.02190  0.72160  Biso   1.000  C
  H235     1.0000 0.96410  0.98620  0.68610  Biso   1.000  H
  C316     1.0000 0.99250  0.04410  0.77380  Biso   1.000  C
  C317     1.0000 0.04760  0.08900  0.82200  Biso   1.000  C
  H236     1.0000 0.05070  0.10010  0.86020  Biso   1.000  H
  C318     1.0000 0.09700  0.11870  0.82210  Biso   1.000  C
  H237     1.0000 0.13230  0.15130  0.85840  Biso   1.000  H
  C319     1.0000 0.93620  0.01190  0.77070  Biso   1.000  C
  C320     1.0000 0.88090  0.96790  0.71540  Biso   1.000  C
  H238     1.0000 0.87890  0.96130  0.67820  Biso   1.000  H
  C321     1.0000 0.83140  0.93580  0.71620  Biso   1.000  C
  H239     1.0000 0.79640  0.90450  0.67910  Biso   1.000  H
  C322     1.0000 0.88320  0.98920  0.82260  Biso   1.000  C
  H240     1.0000 0.88290  0.99560  0.85890  Biso   1.000  H
  C323     1.0000 0.93850  0.02420  0.82670  Biso   1.000  C
  H241     1.0000 0.97410  0.05340  0.86410  Biso   1.000  H
  N33      1.0000 0.82960  0.94650  0.76850  Biso   1.000  N
  N34      1.0000 0.09590  0.10230  0.77160  Biso   1.000  N
  O85      1.0000 0.06620  0.17640  0.59540  Biso   1.000  O
  O86      1.0000 0.11520  0.27910  0.64350  Biso   1.000  O
  O87      1.0000 0.20230  0.39490  0.85620  Biso   1.000  O
  O88      1.0000 0.20850  0.35180  0.91190  Biso   1.000  O
  O89      1.0000 0.06420  0.23390  0.50870  Biso   1.000  O
  H242     1.0000 0.09680  0.23530  0.51210  Biso   1.000  H
  Tb22     1.0000 0.27088  0.18330  0.26234  Biso   1.000  Tb
  C324     1.0000 0.41370  0.27180  0.37230  Biso   1.000  C
  C325     1.0000 0.47000  0.26730  0.39530  Biso   1.000  C
  C326     1.0000 0.52600  0.31800  0.44400  Biso   1.000  C
  H243     1.0000 0.52830  0.35560  0.46250  Biso   1.000  H
  C327     1.0000 0.57600  0.31360  0.46460  Biso   1.000  C
  C328     1.0000 0.56750  0.25410  0.42500  Biso   1.000  C
  H244     1.0000 0.60230  0.25040  0.43210  Biso   1.000  H
  C329     1.0000 0.51590  0.20750  0.38180  Biso   1.000  C
  C330     1.0000 0.46630  0.21110  0.36420  Biso   1.000  C
  H245     1.0000 0.42910  0.17720  0.33170  Biso   1.000  H
  C331     1.0000 0.51170  0.15010  0.34560  Biso   1.000  C
  C332     1.0000 0.63670  0.36690  0.51460  Biso   1.000  C
  H246     1.0000 0.66030  0.35290  0.53660  Biso   1.000  H
  H247     1.0000 0.63100  0.39490  0.54310  Biso   1.000  H
  C333     1.0000 0.66980  0.44720  0.49700  Biso   1.000  C
  H248     1.0000 0.64960  0.46210  0.51470  Biso   1.000  H
  C334     1.0000 0.69970  0.47810  0.47500  Biso   1.000  C
  H249     1.0000 0.69990  0.51380  0.47790  Biso   1.000  H
  C335     1.0000 0.72970  0.45590  0.44840  Biso   1.000  C
  C336     1.0000 0.73300  0.41100  0.45860  Biso   1.000  C
  H250     1.0000 0.76010  0.39990  0.45060  Biso   1.000  H
  C337     1.0000 0.70340  0.38130  0.47830  Biso   1.000  C
  H251     1.0000 0.70710  0.34870  0.48100  Biso   1.000  H
  C338     1.0000 0.75880  0.48810  0.42430  Biso   1.000  C
  C339     1.0000 0.74750  0.53210  0.41300  Biso   1.000  C
  H252     1.0000 0.71690  0.53870  0.41760  Biso   1.000  H
  C340     1.0000 0.78040  0.56420  0.39560  Biso   1.000  C
  H253     1.0000 0.77460  0.59550  0.39190  Biso   1.000  H
  C341     1.0000 0.83340  0.51080  0.39400  Biso   1.000  C
  H254     1.0000 0.86330  0.50440  0.38730  Biso   1.000  H
  C342     1.0000 0.80250  0.47580  0.41430  Biso   1.000  C
  H255     1.0000 0.81070  0.44660  0.42070  Biso   1.000  H
  N35      1.0000 0.82200  0.55350  0.38310  Biso   1.000  N
  N36      1.0000 0.66930  0.39770  0.49360  Biso   1.000  N
  O90      1.0000 0.41900  0.32360  0.38980  Biso   1.000  O
  O91      1.0000 0.36440  0.22090  0.33610  Biso   1.000  O
  O92      1.0000 0.46130  0.10510  0.30740  Biso   1.000  O
  O93      1.0000 0.56010  0.14820  0.35670  Biso   1.000  O
  O94      1.0000 0.27480  0.26610  0.33030  Biso   1.000  O
  H256     1.0000 0.27680  0.26470  0.36150  Biso   1.000  H
  Tb23     1.0000 0.22912  0.49147  0.91243  Biso   1.000  Tb
  C343     1.0000 0.08630  0.45860  0.85810  Biso   1.000  C
  C344     1.0000 0.03000  0.42530  0.79730  Biso   1.000  C
  C345     1.0000 0.97400  0.41800  0.79200  Biso   1.000  C
  H257     1.0000 0.97170  0.43420  0.82730  Biso   1.000  H
  C346     1.0000 0.92400  0.38860  0.73760  Biso   1.000  C
  C347     1.0000 0.93250  0.35750  0.68660  Biso   1.000  C
  H258     1.0000 0.89770  0.32980  0.64810  Biso   1.000  H
  C348     1.0000 0.98410  0.36590  0.69160  Biso   1.000  C
  C349     1.0000 0.03370  0.39790  0.74480  Biso   1.000  C
  H259     1.0000 0.07090  0.40260  0.74810  Biso   1.000  H
  C350     1.0000 0.98830  0.33390  0.63840  Biso   1.000  C
  C351     1.0000 0.86330  0.37790  0.73020  Biso   1.000  C
  H260     1.0000 0.83970  0.37630  0.69260  Biso   1.000  H
  H261     1.0000 0.86900  0.41210  0.76390  Biso   1.000  H
  C352     1.0000 0.83020  0.32720  0.77740  Biso   1.000  C
  H262     1.0000 0.85040  0.36510  0.81250  Biso   1.000  H
  C353     1.0000 0.80030  0.27530  0.77840  Biso   1.000  C
  H263     1.0000 0.80010  0.27800  0.81390  Biso   1.000  H
  C354     1.0000 0.77030  0.21870  0.72620  Biso   1.000  C
  C355     1.0000 0.76700  0.22560  0.67800  Biso   1.000  C
  H264     1.0000 0.73990  0.19050  0.63980  Biso   1.000  H
  C356     1.0000 0.79660  0.27490  0.67790  Biso   1.000  C
  H265     1.0000 0.79290  0.27390  0.64160  Biso   1.000  H
  C357     1.0000 0.74120  0.16550  0.72930  Biso   1.000  C
  C358     1.0000 0.75250  0.16550  0.78460  Biso   1.000  C
  H266     1.0000 0.78310  0.20070  0.82180  Biso   1.000  H
  C359     1.0000 0.71960  0.11520  0.78380  Biso   1.000  C
  H267     1.0000 0.72540  0.11730  0.82090  Biso   1.000  H
  C360     1.0000 0.66660  0.06060  0.67740  Biso   1.000  C
  H268     1.0000 0.63670  0.02400  0.64110  Biso   1.000  H
  C361     1.0000 0.69750  0.11180  0.67330  Biso   1.000  C
  H269     1.0000 0.68930  0.11000  0.63590  Biso   1.000  H
  N37      1.0000 0.67800  0.06110  0.73150  Biso   1.000  N
  N38      1.0000 0.83070  0.32430  0.72840  Biso   1.000  N
  O95      1.0000 0.08100  0.47080  0.90460  Biso   1.000  O
  O96      1.0000 0.13560  0.47170  0.85650  Biso   1.000  O
  O97      1.0000 0.03870  0.34610  0.64380  Biso   1.000  O
  O98      1.0000 0.93990  0.29660  0.58810  Biso   1.000  O
  O99      1.0000 0.22520  0.55550  0.99130  Biso   1.000  O
  H270     1.0000 0.22320  0.58470  0.98790  Biso   1.000  H
  Tb24     1.0000 0.42096  0.00853  0.23766  Biso   1.000  Tb
  C362     1.0000 0.39950  0.04140  0.12770  Biso   1.000  C
  C363     1.0000 0.37200  0.07470  0.10470  Biso   1.000  C
  C364     1.0000 0.37400  0.08200  0.05600  Biso   1.000  C
  H271     1.0000 0.39310  0.06580  0.03750  Biso   1.000  H
  C365     1.0000 0.34900  0.11140  0.03540  Biso   1.000  C
  C366     1.0000 0.32910  0.14250  0.07500  Biso   1.000  C
  H272     1.0000 0.31830  0.17020  0.06790  Biso   1.000  H
  C367     1.0000 0.32570  0.13410  0.11820  Biso   1.000  C
  C368     1.0000 0.34690  0.10210  0.13580  Biso   1.000  C
  H273     1.0000 0.34550  0.09740  0.16830  Biso   1.000  H
  C369     1.0000 0.30450  0.16610  0.15440  Biso   1.000  C
  C370     1.0000 0.35230  0.12210  0.98540  Biso   1.000  C
  H274     1.0000 0.31630  0.12370  0.96340  Biso   1.000  H
  H275     1.0000 0.35180  0.08790  0.95690  Biso   1.000  H
  C371     1.0000 0.45020  0.17280  0.00300  Biso   1.000  C
  H276     1.0000 0.44740  0.13490  0.98530  Biso   1.000  H
  C372     1.0000 0.50310  0.22470  0.02500  Biso   1.000  C
  H277     1.0000 0.53590  0.22200  0.02210  Biso   1.000  H
  C373     1.0000 0.50750  0.28130  0.05160  Biso   1.000  C
  C374     1.0000 0.45240  0.27440  0.04140  Biso   1.000  C
  H278     1.0000 0.44930  0.30950  0.04940  Biso   1.000  H
  C375     1.0000 0.40300  0.22510  0.02170  Biso   1.000  C
  H279     1.0000 0.36770  0.22610  0.01900  Biso   1.000  H
  C376     1.0000 0.56380  0.33450  0.07570  Biso   1.000  C
  C377     1.0000 0.61910  0.33450  0.08700  Biso   1.000  C
  H280     1.0000 0.62110  0.29930  0.08240  Biso   1.000  H
  C378     1.0000 0.66860  0.38480  0.10440  Biso   1.000  C
  H281     1.0000 0.70360  0.38270  0.10810  Biso   1.000  H
  C379     1.0000 0.61680  0.43940  0.10600  Biso   1.000  C
  H282     1.0000 0.61710  0.47600  0.11270  Biso   1.000  H
  C380     1.0000 0.56150  0.38820  0.08570  Biso   1.000  C
  H283     1.0000 0.52590  0.39000  0.07930  Biso   1.000  H
  N39      1.0000 0.67040  0.43890  0.11690  Biso   1.000  N
  N40      1.0000 0.40410  0.17570  0.00640  Biso   1.000  N
  O100     1.0000 0.43380  0.02920  0.11020  Biso   1.000  O
  O101     1.0000 0.38480  0.02830  0.16390  Biso   1.000  O
  O102     1.0000 0.29770  0.15390  0.19260  Biso   1.000  O
  O103     1.0000 0.29150  0.20340  0.14330  Biso   1.000  O
  O104     1.0000 0.43580  0.94450  0.16970  Biso   1.000  O
  H284     1.0000 0.40320  0.91530  0.13850  Biso   1.000  H
  Tb25     1.0000 0.31670  0.58757  0.07904  Biso   1.000  Tb
  C381     1.0000 0.22820  0.64190  0.10050  Biso   1.000  C
  C382     1.0000 0.23270  0.70270  0.12800  Biso   1.000  C
  C383     1.0000 0.18200  0.70800  0.12600  Biso   1.000  C
  H285     1.0000 0.14440  0.67270  0.10690  Biso   1.000  H
  C384     1.0000 0.18640  0.76240  0.15100  Biso   1.000  C
  C385     1.0000 0.24590  0.81340  0.17090  Biso   1.000  C
  H286     1.0000 0.24960  0.85190  0.18170  Biso   1.000  H
  C386     1.0000 0.29250  0.80840  0.17430  Biso   1.000  C
  C387     1.0000 0.28890  0.75520  0.15310  Biso   1.000  C
  H287     1.0000 0.32280  0.75190  0.15450  Biso   1.000  H
  C388     1.0000 0.34990  0.86160  0.19550  Biso   1.000  C
  C389     1.0000 0.13310  0.76980  0.14770  Biso   1.000  C
  H288     1.0000 0.14710  0.80740  0.18370  Biso   1.000  H
  H289     1.0000 0.10510  0.73610  0.14820  Biso   1.000  H
  C390     1.0000 0.05280  0.72260  0.04980  Biso   1.000  C
  H290     1.0000 0.03790  0.68750  0.05260  Biso   1.000  H
  C391     1.0000 0.02190  0.72160  0.99690  Biso   1.000  C
  H291     1.0000 0.98620  0.68610  0.96410  Biso   1.000  H
  C392     1.0000 0.04410  0.77380  0.99250  Biso   1.000  C
  C393     1.0000 0.08900  0.82200  0.04760  Biso   1.000  C
  H292     1.0000 0.10010  0.86020  0.05070  Biso   1.000  H
  C394     1.0000 0.11870  0.82210  0.09700  Biso   1.000  C
  H293     1.0000 0.15130  0.85840  0.13230  Biso   1.000  H
  C395     1.0000 0.01190  0.77070  0.93620  Biso   1.000  C
  C396     1.0000 0.96790  0.71540  0.88090  Biso   1.000  C
  H294     1.0000 0.96130  0.67820  0.87890  Biso   1.000  H
  C397     1.0000 0.93580  0.71620  0.83140  Biso   1.000  C
  H295     1.0000 0.90450  0.67910  0.79640  Biso   1.000  H
  C398     1.0000 0.98920  0.82260  0.88320  Biso   1.000  C
  H296     1.0000 0.99560  0.85890  0.88290  Biso   1.000  H
  C399     1.0000 0.02420  0.82670  0.93850  Biso   1.000  C
  H297     1.0000 0.05340  0.86410  0.97410  Biso   1.000  H
  N41      1.0000 0.94650  0.76850  0.82960  Biso   1.000  N
  N42      1.0000 0.10230  0.77160  0.09590  Biso   1.000  N
  O105     1.0000 0.17640  0.59540  0.06620  Biso   1.000  O
  O106     1.0000 0.27910  0.64350  0.11520  Biso   1.000  O
  O107     1.0000 0.39490  0.85620  0.20230  Biso   1.000  O
  O108     1.0000 0.35180  0.91190  0.20850  Biso   1.000  O
  O109     1.0000 0.23390  0.50870  0.06420  Biso   1.000  O
  H298     1.0000 0.23530  0.51210  0.09680  Biso   1.000  H
  Tb26     1.0000 0.18330  0.26234  0.27088  Biso   1.000  Tb
  C400     1.0000 0.27180  0.37230  0.41370  Biso   1.000  C
  C401     1.0000 0.26730  0.39530  0.47000  Biso   1.000  C
  C402     1.0000 0.31800  0.44400  0.52600  Biso   1.000  C
  H299     1.0000 0.35560  0.46250  0.52830  Biso   1.000  H
  C403     1.0000 0.31360  0.46460  0.57600  Biso   1.000  C
  C404     1.0000 0.25410  0.42500  0.56750  Biso   1.000  C
  H300     1.0000 0.25040  0.43210  0.60230  Biso   1.000  H
  C405     1.0000 0.20750  0.38180  0.51590  Biso   1.000  C
  C406     1.0000 0.21110  0.36420  0.46630  Biso   1.000  C
  H301     1.0000 0.17720  0.33170  0.42910  Biso   1.000  H
  C407     1.0000 0.15010  0.34560  0.51170  Biso   1.000  C
  C408     1.0000 0.36690  0.51460  0.63670  Biso   1.000  C
  H302     1.0000 0.35290  0.53660  0.66030  Biso   1.000  H
  H303     1.0000 0.39490  0.54310  0.63100  Biso   1.000  H
  C409     1.0000 0.44720  0.49700  0.66980  Biso   1.000  C
  H304     1.0000 0.46210  0.51470  0.64960  Biso   1.000  H
  C410     1.0000 0.47810  0.47500  0.69970  Biso   1.000  C
  H305     1.0000 0.51380  0.47790  0.69990  Biso   1.000  H
  C411     1.0000 0.45590  0.44840  0.72970  Biso   1.000  C
  C412     1.0000 0.41100  0.45860  0.73300  Biso   1.000  C
  H306     1.0000 0.39990  0.45060  0.76010  Biso   1.000  H
  C413     1.0000 0.38130  0.47830  0.70340  Biso   1.000  C
  H307     1.0000 0.34870  0.48100  0.70710  Biso   1.000  H
  C414     1.0000 0.48810  0.42430  0.75880  Biso   1.000  C
  C415     1.0000 0.53210  0.41300  0.74750  Biso   1.000  C
  H308     1.0000 0.53870  0.41760  0.71690  Biso   1.000  H
  C416     1.0000 0.56420  0.39560  0.78040  Biso   1.000  C
  H309     1.0000 0.59550  0.39190  0.77460  Biso   1.000  H
  C417     1.0000 0.51080  0.39400  0.83340  Biso   1.000  C
  H310     1.0000 0.50440  0.38730  0.86330  Biso   1.000  H
  C418     1.0000 0.47580  0.41430  0.80250  Biso   1.000  C
  H311     1.0000 0.44660  0.42070  0.81070  Biso   1.000  H
  N43      1.0000 0.55350  0.38310  0.82200  Biso   1.000  N
  N44      1.0000 0.39770  0.49360  0.66930  Biso   1.000  N
  O110     1.0000 0.32360  0.38980  0.41900  Biso   1.000  O
  O111     1.0000 0.22090  0.33610  0.36440  Biso   1.000  O
  O112     1.0000 0.10510  0.30740  0.46130  Biso   1.000  O
  O113     1.0000 0.14820  0.35670  0.56010  Biso   1.000  O
  O114     1.0000 0.26610  0.33030  0.27480  Biso   1.000  O
  H312     1.0000 0.26470  0.36150  0.27680  Biso   1.000  H
  Tb27     1.0000 0.49147  0.91243  0.22912  Biso   1.000  Tb
  C419     1.0000 0.45860  0.85810  0.08630  Biso   1.000  C
  C420     1.0000 0.42530  0.79730  0.03000  Biso   1.000  C
  C421     1.0000 0.41800  0.79200  0.97400  Biso   1.000  C
  H313     1.0000 0.43420  0.82730  0.97170  Biso   1.000  H
  C422     1.0000 0.38860  0.73760  0.92400  Biso   1.000  C
  C423     1.0000 0.35750  0.68660  0.93250  Biso   1.000  C
  H314     1.0000 0.32980  0.64810  0.89770  Biso   1.000  H
  C424     1.0000 0.36590  0.69160  0.98410  Biso   1.000  C
  C425     1.0000 0.39790  0.74480  0.03370  Biso   1.000  C
  H315     1.0000 0.40260  0.74810  0.07090  Biso   1.000  H
  C426     1.0000 0.33390  0.63840  0.98830  Biso   1.000  C
  C427     1.0000 0.37790  0.73020  0.86330  Biso   1.000  C
  H316     1.0000 0.37630  0.69260  0.83970  Biso   1.000  H
  H317     1.0000 0.41210  0.76390  0.86900  Biso   1.000  H
  C428     1.0000 0.32720  0.77740  0.83020  Biso   1.000  C
  H318     1.0000 0.36510  0.81250  0.85040  Biso   1.000  H
  C429     1.0000 0.27530  0.77840  0.80030  Biso   1.000  C
  H319     1.0000 0.27800  0.81390  0.80010  Biso   1.000  H
  C430     1.0000 0.21870  0.72620  0.77030  Biso   1.000  C
  C431     1.0000 0.22560  0.67800  0.76700  Biso   1.000  C
  H320     1.0000 0.19050  0.63980  0.73990  Biso   1.000  H
  C432     1.0000 0.27490  0.67790  0.79660  Biso   1.000  C
  H321     1.0000 0.27390  0.64160  0.79290  Biso   1.000  H
  C433     1.0000 0.16550  0.72930  0.74120  Biso   1.000  C
  C434     1.0000 0.16550  0.78460  0.75250  Biso   1.000  C
  H322     1.0000 0.20070  0.82180  0.78310  Biso   1.000  H
  C435     1.0000 0.11520  0.78380  0.71960  Biso   1.000  C
  H323     1.0000 0.11730  0.82090  0.72540  Biso   1.000  H
  C436     1.0000 0.06060  0.67740  0.66660  Biso   1.000  C
  H324     1.0000 0.02400  0.64110  0.63670  Biso   1.000  H
  C437     1.0000 0.11180  0.67330  0.69750  Biso   1.000  C
  H325     1.0000 0.11000  0.63590  0.68930  Biso   1.000  H
  N45      1.0000 0.06110  0.73150  0.67800  Biso   1.000  N
  N46      1.0000 0.32430  0.72840  0.83070  Biso   1.000  N
  O115     1.0000 0.47080  0.90460  0.08100  Biso   1.000  O
  O116     1.0000 0.47170  0.85650  0.13560  Biso   1.000  O
  O117     1.0000 0.34610  0.64380  0.03870  Biso   1.000  O
  O118     1.0000 0.29660  0.58810  0.93990  Biso   1.000  O
  O119     1.0000 0.55550  0.99130  0.22520  Biso   1.000  O
  H326     1.0000 0.58470  0.98790  0.22320  Biso   1.000  H
  Tb28     1.0000 0.00853  0.23766  0.42096  Biso   1.000  Tb
  C438     1.0000 0.04140  0.12770  0.39950  Biso   1.000  C
  C439     1.0000 0.07470  0.10470  0.37200  Biso   1.000  C
  C440     1.0000 0.08200  0.05600  0.37400  Biso   1.000  C
  H327     1.0000 0.06580  0.03750  0.39310  Biso   1.000  H
  C441     1.0000 0.11140  0.03540  0.34900  Biso   1.000  C
  C442     1.0000 0.14250  0.07500  0.32910  Biso   1.000  C
  H328     1.0000 0.17020  0.06790  0.31830  Biso   1.000  H
  C443     1.0000 0.13410  0.11820  0.32570  Biso   1.000  C
  C444     1.0000 0.10210  0.13580  0.34690  Biso   1.000  C
  H329     1.0000 0.09740  0.16830  0.34550  Biso   1.000  H
  C445     1.0000 0.16610  0.15440  0.30450  Biso   1.000  C
  C446     1.0000 0.12210  0.98540  0.35230  Biso   1.000  C
  H330     1.0000 0.12370  0.96340  0.31630  Biso   1.000  H
  H331     1.0000 0.08790  0.95690  0.35180  Biso   1.000  H
  C447     1.0000 0.17280  0.00300  0.45020  Biso   1.000  C
  H332     1.0000 0.13490  0.98530  0.44740  Biso   1.000  H
  C448     1.0000 0.22470  0.02500  0.50310  Biso   1.000  C
  H333     1.0000 0.22200  0.02210  0.53590  Biso   1.000  H
  C449     1.0000 0.28130  0.05160  0.50750  Biso   1.000  C
  C450     1.0000 0.27440  0.04140  0.45240  Biso   1.000  C
  H334     1.0000 0.30950  0.04940  0.44930  Biso   1.000  H
  C451     1.0000 0.22510  0.02170  0.40300  Biso   1.000  C
  H335     1.0000 0.22610  0.01900  0.36770  Biso   1.000  H
  C452     1.0000 0.33450  0.07570  0.56380  Biso   1.000  C
  C453     1.0000 0.33450  0.08700  0.61910  Biso   1.000  C
  H336     1.0000 0.29930  0.08240  0.62110  Biso   1.000  H
  C454     1.0000 0.38480  0.10440  0.66860  Biso   1.000  C
  H337     1.0000 0.38270  0.10810  0.70360  Biso   1.000  H
  C455     1.0000 0.43940  0.10600  0.61680  Biso   1.000  C
  H338     1.0000 0.47600  0.11270  0.61710  Biso   1.000  H
  C456     1.0000 0.38820  0.08570  0.56150  Biso   1.000  C
  H339     1.0000 0.39000  0.07930  0.52590  Biso   1.000  H
  N47      1.0000 0.43890  0.11690  0.67040  Biso   1.000  N
  N48      1.0000 0.17570  0.00640  0.40410  Biso   1.000  N
  O120     1.0000 0.02920  0.11020  0.43380  Biso   1.000  O
  O121     1.0000 0.02830  0.16390  0.38480  Biso   1.000  O
  O122     1.0000 0.15390  0.19260  0.29770  Biso   1.000  O
  O123     1.0000 0.20340  0.14330  0.29150  Biso   1.000  O
  O124     1.0000 0.94450  0.16970  0.43580  Biso   1.000  O
  H340     1.0000 0.91530  0.13850  0.40320  Biso   1.000  H
  Tb29     1.0000 0.50000  0.00000  0.14812  Biso   1.000  Tb
  O125     1.0000 0.50000  0.00000  0.29260  Biso   1.000  O
  H341     1.0000 0.50000  0.00000  0.32920  Biso   1.000  H
  Tb30     1.0000 0.35188  0.35188  0.35188  Biso   1.000  Tb
  O126     1.0000 0.20740  0.20740  0.20740  Biso   1.000  O
  H342     1.0000 0.17080  0.17080  0.17080  Biso   1.000  H
  Tb31     1.0000 0.00000  0.14812  0.50000  Biso   1.000  Tb
  O127     1.0000 0.00000  0.29260  0.50000  Biso   1.000  O
  H343     1.0000 0.00000  0.32920  0.50000  Biso   1.000  H
  Tb32     1.0000 0.14812  0.50000  0.00000  Biso   1.000  Tb
  O128     1.0000 0.29260  0.50000  0.00000  Biso   1.000  O
  H344     1.0000 0.32920  0.50000  0.00000  Biso   1.000  H
