data_image0
_cell_length_a       36.7051
_cell_length_b       36.7051
_cell_length_c       36.7051
_cell_angle_alpha    90
_cell_angle_beta     90
_cell_angle_gamma    90

_symmetry_space_group_name_H-M    "P 1"
_symmetry_int_tables_number       1

loop_
  _symmetry_equiv_pos_as_xyz
  'x, y, z'

loop_
  _atom_site_label
  _atom_site_occupancy
  _atom_site_fract_x
  _atom_site_fract_y
  _atom_site_fract_z
  _atom_site_thermal_displace_type
  _atom_site_B_iso_or_equiv
  _atom_site_type_symbol
  N1       1.0000 0.55780  0.49070  0.51170  Biso   1.000  N
  N2       1.0000 0.57940  0.51250  0.53350  Biso   1.000  N
  N3       1.0000 0.57820  0.46360  0.49970  Biso   1.000  N
  N4       1.0000 0.61380  0.50000  0.53630  Biso   1.000  N
  C1       1.0000 0.61150  0.46980  0.51520  Biso   1.000  C
  C2       1.0000 0.64610  0.44620  0.51050  Biso   1.000  C
  C3       1.0000 0.67900  0.45250  0.53420  Biso   1.000  C
  C4       1.0000 0.64780  0.42260  0.48340  Biso   1.000  C
  H1       1.0000 0.67990  0.47130  0.55190  Biso   1.000  H
  C5       1.0000 0.70740  0.42910  0.52830  Biso   1.000  C
  C6       1.0000 0.67630  0.40180  0.47980  Biso   1.000  C
  H2       1.0000 0.62830  0.42080  0.46660  Biso   1.000  H
  H3       1.0000 0.72840  0.43130  0.54310  Biso   1.000  H
  C7       1.0000 0.70690  0.40220  0.50180  Biso   1.000  C
  H4       1.0000 0.67610  0.38480  0.46030  Biso   1.000  H
  N5       1.0000 0.05780  0.99070  0.01170  Biso   1.000  N
  N6       1.0000 0.07940  0.01250  0.03350  Biso   1.000  N
  N7       1.0000 0.07820  0.96360  0.99970  Biso   1.000  N
  N8       1.0000 0.11380  0.00000  0.03630  Biso   1.000  N
  C8       1.0000 0.11150  0.96980  0.01520  Biso   1.000  C
  C9       1.0000 0.14610  0.94620  0.01050  Biso   1.000  C
  C10      1.0000 0.17900  0.95250  0.03420  Biso   1.000  C
  C11      1.0000 0.14780  0.92260  0.98340  Biso   1.000  C
  H5       1.0000 0.17990  0.97130  0.05190  Biso   1.000  H
  C12      1.0000 0.20740  0.92910  0.02830  Biso   1.000  C
  C13      1.0000 0.17630  0.90180  0.97980  Biso   1.000  C
  H6       1.0000 0.12830  0.92080  0.96660  Biso   1.000  H
  H7       1.0000 0.22840  0.93130  0.04310  Biso   1.000  H
  C14      1.0000 0.20690  0.90220  0.00180  Biso   1.000  C
  H8       1.0000 0.17610  0.88480  0.96030  Biso   1.000  H
  N9       1.0000 0.94220  0.50930  0.01170  Biso   1.000  N
  N10      1.0000 0.92060  0.48750  0.03350  Biso   1.000  N
  N11      1.0000 0.92180  0.53640  0.99970  Biso   1.000  N
  N12      1.0000 0.88620  0.50000  0.03630  Biso   1.000  N
  C15      1.0000 0.88850  0.53020  0.01520  Biso   1.000  C
  C16      1.0000 0.85390  0.55380  0.01050  Biso   1.000  C
  C17      1.0000 0.82100  0.54750  0.03420  Biso   1.000  C
  C18      1.0000 0.85220  0.57740  0.98340  Biso   1.000  C
  H9       1.0000 0.82010  0.52870  0.05190  Biso   1.000  H
  C19      1.0000 0.79260  0.57090  0.02830  Biso   1.000  C
  C20      1.0000 0.82370  0.59820  0.97980  Biso   1.000  C
  H10      1.0000 0.87170  0.57920  0.96660  Biso   1.000  H
  H11      1.0000 0.77160  0.56870  0.04310  Biso   1.000  H
  C21      1.0000 0.79310  0.59780  0.00180  Biso   1.000  C
  H12      1.0000 0.82390  0.61520  0.96030  Biso   1.000  H
  N13      1.0000 0.44220  0.00930  0.51170  Biso   1.000  N
  N14      1.0000 0.42060  0.98750  0.53350  Biso   1.000  N
  N15      1.0000 0.42180  0.03640  0.49970  Biso   1.000  N
  N16      1.0000 0.38620  0.00000  0.53630  Biso   1.000  N
  C22      1.0000 0.38850  0.03020  0.51520  Biso   1.000  C
  C23      1.0000 0.35390  0.05380  0.51050  Biso   1.000  C
  C24      1.0000 0.32100  0.04750  0.53420  Biso   1.000  C
  C25      1.0000 0.35220  0.07740  0.48340  Biso   1.000  C
  H13      1.0000 0.32010  0.02870  0.55190  Biso   1.000  H
  C26      1.0000 0.29260  0.07090  0.52830  Biso   1.000  C
  C27      1.0000 0.32370  0.09820  0.47980  Biso   1.000  C
  H14      1.0000 0.37170  0.07920  0.46660  Biso   1.000  H
  H15      1.0000 0.27160  0.06870  0.54310  Biso   1.000  H
  C28      1.0000 0.29310  0.09780  0.50180  Biso   1.000  C
  H16      1.0000 0.32390  0.11520  0.46030  Biso   1.000  H
  N17      1.0000 0.44220  0.99070  0.98830  Biso   1.000  N
  N18      1.0000 0.42060  0.01250  0.96650  Biso   1.000  N
  N19      1.0000 0.42180  0.96360  0.00030  Biso   1.000  N
  N20      1.0000 0.38620  0.00000  0.96370  Biso   1.000  N
  C29      1.0000 0.38850  0.96980  0.98480  Biso   1.000  C
  C30      1.0000 0.35390  0.94620  0.98950  Biso   1.000  C
  C31      1.0000 0.32100  0.95250  0.96580  Biso   1.000  C
  C32      1.0000 0.35220  0.92260  0.01660  Biso   1.000  C
  H17      1.0000 0.32010  0.97130  0.94810  Biso   1.000  H
  C33      1.0000 0.29260  0.92910  0.97170  Biso   1.000  C
  C34      1.0000 0.32370  0.90180  0.02020  Biso   1.000  C
  H18      1.0000 0.37170  0.92080  0.03340  Biso   1.000  H
  H19      1.0000 0.27160  0.93130  0.95690  Biso   1.000  H
  C35      1.0000 0.29310  0.90220  0.99820  Biso   1.000  C
  H20      1.0000 0.32390  0.88480  0.03970  Biso   1.000  H
  N21      1.0000 0.94220  0.49070  0.48830  Biso   1.000  N
  N22      1.0000 0.92060  0.51250  0.46650  Biso   1.000  N
  N23      1.0000 0.92180  0.46360  0.50030  Biso   1.000  N
  N24      1.0000 0.88620  0.50000  0.46370  Biso   1.000  N
  C36      1.0000 0.88850  0.46980  0.48480  Biso   1.000  C
  C37      1.0000 0.85390  0.44620  0.48950  Biso   1.000  C
  C38      1.0000 0.82100  0.45250  0.46580  Biso   1.000  C
  C39      1.0000 0.85220  0.42260  0.51660  Biso   1.000  C
  H21      1.0000 0.82010  0.47130  0.44810  Biso   1.000  H
  C40      1.0000 0.79260  0.42910  0.47170  Biso   1.000  C
  C41      1.0000 0.82370  0.40180  0.52020  Biso   1.000  C
  H22      1.0000 0.87170  0.42080  0.53340  Biso   1.000  H
  H23      1.0000 0.77160  0.43130  0.45690  Biso   1.000  H
  C42      1.0000 0.79310  0.40220  0.49820  Biso   1.000  C
  H24      1.0000 0.82390  0.38480  0.53970  Biso   1.000  H
  N25      1.0000 0.05780  0.00930  0.48830  Biso   1.000  N
  N26      1.0000 0.07940  0.98750  0.46650  Biso   1.000  N
  N27      1.0000 0.07820  0.03640  0.50030  Biso   1.000  N
  N28      1.0000 0.11380  0.00000  0.46370  Biso   1.000  N
  C43      1.0000 0.11150  0.03020  0.48480  Biso   1.000  C
  C44      1.0000 0.14610  0.05380  0.48950  Biso   1.000  C
  C45      1.0000 0.17900  0.04750  0.46580  Biso   1.000  C
  C46      1.0000 0.14780  0.07740  0.51660  Biso   1.000  C
  H25      1.0000 0.17990  0.02870  0.44810  Biso   1.000  H
  C47      1.0000 0.20740  0.07090  0.47170  Biso   1.000  C
  C48      1.0000 0.17630  0.09820  0.52020  Biso   1.000  C
  H26      1.0000 0.12830  0.07920  0.53340  Biso   1.000  H
  H27      1.0000 0.22840  0.06870  0.45690  Biso   1.000  H
  C49      1.0000 0.20690  0.09780  0.49820  Biso   1.000  C
  H28      1.0000 0.17610  0.11520  0.53970  Biso   1.000  H
  N29      1.0000 0.55780  0.50930  0.98830  Biso   1.000  N
  N30      1.0000 0.57940  0.48750  0.96650  Biso   1.000  N
  N31      1.0000 0.57820  0.53640  0.00030  Biso   1.000  N
  N32      1.0000 0.61380  0.50000  0.96370  Biso   1.000  N
  C50      1.0000 0.61150  0.53020  0.98480  Biso   1.000  C
  C51      1.0000 0.64610  0.55380  0.98950  Biso   1.000  C
  C52      1.0000 0.67900  0.54750  0.96580  Biso   1.000  C
  C53      1.0000 0.64780  0.57740  0.01660  Biso   1.000  C
  H29      1.0000 0.67990  0.52870  0.94810  Biso   1.000  H
  C54      1.0000 0.70740  0.57090  0.97170  Biso   1.000  C
  C55      1.0000 0.67630  0.59820  0.02020  Biso   1.000  C
  H30      1.0000 0.62830  0.57920  0.03340  Biso   1.000  H
  H31      1.0000 0.72840  0.56870  0.95690  Biso   1.000  H
  C56      1.0000 0.70690  0.59780  0.99820  Biso   1.000  C
  H32      1.0000 0.67610  0.61520  0.03970  Biso   1.000  H
  N33      1.0000 0.51170  0.55780  0.49070  Biso   1.000  N
  N34      1.0000 0.53350  0.57940  0.51250  Biso   1.000  N
  N35      1.0000 0.49970  0.57820  0.46360  Biso   1.000  N
  N36      1.0000 0.53630  0.61380  0.50000  Biso   1.000  N
  C57      1.0000 0.51520  0.61150  0.46980  Biso   1.000  C
  C58      1.0000 0.51050  0.64610  0.44620  Biso   1.000  C
  C59      1.0000 0.53420  0.67900  0.45250  Biso   1.000  C
  C60      1.0000 0.48340  0.64780  0.42260  Biso   1.000  C
  H33      1.0000 0.55190  0.67990  0.47130  Biso   1.000  H
  C61      1.0000 0.52830  0.70740  0.42910  Biso   1.000  C
  C62      1.0000 0.47980  0.67630  0.40180  Biso   1.000  C
  H34      1.0000 0.46660  0.62830  0.42080  Biso   1.000  H
  H35      1.0000 0.54310  0.72840  0.43130  Biso   1.000  H
  C63      1.0000 0.50180  0.70690  0.40220  Biso   1.000  C
  H36      1.0000 0.46030  0.67610  0.38480  Biso   1.000  H
  N37      1.0000 0.01170  0.05780  0.99070  Biso   1.000  N
  N38      1.0000 0.03350  0.07940  0.01250  Biso   1.000  N
  N39      1.0000 0.99970  0.07820  0.96360  Biso   1.000  N
  N40      1.0000 0.03630  0.11380  0.00000  Biso   1.000  N
  C64      1.0000 0.01520  0.11150  0.96980  Biso   1.000  C
  C65      1.0000 0.01050  0.14610  0.94620  Biso   1.000  C
  C66      1.0000 0.03420  0.17900  0.95250  Biso   1.000  C
  C67      1.0000 0.98340  0.14780  0.92260  Biso   1.000  C
  H37      1.0000 0.05190  0.17990  0.97130  Biso   1.000  H
  C68      1.0000 0.02830  0.20740  0.92910  Biso   1.000  C
  C69      1.0000 0.97980  0.17630  0.90180  Biso   1.000  C
  H38      1.0000 0.96660  0.12830  0.92080  Biso   1.000  H
  H39      1.0000 0.04310  0.22840  0.93130  Biso   1.000  H
  C70      1.0000 0.00180  0.20690  0.90220  Biso   1.000  C
  H40      1.0000 0.96030  0.17610  0.88480  Biso   1.000  H
  N41      1.0000 0.01170  0.94220  0.50930  Biso   1.000  N
  N42      1.0000 0.03350  0.92060  0.48750  Biso   1.000  N
  N43      1.0000 0.99970  0.92180  0.53640  Biso   1.000  N
  N44      1.0000 0.03630  0.88620  0.50000  Biso   1.000  N
  C71      1.0000 0.01520  0.88850  0.53020  Biso   1.000  C
  C72      1.0000 0.01050  0.85390  0.55380  Biso   1.000  C
  C73      1.0000 0.03420  0.82100  0.54750  Biso   1.000  C
  C74      1.0000 0.98340  0.85220  0.57740  Biso   1.000  C
  H41      1.0000 0.05190  0.82010  0.52870  Biso   1.000  H
  C75      1.0000 0.02830  0.79260  0.57090  Biso   1.000  C
  C76      1.0000 0.97980  0.82370  0.59820  Biso   1.000  C
  H42      1.0000 0.96660  0.87170  0.57920  Biso   1.000  H
  H43      1.0000 0.04310  0.77160  0.56870  Biso   1.000  H
  C77      1.0000 0.00180  0.79310  0.59780  Biso   1.000  C
  H44      1.0000 0.96030  0.82390  0.61520  Biso   1.000  H
  N45      1.0000 0.51170  0.44220  0.00930  Biso   1.000  N
  N46      1.0000 0.53350  0.42060  0.98750  Biso   1.000  N
  N47      1.0000 0.49970  0.42180  0.03640  Biso   1.000  N
  N48      1.0000 0.53630  0.38620  0.00000  Biso   1.000  N
  C78      1.0000 0.51520  0.38850  0.03020  Biso   1.000  C
  C79      1.0000 0.51050  0.35390  0.05380  Biso   1.000  C
  C80      1.0000 0.53420  0.32100  0.04750  Biso   1.000  C
  C81      1.0000 0.48340  0.35220  0.07740  Biso   1.000  C
  H45      1.0000 0.55190  0.32010  0.02870  Biso   1.000  H
  C82      1.0000 0.52830  0.29260  0.07090  Biso   1.000  C
  C83      1.0000 0.47980  0.32370  0.09820  Biso   1.000  C
  H46      1.0000 0.46660  0.37170  0.07920  Biso   1.000  H
  H47      1.0000 0.54310  0.27160  0.06870  Biso   1.000  H
  C84      1.0000 0.50180  0.29310  0.09780  Biso   1.000  C
  H48      1.0000 0.46030  0.32390  0.11520  Biso   1.000  H
  N49      1.0000 0.98830  0.44220  0.99070  Biso   1.000  N
  N50      1.0000 0.96650  0.42060  0.01250  Biso   1.000  N
  N51      1.0000 0.00030  0.42180  0.96360  Biso   1.000  N
  N52      1.0000 0.96370  0.38620  0.00000  Biso   1.000  N
  C85      1.0000 0.98480  0.38850  0.96980  Biso   1.000  C
  C86      1.0000 0.98950  0.35390  0.94620  Biso   1.000  C
  C87      1.0000 0.96580  0.32100  0.95250  Biso   1.000  C
  C88      1.0000 0.01660  0.35220  0.92260  Biso   1.000  C
  H49      1.0000 0.94810  0.32010  0.97130  Biso   1.000  H
  C89      1.0000 0.97170  0.29260  0.92910  Biso   1.000  C
  C90      1.0000 0.02020  0.32370  0.90180  Biso   1.000  C
  H50      1.0000 0.03340  0.37170  0.92080  Biso   1.000  H
  H51      1.0000 0.95690  0.27160  0.93130  Biso   1.000  H
  C91      1.0000 0.99820  0.29310  0.90220  Biso   1.000  C
  H52      1.0000 0.03970  0.32390  0.88480  Biso   1.000  H
  N53      1.0000 0.48830  0.94220  0.49070  Biso   1.000  N
  N54      1.0000 0.46650  0.92060  0.51250  Biso   1.000  N
  N55      1.0000 0.50030  0.92180  0.46360  Biso   1.000  N
  N56      1.0000 0.46370  0.88620  0.50000  Biso   1.000  N
  C92      1.0000 0.48480  0.88850  0.46980  Biso   1.000  C
  C93      1.0000 0.48950  0.85390  0.44620  Biso   1.000  C
  C94      1.0000 0.46580  0.82100  0.45250  Biso   1.000  C
  C95      1.0000 0.51660  0.85220  0.42260  Biso   1.000  C
  H53      1.0000 0.44810  0.82010  0.47130  Biso   1.000  H
  C96      1.0000 0.47170  0.79260  0.42910  Biso   1.000  C
  C97      1.0000 0.52020  0.82370  0.40180  Biso   1.000  C
  H54      1.0000 0.53340  0.87170  0.42080  Biso   1.000  H
  H55      1.0000 0.45690  0.77160  0.43130  Biso   1.000  H
  C98      1.0000 0.49820  0.79310  0.40220  Biso   1.000  C
  H56      1.0000 0.53970  0.82390  0.38480  Biso   1.000  H
  N57      1.0000 0.48830  0.05780  0.00930  Biso   1.000  N
  N58      1.0000 0.46650  0.07940  0.98750  Biso   1.000  N
  N59      1.0000 0.50030  0.07820  0.03640  Biso   1.000  N
  N60      1.0000 0.46370  0.11380  0.00000  Biso   1.000  N
  C99      1.0000 0.48480  0.11150  0.03020  Biso   1.000  C
  C100     1.0000 0.48950  0.14610  0.05380  Biso   1.000  C
  C101     1.0000 0.46580  0.17900  0.04750  Biso   1.000  C
  C102     1.0000 0.51660  0.14780  0.07740  Biso   1.000  C
  H57      1.0000 0.44810  0.17990  0.02870  Biso   1.000  H
  C103     1.0000 0.47170  0.20740  0.07090  Biso   1.000  C
  C104     1.0000 0.52020  0.17630  0.09820  Biso   1.000  C
  H58      1.0000 0.53340  0.12830  0.07920  Biso   1.000  H
  H59      1.0000 0.45690  0.22840  0.06870  Biso   1.000  H
  C105     1.0000 0.49820  0.20690  0.09780  Biso   1.000  C
  H60      1.0000 0.53970  0.17610  0.11520  Biso   1.000  H
  N61      1.0000 0.98830  0.55780  0.50930  Biso   1.000  N
  N62      1.0000 0.96650  0.57940  0.48750  Biso   1.000  N
  N63      1.0000 0.00030  0.57820  0.53640  Biso   1.000  N
  N64      1.0000 0.96370  0.61380  0.50000  Biso   1.000  N
  C106     1.0000 0.98480  0.61150  0.53020  Biso   1.000  C
  C107     1.0000 0.98950  0.64610  0.55380  Biso   1.000  C
  C108     1.0000 0.96580  0.67900  0.54750  Biso   1.000  C
  C109     1.0000 0.01660  0.64780  0.57740  Biso   1.000  C
  H61      1.0000 0.94810  0.67990  0.52870  Biso   1.000  H
  C110     1.0000 0.97170  0.70740  0.57090  Biso   1.000  C
  C111     1.0000 0.02020  0.67630  0.59820  Biso   1.000  C
  H62      1.0000 0.03340  0.62830  0.57920  Biso   1.000  H
  H63      1.0000 0.95690  0.72840  0.56870  Biso   1.000  H
  C112     1.0000 0.99820  0.70690  0.59780  Biso   1.000  C
  H64      1.0000 0.03970  0.67610  0.61520  Biso   1.000  H
  N65      1.0000 0.49070  0.51170  0.55780  Biso   1.000  N
  N66      1.0000 0.51250  0.53350  0.57940  Biso   1.000  N
  N67      1.0000 0.46360  0.49970  0.57820  Biso   1.000  N
  N68      1.0000 0.50000  0.53630  0.61380  Biso   1.000  N
  C113     1.0000 0.46980  0.51520  0.61150  Biso   1.000  C
  C114     1.0000 0.44620  0.51050  0.64610  Biso   1.000  C
  C115     1.0000 0.45250  0.53420  0.67900  Biso   1.000  C
  C116     1.0000 0.42260  0.48340  0.64780  Biso   1.000  C
  H65      1.0000 0.47130  0.55190  0.67990  Biso   1.000  H
  C117     1.0000 0.42910  0.52830  0.70740  Biso   1.000  C
  C118     1.0000 0.40180  0.47980  0.67630  Biso   1.000  C
  H66      1.0000 0.42080  0.46660  0.62830  Biso   1.000  H
  H67      1.0000 0.43130  0.54310  0.72840  Biso   1.000  H
  C119     1.0000 0.40220  0.50180  0.70690  Biso   1.000  C
  H68      1.0000 0.38480  0.46030  0.67610  Biso   1.000  H
  N69      1.0000 0.99070  0.01170  0.05780  Biso   1.000  N
  N70      1.0000 0.01250  0.03350  0.07940  Biso   1.000  N
  N71      1.0000 0.96360  0.99970  0.07820  Biso   1.000  N
  N72      1.0000 0.00000  0.03630  0.11380  Biso   1.000  N
  C120     1.0000 0.96980  0.01520  0.11150  Biso   1.000  C
  C121     1.0000 0.94620  0.01050  0.14610  Biso   1.000  C
  C122     1.0000 0.95250  0.03420  0.17900  Biso   1.000  C
  C123     1.0000 0.92260  0.98340  0.14780  Biso   1.000  C
  H69      1.0000 0.97130  0.05190  0.17990  Biso   1.000  H
  C124     1.0000 0.92910  0.02830  0.20740  Biso   1.000  C
  C125     1.0000 0.90180  0.97980  0.17630  Biso   1.000  C
  H70      1.0000 0.92080  0.96660  0.12830  Biso   1.000  H
  H71      1.0000 0.93130  0.04310  0.22840  Biso   1.000  H
  C126     1.0000 0.90220  0.00180  0.20690  Biso   1.000  C
  H72      1.0000 0.88480  0.96030  0.17610  Biso   1.000  H
  N73      1.0000 0.50930  0.01170  0.94220  Biso   1.000  N
  N74      1.0000 0.48750  0.03350  0.92060  Biso   1.000  N
  N75      1.0000 0.53640  0.99970  0.92180  Biso   1.000  N
  N76      1.0000 0.50000  0.03630  0.88620  Biso   1.000  N
  C127     1.0000 0.53020  0.01520  0.88850  Biso   1.000  C
  C128     1.0000 0.55380  0.01050  0.85390  Biso   1.000  C
  C129     1.0000 0.54750  0.03420  0.82100  Biso   1.000  C
  C130     1.0000 0.57740  0.98340  0.85220  Biso   1.000  C
  H73      1.0000 0.52870  0.05190  0.82010  Biso   1.000  H
  C131     1.0000 0.57090  0.02830  0.79260  Biso   1.000  C
  C132     1.0000 0.59820  0.97980  0.82370  Biso   1.000  C
  H74      1.0000 0.57920  0.96660  0.87170  Biso   1.000  H
  H75      1.0000 0.56870  0.04310  0.77160  Biso   1.000  H
  C133     1.0000 0.59780  0.00180  0.79310  Biso   1.000  C
  H76      1.0000 0.61520  0.96030  0.82390  Biso   1.000  H
  N77      1.0000 0.00930  0.51170  0.44220  Biso   1.000  N
  N78      1.0000 0.98750  0.53350  0.42060  Biso   1.000  N
  N79      1.0000 0.03640  0.49970  0.42180  Biso   1.000  N
  N80      1.0000 0.00000  0.53630  0.38620  Biso   1.000  N
  C134     1.0000 0.03020  0.51520  0.38850  Biso   1.000  C
  C135     1.0000 0.05380  0.51050  0.35390  Biso   1.000  C
  C136     1.0000 0.04750  0.53420  0.32100  Biso   1.000  C
  C137     1.0000 0.07740  0.48340  0.35220  Biso   1.000  C
  H77      1.0000 0.02870  0.55190  0.32010  Biso   1.000  H
  C138     1.0000 0.07090  0.52830  0.29260  Biso   1.000  C
  C139     1.0000 0.09820  0.47980  0.32370  Biso   1.000  C
  H78      1.0000 0.07920  0.46660  0.37170  Biso   1.000  H
  H79      1.0000 0.06870  0.54310  0.27160  Biso   1.000  H
  C140     1.0000 0.09780  0.50180  0.29310  Biso   1.000  C
  H80      1.0000 0.11520  0.46030  0.32390  Biso   1.000  H
  N81      1.0000 0.99070  0.98830  0.44220  Biso   1.000  N
  N82      1.0000 0.01250  0.96650  0.42060  Biso   1.000  N
  N83      1.0000 0.96360  0.00030  0.42180  Biso   1.000  N
  N84      1.0000 0.00000  0.96370  0.38620  Biso   1.000  N
  C141     1.0000 0.96980  0.98480  0.38850  Biso   1.000  C
  C142     1.0000 0.94620  0.98950  0.35390  Biso   1.000  C
  C143     1.0000 0.95250  0.96580  0.32100  Biso   1.000  C
  C144     1.0000 0.92260  0.01660  0.35220  Biso   1.000  C
  H81      1.0000 0.97130  0.94810  0.32010  Biso   1.000  H
  C145     1.0000 0.92910  0.97170  0.29260  Biso   1.000  C
  C146     1.0000 0.90180  0.02020  0.32370  Biso   1.000  C
  H82      1.0000 0.92080  0.03340  0.37170  Biso   1.000  H
  H83      1.0000 0.93130  0.95690  0.27160  Biso   1.000  H
  C147     1.0000 0.90220  0.99820  0.29310  Biso   1.000  C
  H84      1.0000 0.88480  0.03970  0.32390  Biso   1.000  H
  N85      1.0000 0.49070  0.48830  0.94220  Biso   1.000  N
  N86      1.0000 0.51250  0.46650  0.92060  Biso   1.000  N
  N87      1.0000 0.46360  0.50030  0.92180  Biso   1.000  N
  N88      1.0000 0.50000  0.46370  0.88620  Biso   1.000  N
  C148     1.0000 0.46980  0.48480  0.88850  Biso   1.000  C
  C149     1.0000 0.44620  0.48950  0.85390  Biso   1.000  C
  C150     1.0000 0.45250  0.46580  0.82100  Biso   1.000  C
  C151     1.0000 0.42260  0.51660  0.85220  Biso   1.000  C
  H85      1.0000 0.47130  0.44810  0.82010  Biso   1.000  H
  C152     1.0000 0.42910  0.47170  0.79260  Biso   1.000  C
  C153     1.0000 0.40180  0.52020  0.82370  Biso   1.000  C
  H86      1.0000 0.42080  0.53340  0.87170  Biso   1.000  H
  H87      1.0000 0.43130  0.45690  0.77160  Biso   1.000  H
  C154     1.0000 0.40220  0.49820  0.79310  Biso   1.000  C
  H88      1.0000 0.38480  0.53970  0.82390  Biso   1.000  H
  N89      1.0000 0.00930  0.48830  0.05780  Biso   1.000  N
  N90      1.0000 0.98750  0.46650  0.07940  Biso   1.000  N
  N91      1.0000 0.03640  0.50030  0.07820  Biso   1.000  N
  N92      1.0000 0.00000  0.46370  0.11380  Biso   1.000  N
  C155     1.0000 0.03020  0.48480  0.11150  Biso   1.000  C
  C156     1.0000 0.05380  0.48950  0.14610  Biso   1.000  C
  C157     1.0000 0.04750  0.46580  0.17900  Biso   1.000  C
  C158     1.0000 0.07740  0.51660  0.14780  Biso   1.000  C
  H89      1.0000 0.02870  0.44810  0.17990  Biso   1.000  H
  C159     1.0000 0.07090  0.47170  0.20740  Biso   1.000  C
  C160     1.0000 0.09820  0.52020  0.17630  Biso   1.000  C
  H90      1.0000 0.07920  0.53340  0.12830  Biso   1.000  H
  H91      1.0000 0.06870  0.45690  0.22840  Biso   1.000  H
  C161     1.0000 0.09780  0.49820  0.20690  Biso   1.000  C
  H92      1.0000 0.11520  0.53970  0.17610  Biso   1.000  H
  N93      1.0000 0.50930  0.98830  0.55780  Biso   1.000  N
  N94      1.0000 0.48750  0.96650  0.57940  Biso   1.000  N
  N95      1.0000 0.53640  0.00030  0.57820  Biso   1.000  N
  N96      1.0000 0.50000  0.96370  0.61380  Biso   1.000  N
  C162     1.0000 0.53020  0.98480  0.61150  Biso   1.000  C
  C163     1.0000 0.55380  0.98950  0.64610  Biso   1.000  C
  C164     1.0000 0.54750  0.96580  0.67900  Biso   1.000  C
  C165     1.0000 0.57740  0.01660  0.64780  Biso   1.000  C
  H93      1.0000 0.52870  0.94810  0.67990  Biso   1.000  H
  C166     1.0000 0.57090  0.97170  0.70740  Biso   1.000  C
  C167     1.0000 0.59820  0.02020  0.67630  Biso   1.000  C
  H94      1.0000 0.57920  0.03340  0.62830  Biso   1.000  H
  H95      1.0000 0.56870  0.95690  0.72840  Biso   1.000  H
  C168     1.0000 0.59780  0.99820  0.70690  Biso   1.000  C
  H96      1.0000 0.61520  0.03970  0.67610  Biso   1.000  H
  N97      1.0000 0.24070  0.80780  0.73830  Biso   1.000  N
  N98      1.0000 0.26250  0.82940  0.71650  Biso   1.000  N
  N99      1.0000 0.21360  0.82820  0.75030  Biso   1.000  N
  N100     1.0000 0.25000  0.86380  0.71370  Biso   1.000  N
  C169     1.0000 0.21980  0.86150  0.73480  Biso   1.000  C
  C170     1.0000 0.19620  0.89610  0.73950  Biso   1.000  C
  C171     1.0000 0.20250  0.92900  0.71580  Biso   1.000  C
  C172     1.0000 0.17260  0.89780  0.76660  Biso   1.000  C
  H97      1.0000 0.22130  0.92990  0.69810  Biso   1.000  H
  C173     1.0000 0.17910  0.95740  0.72170  Biso   1.000  C
  C174     1.0000 0.15180  0.92630  0.77020  Biso   1.000  C
  H98      1.0000 0.17080  0.87830  0.78340  Biso   1.000  H
  H99      1.0000 0.18130  0.97840  0.70690  Biso   1.000  H
  C175     1.0000 0.15220  0.95690  0.74820  Biso   1.000  C
  H100     1.0000 0.13480  0.92610  0.78970  Biso   1.000  H
  N101     1.0000 0.74070  0.30780  0.23830  Biso   1.000  N
  N102     1.0000 0.76250  0.32940  0.21650  Biso   1.000  N
  N103     1.0000 0.71360  0.32820  0.25030  Biso   1.000  N
  N104     1.0000 0.75000  0.36380  0.21370  Biso   1.000  N
  C176     1.0000 0.71980  0.36150  0.23480  Biso   1.000  C
  C177     1.0000 0.69620  0.39610  0.23950  Biso   1.000  C
  C178     1.0000 0.70250  0.42900  0.21580  Biso   1.000  C
  C179     1.0000 0.67260  0.39780  0.26660  Biso   1.000  C
  H101     1.0000 0.72130  0.42990  0.19810  Biso   1.000  H
  C180     1.0000 0.67910  0.45740  0.22170  Biso   1.000  C
  C181     1.0000 0.65180  0.42630  0.27020  Biso   1.000  C
  H102     1.0000 0.67080  0.37830  0.28340  Biso   1.000  H
  H103     1.0000 0.68130  0.47840  0.20690  Biso   1.000  H
  C182     1.0000 0.65220  0.45690  0.24820  Biso   1.000  C
  H104     1.0000 0.63480  0.42610  0.28970  Biso   1.000  H
  N105     1.0000 0.25930  0.19220  0.23830  Biso   1.000  N
  N106     1.0000 0.23750  0.17060  0.21650  Biso   1.000  N
  N107     1.0000 0.28640  0.17180  0.25030  Biso   1.000  N
  N108     1.0000 0.25000  0.13620  0.21370  Biso   1.000  N
  C183     1.0000 0.28020  0.13850  0.23480  Biso   1.000  C
  C184     1.0000 0.30380  0.10390  0.23950  Biso   1.000  C
  C185     1.0000 0.29750  0.07100  0.21580  Biso   1.000  C
  C186     1.0000 0.32740  0.10220  0.26660  Biso   1.000  C
  H105     1.0000 0.27870  0.07010  0.19810  Biso   1.000  H
  C187     1.0000 0.32090  0.04260  0.22170  Biso   1.000  C
  C188     1.0000 0.34820  0.07370  0.27020  Biso   1.000  C
  H106     1.0000 0.32920  0.12170  0.28340  Biso   1.000  H
  H107     1.0000 0.31870  0.02160  0.20690  Biso   1.000  H
  C189     1.0000 0.34780  0.04310  0.24820  Biso   1.000  C
  H108     1.0000 0.36520  0.07390  0.28970  Biso   1.000  H
  N109     1.0000 0.75930  0.69220  0.73830  Biso   1.000  N
  N110     1.0000 0.73750  0.67060  0.71650  Biso   1.000  N
  N111     1.0000 0.78640  0.67180  0.75030  Biso   1.000  N
  N112     1.0000 0.75000  0.63620  0.71370  Biso   1.000  N
  C190     1.0000 0.78020  0.63850  0.73480  Biso   1.000  C
  C191     1.0000 0.80380  0.60390  0.73950  Biso   1.000  C
  C192     1.0000 0.79750  0.57100  0.71580  Biso   1.000  C
  C193     1.0000 0.82740  0.60220  0.76660  Biso   1.000  C
  H109     1.0000 0.77870  0.57010  0.69810  Biso   1.000  H
  C194     1.0000 0.82090  0.54260  0.72170  Biso   1.000  C
  C195     1.0000 0.84820  0.57370  0.77020  Biso   1.000  C
  H110     1.0000 0.82920  0.62170  0.78340  Biso   1.000  H
  H111     1.0000 0.81870  0.52160  0.70690  Biso   1.000  H
  C196     1.0000 0.84780  0.54310  0.74820  Biso   1.000  C
  H112     1.0000 0.86520  0.57390  0.78970  Biso   1.000  H
  N113     1.0000 0.74070  0.69220  0.26170  Biso   1.000  N
  N114     1.0000 0.76250  0.67060  0.28350  Biso   1.000  N
  N115     1.0000 0.71360  0.67180  0.24970  Biso   1.000  N
  N116     1.0000 0.75000  0.63620  0.28630  Biso   1.000  N
  C197     1.0000 0.71980  0.63850  0.26520  Biso   1.000  C
  C198     1.0000 0.69620  0.60390  0.26050  Biso   1.000  C
  C199     1.0000 0.70250  0.57100  0.28420  Biso   1.000  C
  C200     1.0000 0.67260  0.60220  0.23340  Biso   1.000  C
  H113     1.0000 0.72130  0.57010  0.30190  Biso   1.000  H
  C201     1.0000 0.67910  0.54260  0.27830  Biso   1.000  C
  C202     1.0000 0.65180  0.57370  0.22980  Biso   1.000  C
  H114     1.0000 0.67080  0.62170  0.21660  Biso   1.000  H
  H115     1.0000 0.68130  0.52160  0.29310  Biso   1.000  H
  C203     1.0000 0.65220  0.54310  0.25180  Biso   1.000  C
  H116     1.0000 0.63480  0.57390  0.21030  Biso   1.000  H
  N117     1.0000 0.24070  0.19220  0.76170  Biso   1.000  N
  N118     1.0000 0.26250  0.17060  0.78350  Biso   1.000  N
  N119     1.0000 0.21360  0.17180  0.74970  Biso   1.000  N
  N120     1.0000 0.25000  0.13620  0.78630  Biso   1.000  N
  C204     1.0000 0.21980  0.13850  0.76520  Biso   1.000  C
  C205     1.0000 0.19620  0.10390  0.76050  Biso   1.000  C
  C206     1.0000 0.20250  0.07100  0.78420  Biso   1.000  C
  C207     1.0000 0.17260  0.10220  0.73340  Biso   1.000  C
  H117     1.0000 0.22130  0.07010  0.80190  Biso   1.000  H
  C208     1.0000 0.17910  0.04260  0.77830  Biso   1.000  C
  C209     1.0000 0.15180  0.07370  0.72980  Biso   1.000  C
  H118     1.0000 0.17080  0.12170  0.71660  Biso   1.000  H
  H119     1.0000 0.18130  0.02160  0.79310  Biso   1.000  H
  C210     1.0000 0.15220  0.04310  0.75180  Biso   1.000  C
  H120     1.0000 0.13480  0.07390  0.71030  Biso   1.000  H
  N121     1.0000 0.75930  0.30780  0.76170  Biso   1.000  N
  N122     1.0000 0.73750  0.32940  0.78350  Biso   1.000  N
  N123     1.0000 0.78640  0.32820  0.74970  Biso   1.000  N
  N124     1.0000 0.75000  0.36380  0.78630  Biso   1.000  N
  C211     1.0000 0.78020  0.36150  0.76520  Biso   1.000  C
  C212     1.0000 0.80380  0.39610  0.76050  Biso   1.000  C
  C213     1.0000 0.79750  0.42900  0.78420  Biso   1.000  C
  C214     1.0000 0.82740  0.39780  0.73340  Biso   1.000  C
  H121     1.0000 0.77870  0.42990  0.80190  Biso   1.000  H
  C215     1.0000 0.82090  0.45740  0.77830  Biso   1.000  C
  C216     1.0000 0.84820  0.42630  0.72980  Biso   1.000  C
  H122     1.0000 0.82920  0.37830  0.71660  Biso   1.000  H
  H123     1.0000 0.81870  0.47840  0.79310  Biso   1.000  H
  C217     1.0000 0.84780  0.45690  0.75180  Biso   1.000  C
  H124     1.0000 0.86520  0.42610  0.71030  Biso   1.000  H
  N125     1.0000 0.25930  0.80780  0.26170  Biso   1.000  N
  N126     1.0000 0.23750  0.82940  0.28350  Biso   1.000  N
  N127     1.0000 0.28640  0.82820  0.24970  Biso   1.000  N
  N128     1.0000 0.25000  0.86380  0.28630  Biso   1.000  N
  C218     1.0000 0.28020  0.86150  0.26520  Biso   1.000  C
  C219     1.0000 0.30380  0.89610  0.26050  Biso   1.000  C
  C220     1.0000 0.29750  0.92900  0.28420  Biso   1.000  C
  C221     1.0000 0.32740  0.89780  0.23340  Biso   1.000  C
  H125     1.0000 0.27870  0.92990  0.30190  Biso   1.000  H
  C222     1.0000 0.32090  0.95740  0.27830  Biso   1.000  C
  C223     1.0000 0.34820  0.92630  0.22980  Biso   1.000  C
  H126     1.0000 0.32920  0.87830  0.21660  Biso   1.000  H
  H127     1.0000 0.31870  0.97840  0.29310  Biso   1.000  H
  C224     1.0000 0.34780  0.95690  0.25180  Biso   1.000  C
  H128     1.0000 0.36520  0.92610  0.21030  Biso   1.000  H
  N129     1.0000 0.30780  0.76170  0.75930  Biso   1.000  N
  N130     1.0000 0.32940  0.78350  0.73750  Biso   1.000  N
  N131     1.0000 0.32820  0.74970  0.78640  Biso   1.000  N
  N132     1.0000 0.36380  0.78630  0.75000  Biso   1.000  N
  C225     1.0000 0.36150  0.76520  0.78020  Biso   1.000  C
  C226     1.0000 0.39610  0.76050  0.80380  Biso   1.000  C
  C227     1.0000 0.42900  0.78420  0.79750  Biso   1.000  C
  C228     1.0000 0.39780  0.73340  0.82740  Biso   1.000  C
  H129     1.0000 0.42990  0.80190  0.77870  Biso   1.000  H
  C229     1.0000 0.45740  0.77830  0.82090  Biso   1.000  C
  C230     1.0000 0.42630  0.72980  0.84820  Biso   1.000  C
  H130     1.0000 0.37830  0.71660  0.82920  Biso   1.000  H
  H131     1.0000 0.47840  0.79310  0.81870  Biso   1.000  H
  C231     1.0000 0.45690  0.75180  0.84780  Biso   1.000  C
  H132     1.0000 0.42610  0.71030  0.86520  Biso   1.000  H
  N133     1.0000 0.80780  0.26170  0.25930  Biso   1.000  N
  N134     1.0000 0.82940  0.28350  0.23750  Biso   1.000  N
  N135     1.0000 0.82820  0.24970  0.28640  Biso   1.000  N
  N136     1.0000 0.86380  0.28630  0.25000  Biso   1.000  N
  C232     1.0000 0.86150  0.26520  0.28020  Biso   1.000  C
  C233     1.0000 0.89610  0.26050  0.30380  Biso   1.000  C
  C234     1.0000 0.92900  0.28420  0.29750  Biso   1.000  C
  C235     1.0000 0.89780  0.23340  0.32740  Biso   1.000  C
  H133     1.0000 0.92990  0.30190  0.27870  Biso   1.000  H
  C236     1.0000 0.95740  0.27830  0.32090  Biso   1.000  C
  C237     1.0000 0.92630  0.22980  0.34820  Biso   1.000  C
  H134     1.0000 0.87830  0.21660  0.32920  Biso   1.000  H
  H135     1.0000 0.97840  0.29310  0.31870  Biso   1.000  H
  C238     1.0000 0.95690  0.25180  0.34780  Biso   1.000  C
  H136     1.0000 0.92610  0.21030  0.36520  Biso   1.000  H
  N137     1.0000 0.69220  0.26170  0.74070  Biso   1.000  N
  N138     1.0000 0.67060  0.28350  0.76250  Biso   1.000  N
  N139     1.0000 0.67180  0.24970  0.71360  Biso   1.000  N
  N140     1.0000 0.63620  0.28630  0.75000  Biso   1.000  N
  C239     1.0000 0.63850  0.26520  0.71980  Biso   1.000  C
  C240     1.0000 0.60390  0.26050  0.69620  Biso   1.000  C
  C241     1.0000 0.57100  0.28420  0.70250  Biso   1.000  C
  C242     1.0000 0.60220  0.23340  0.67260  Biso   1.000  C
  H137     1.0000 0.57010  0.30190  0.72130  Biso   1.000  H
  C243     1.0000 0.54260  0.27830  0.67910  Biso   1.000  C
  C244     1.0000 0.57370  0.22980  0.65180  Biso   1.000  C
  H138     1.0000 0.62170  0.21660  0.67080  Biso   1.000  H
  H139     1.0000 0.52160  0.29310  0.68130  Biso   1.000  H
  C245     1.0000 0.54310  0.25180  0.65220  Biso   1.000  C
  H140     1.0000 0.57390  0.21030  0.63480  Biso   1.000  H
  N141     1.0000 0.19220  0.76170  0.24070  Biso   1.000  N
  N142     1.0000 0.17060  0.78350  0.26250  Biso   1.000  N
  N143     1.0000 0.17180  0.74970  0.21360  Biso   1.000  N
  N144     1.0000 0.13620  0.78630  0.25000  Biso   1.000  N
  C246     1.0000 0.13850  0.76520  0.21980  Biso   1.000  C
  C247     1.0000 0.10390  0.76050  0.19620  Biso   1.000  C
  C248     1.0000 0.07100  0.78420  0.20250  Biso   1.000  C
  C249     1.0000 0.10220  0.73340  0.17260  Biso   1.000  C
  H141     1.0000 0.07010  0.80190  0.22130  Biso   1.000  H
  C250     1.0000 0.04260  0.77830  0.17910  Biso   1.000  C
  C251     1.0000 0.07370  0.72980  0.15180  Biso   1.000  C
  H142     1.0000 0.12170  0.71660  0.17080  Biso   1.000  H
  H143     1.0000 0.02160  0.79310  0.18130  Biso   1.000  H
  C252     1.0000 0.04310  0.75180  0.15220  Biso   1.000  C
  H144     1.0000 0.07390  0.71030  0.13480  Biso   1.000  H
  N145     1.0000 0.19220  0.23830  0.25930  Biso   1.000  N
  N146     1.0000 0.17060  0.21650  0.23750  Biso   1.000  N
  N147     1.0000 0.17180  0.25030  0.28640  Biso   1.000  N
  N148     1.0000 0.13620  0.21370  0.25000  Biso   1.000  N
  C253     1.0000 0.13850  0.23480  0.28020  Biso   1.000  C
  C254     1.0000 0.10390  0.23950  0.30380  Biso   1.000  C
  C255     1.0000 0.07100  0.21580  0.29750  Biso   1.000  C
  C256     1.0000 0.10220  0.26660  0.32740  Biso   1.000  C
  H145     1.0000 0.07010  0.19810  0.27870  Biso   1.000  H
  C257     1.0000 0.04260  0.22170  0.32090  Biso   1.000  C
  C258     1.0000 0.07370  0.27020  0.34820  Biso   1.000  C
  H146     1.0000 0.12170  0.28340  0.32920  Biso   1.000  H
  H147     1.0000 0.02160  0.20690  0.31870  Biso   1.000  H
  C259     1.0000 0.04310  0.24820  0.34780  Biso   1.000  C
  H148     1.0000 0.07390  0.28970  0.36520  Biso   1.000  H
  N149     1.0000 0.69220  0.73830  0.75930  Biso   1.000  N
  N150     1.0000 0.67060  0.71650  0.73750  Biso   1.000  N
  N151     1.0000 0.67180  0.75030  0.78640  Biso   1.000  N
  N152     1.0000 0.63620  0.71370  0.75000  Biso   1.000  N
  C260     1.0000 0.63850  0.73480  0.78020  Biso   1.000  C
  C261     1.0000 0.60390  0.73950  0.80380  Biso   1.000  C
  C262     1.0000 0.57100  0.71580  0.79750  Biso   1.000  C
  C263     1.0000 0.60220  0.76660  0.82740  Biso   1.000  C
  H149     1.0000 0.57010  0.69810  0.77870  Biso   1.000  H
  C264     1.0000 0.54260  0.72170  0.82090  Biso   1.000  C
  C265     1.0000 0.57370  0.77020  0.84820  Biso   1.000  C
  H150     1.0000 0.62170  0.78340  0.82920  Biso   1.000  H
  H151     1.0000 0.52160  0.70690  0.81870  Biso   1.000  H
  C266     1.0000 0.54310  0.74820  0.84780  Biso   1.000  C
  H152     1.0000 0.57390  0.78970  0.86520  Biso   1.000  H
  N153     1.0000 0.80780  0.73830  0.24070  Biso   1.000  N
  N154     1.0000 0.82940  0.71650  0.26250  Biso   1.000  N
  N155     1.0000 0.82820  0.75030  0.21360  Biso   1.000  N
  N156     1.0000 0.86380  0.71370  0.25000  Biso   1.000  N
  C267     1.0000 0.86150  0.73480  0.21980  Biso   1.000  C
  C268     1.0000 0.89610  0.73950  0.19620  Biso   1.000  C
  C269     1.0000 0.92900  0.71580  0.20250  Biso   1.000  C
  C270     1.0000 0.89780  0.76660  0.17260  Biso   1.000  C
  H153     1.0000 0.92990  0.69810  0.22130  Biso   1.000  H
  C271     1.0000 0.95740  0.72170  0.17910  Biso   1.000  C
  C272     1.0000 0.92630  0.77020  0.15180  Biso   1.000  C
  H154     1.0000 0.87830  0.78340  0.17080  Biso   1.000  H
  H155     1.0000 0.97840  0.70690  0.18130  Biso   1.000  H
  C273     1.0000 0.95690  0.74820  0.15220  Biso   1.000  C
  H156     1.0000 0.92610  0.78970  0.13480  Biso   1.000  H
  N157     1.0000 0.30780  0.23830  0.74070  Biso   1.000  N
  N158     1.0000 0.32940  0.21650  0.76250  Biso   1.000  N
  N159     1.0000 0.32820  0.25030  0.71360  Biso   1.000  N
  N160     1.0000 0.36380  0.21370  0.75000  Biso   1.000  N
  C274     1.0000 0.36150  0.23480  0.71980  Biso   1.000  C
  C275     1.0000 0.39610  0.23950  0.69620  Biso   1.000  C
  C276     1.0000 0.42900  0.21580  0.70250  Biso   1.000  C
  C277     1.0000 0.39780  0.26660  0.67260  Biso   1.000  C
  H157     1.0000 0.42990  0.19810  0.72130  Biso   1.000  H
  C278     1.0000 0.45740  0.22170  0.67910  Biso   1.000  C
  C279     1.0000 0.42630  0.27020  0.65180  Biso   1.000  C
  H158     1.0000 0.37830  0.28340  0.67080  Biso   1.000  H
  H159     1.0000 0.47840  0.20690  0.68130  Biso   1.000  H
  C280     1.0000 0.45690  0.24820  0.65220  Biso   1.000  C
  H160     1.0000 0.42610  0.28970  0.63480  Biso   1.000  H
  N161     1.0000 0.26170  0.74070  0.69220  Biso   1.000  N
  N162     1.0000 0.28350  0.76250  0.67060  Biso   1.000  N
  N163     1.0000 0.24970  0.71360  0.67180  Biso   1.000  N
  N164     1.0000 0.28630  0.75000  0.63620  Biso   1.000  N
  C281     1.0000 0.26520  0.71980  0.63850  Biso   1.000  C
  C282     1.0000 0.26050  0.69620  0.60390  Biso   1.000  C
  C283     1.0000 0.28420  0.70250  0.57100  Biso   1.000  C
  C284     1.0000 0.23340  0.67260  0.60220  Biso   1.000  C
  H161     1.0000 0.30190  0.72130  0.57010  Biso   1.000  H
  C285     1.0000 0.27830  0.67910  0.54260  Biso   1.000  C
  C286     1.0000 0.22980  0.65180  0.57370  Biso   1.000  C
  H162     1.0000 0.21660  0.67080  0.62170  Biso   1.000  H
  H163     1.0000 0.29310  0.68130  0.52160  Biso   1.000  H
  C287     1.0000 0.25180  0.65220  0.54310  Biso   1.000  C
  H164     1.0000 0.21030  0.63480  0.57390  Biso   1.000  H
  N165     1.0000 0.76170  0.24070  0.19220  Biso   1.000  N
  N166     1.0000 0.78350  0.26250  0.17060  Biso   1.000  N
  N167     1.0000 0.74970  0.21360  0.17180  Biso   1.000  N
  N168     1.0000 0.78630  0.25000  0.13620  Biso   1.000  N
  C288     1.0000 0.76520  0.21980  0.13850  Biso   1.000  C
  C289     1.0000 0.76050  0.19620  0.10390  Biso   1.000  C
  C290     1.0000 0.78420  0.20250  0.07100  Biso   1.000  C
  C291     1.0000 0.73340  0.17260  0.10220  Biso   1.000  C
  H165     1.0000 0.80190  0.22130  0.07010  Biso   1.000  H
  C292     1.0000 0.77830  0.17910  0.04260  Biso   1.000  C
  C293     1.0000 0.72980  0.15180  0.07370  Biso   1.000  C
  H166     1.0000 0.71660  0.17080  0.12170  Biso   1.000  H
  H167     1.0000 0.79310  0.18130  0.02160  Biso   1.000  H
  C294     1.0000 0.75180  0.15220  0.04310  Biso   1.000  C
  H168     1.0000 0.71030  0.13480  0.07390  Biso   1.000  H
  N169     1.0000 0.76170  0.75930  0.30780  Biso   1.000  N
  N170     1.0000 0.78350  0.73750  0.32940  Biso   1.000  N
  N171     1.0000 0.74970  0.78640  0.32820  Biso   1.000  N
  N172     1.0000 0.78630  0.75000  0.36380  Biso   1.000  N
  C295     1.0000 0.76520  0.78020  0.36150  Biso   1.000  C
  C296     1.0000 0.76050  0.80380  0.39610  Biso   1.000  C
  C297     1.0000 0.78420  0.79750  0.42900  Biso   1.000  C
  C298     1.0000 0.73340  0.82740  0.39780  Biso   1.000  C
  H169     1.0000 0.80190  0.77870  0.42990  Biso   1.000  H
  C299     1.0000 0.77830  0.82090  0.45740  Biso   1.000  C
  C300     1.0000 0.72980  0.84820  0.42630  Biso   1.000  C
  H170     1.0000 0.71660  0.82920  0.37830  Biso   1.000  H
  H171     1.0000 0.79310  0.81870  0.47840  Biso   1.000  H
  C301     1.0000 0.75180  0.84780  0.45690  Biso   1.000  C
  H172     1.0000 0.71030  0.86520  0.42610  Biso   1.000  H
  N173     1.0000 0.26170  0.25930  0.80780  Biso   1.000  N
  N174     1.0000 0.28350  0.23750  0.82940  Biso   1.000  N
  N175     1.0000 0.24970  0.28640  0.82820  Biso   1.000  N
  N176     1.0000 0.28630  0.25000  0.86380  Biso   1.000  N
  C302     1.0000 0.26520  0.28020  0.86150  Biso   1.000  C
  C303     1.0000 0.26050  0.30380  0.89610  Biso   1.000  C
  C304     1.0000 0.28420  0.29750  0.92900  Biso   1.000  C
  C305     1.0000 0.23340  0.32740  0.89780  Biso   1.000  C
  H173     1.0000 0.30190  0.27870  0.92990  Biso   1.000  H
  C306     1.0000 0.27830  0.32090  0.95740  Biso   1.000  C
  C307     1.0000 0.22980  0.34820  0.92630  Biso   1.000  C
  H174     1.0000 0.21660  0.32920  0.87830  Biso   1.000  H
  H175     1.0000 0.29310  0.31870  0.97840  Biso   1.000  H
  C308     1.0000 0.25180  0.34780  0.95690  Biso   1.000  C
  H176     1.0000 0.21030  0.36520  0.92610  Biso   1.000  H
  N177     1.0000 0.73830  0.24070  0.80780  Biso   1.000  N
  N178     1.0000 0.71650  0.26250  0.82940  Biso   1.000  N
  N179     1.0000 0.75030  0.21360  0.82820  Biso   1.000  N
  N180     1.0000 0.71370  0.25000  0.86380  Biso   1.000  N
  C309     1.0000 0.73480  0.21980  0.86150  Biso   1.000  C
  C310     1.0000 0.73950  0.19620  0.89610  Biso   1.000  C
  C311     1.0000 0.71580  0.20250  0.92900  Biso   1.000  C
  C312     1.0000 0.76660  0.17260  0.89780  Biso   1.000  C
  H177     1.0000 0.69810  0.22130  0.92990  Biso   1.000  H
  C313     1.0000 0.72170  0.17910  0.95740  Biso   1.000  C
  C314     1.0000 0.77020  0.15180  0.92630  Biso   1.000  C
  H178     1.0000 0.78340  0.17080  0.87830  Biso   1.000  H
  H179     1.0000 0.70690  0.18130  0.97840  Biso   1.000  H
  C315     1.0000 0.74820  0.15220  0.95690  Biso   1.000  C
  H180     1.0000 0.78970  0.13480  0.92610  Biso   1.000  H
  N181     1.0000 0.23830  0.74070  0.30780  Biso   1.000  N
  N182     1.0000 0.21650  0.76250  0.32940  Biso   1.000  N
  N183     1.0000 0.25030  0.71360  0.32820  Biso   1.000  N
  N184     1.0000 0.21370  0.75000  0.36380  Biso   1.000  N
  C316     1.0000 0.23480  0.71980  0.36150  Biso   1.000  C
  C317     1.0000 0.23950  0.69620  0.39610  Biso   1.000  C
  C318     1.0000 0.21580  0.70250  0.42900  Biso   1.000  C
  C319     1.0000 0.26660  0.67260  0.39780  Biso   1.000  C
  H181     1.0000 0.19810  0.72130  0.42990  Biso   1.000  H
  C320     1.0000 0.22170  0.67910  0.45740  Biso   1.000  C
  C321     1.0000 0.27020  0.65180  0.42630  Biso   1.000  C
  H182     1.0000 0.28340  0.67080  0.37830  Biso   1.000  H
  H183     1.0000 0.20690  0.68130  0.47840  Biso   1.000  H
  C322     1.0000 0.24820  0.65220  0.45690  Biso   1.000  C
  H184     1.0000 0.28970  0.63480  0.42610  Biso   1.000  H
  N185     1.0000 0.23830  0.25930  0.19220  Biso   1.000  N
  N186     1.0000 0.21650  0.23750  0.17060  Biso   1.000  N
  N187     1.0000 0.25030  0.28640  0.17180  Biso   1.000  N
  N188     1.0000 0.21370  0.25000  0.13620  Biso   1.000  N
  C323     1.0000 0.23480  0.28020  0.13850  Biso   1.000  C
  C324     1.0000 0.23950  0.30380  0.10390  Biso   1.000  C
  C325     1.0000 0.21580  0.29750  0.07100  Biso   1.000  C
  C326     1.0000 0.26660  0.32740  0.10220  Biso   1.000  C
  H185     1.0000 0.19810  0.27870  0.07010  Biso   1.000  H
  C327     1.0000 0.22170  0.32090  0.04260  Biso   1.000  C
  C328     1.0000 0.27020  0.34820  0.07370  Biso   1.000  C
  H186     1.0000 0.28340  0.32920  0.12170  Biso   1.000  H
  H187     1.0000 0.20690  0.31870  0.02160  Biso   1.000  H
  C329     1.0000 0.24820  0.34780  0.04310  Biso   1.000  C
  H188     1.0000 0.28970  0.36520  0.07390  Biso   1.000  H
  N189     1.0000 0.73830  0.75930  0.69220  Biso   1.000  N
  N190     1.0000 0.71650  0.73750  0.67060  Biso   1.000  N
  N191     1.0000 0.75030  0.78640  0.67180  Biso   1.000  N
  N192     1.0000 0.71370  0.75000  0.63620  Biso   1.000  N
  C330     1.0000 0.73480  0.78020  0.63850  Biso   1.000  C
  C331     1.0000 0.73950  0.80380  0.60390  Biso   1.000  C
  C332     1.0000 0.71580  0.79750  0.57100  Biso   1.000  C
  C333     1.0000 0.76660  0.82740  0.60220  Biso   1.000  C
  H189     1.0000 0.69810  0.77870  0.57010  Biso   1.000  H
  C334     1.0000 0.72170  0.82090  0.54260  Biso   1.000  C
  C335     1.0000 0.77020  0.84820  0.57370  Biso   1.000  C
  H190     1.0000 0.78340  0.82920  0.62170  Biso   1.000  H
  H191     1.0000 0.70690  0.81870  0.52160  Biso   1.000  H
  C336     1.0000 0.74820  0.84780  0.54310  Biso   1.000  C
  H192     1.0000 0.78970  0.86520  0.57390  Biso   1.000  H
  N193     1.0000 0.44220  0.50930  0.48830  Biso   1.000  N
  N194     1.0000 0.42060  0.48750  0.46650  Biso   1.000  N
  N195     1.0000 0.42180  0.53640  0.50030  Biso   1.000  N
  N196     1.0000 0.38620  0.50000  0.46370  Biso   1.000  N
  C337     1.0000 0.38850  0.53020  0.48480  Biso   1.000  C
  C338     1.0000 0.35390  0.55380  0.48950  Biso   1.000  C
  C339     1.0000 0.32100  0.54750  0.46580  Biso   1.000  C
  C340     1.0000 0.35220  0.57740  0.51660  Biso   1.000  C
  H193     1.0000 0.32010  0.52870  0.44810  Biso   1.000  H
  C341     1.0000 0.29260  0.57090  0.47170  Biso   1.000  C
  C342     1.0000 0.32370  0.59820  0.52020  Biso   1.000  C
  H194     1.0000 0.37170  0.57920  0.53340  Biso   1.000  H
  H195     1.0000 0.27160  0.56870  0.45690  Biso   1.000  H
  C343     1.0000 0.29310  0.59780  0.49820  Biso   1.000  C
  H196     1.0000 0.32390  0.61520  0.53970  Biso   1.000  H
  N197     1.0000 0.94220  0.00930  0.98830  Biso   1.000  N
  N198     1.0000 0.92060  0.98750  0.96650  Biso   1.000  N
  N199     1.0000 0.92180  0.03640  0.00030  Biso   1.000  N
  N200     1.0000 0.88620  0.00000  0.96370  Biso   1.000  N
  C344     1.0000 0.88850  0.03020  0.98480  Biso   1.000  C
  C345     1.0000 0.85390  0.05380  0.98950  Biso   1.000  C
  C346     1.0000 0.82100  0.04750  0.96580  Biso   1.000  C
  C347     1.0000 0.85220  0.07740  0.01660  Biso   1.000  C
  H197     1.0000 0.82010  0.02870  0.94810  Biso   1.000  H
  C348     1.0000 0.79260  0.07090  0.97170  Biso   1.000  C
  C349     1.0000 0.82370  0.09820  0.02020  Biso   1.000  C
  H198     1.0000 0.87170  0.07920  0.03340  Biso   1.000  H
  H199     1.0000 0.77160  0.06870  0.95690  Biso   1.000  H
  C350     1.0000 0.79310  0.09780  0.99820  Biso   1.000  C
  H200     1.0000 0.82390  0.11520  0.03970  Biso   1.000  H
  N201     1.0000 0.05780  0.49070  0.98830  Biso   1.000  N
  N202     1.0000 0.07940  0.51250  0.96650  Biso   1.000  N
  N203     1.0000 0.07820  0.46360  0.00030  Biso   1.000  N
  N204     1.0000 0.11380  0.50000  0.96370  Biso   1.000  N
  C351     1.0000 0.11150  0.46980  0.98480  Biso   1.000  C
  C352     1.0000 0.14610  0.44620  0.98950  Biso   1.000  C
  C353     1.0000 0.17900  0.45250  0.96580  Biso   1.000  C
  C354     1.0000 0.14780  0.42260  0.01660  Biso   1.000  C
  H201     1.0000 0.17990  0.47130  0.94810  Biso   1.000  H
  C355     1.0000 0.20740  0.42910  0.97170  Biso   1.000  C
  C356     1.0000 0.17630  0.40180  0.02020  Biso   1.000  C
  H202     1.0000 0.12830  0.42080  0.03340  Biso   1.000  H
  H203     1.0000 0.22840  0.43130  0.95690  Biso   1.000  H
  C357     1.0000 0.20690  0.40220  0.99820  Biso   1.000  C
  H204     1.0000 0.17610  0.38480  0.03970  Biso   1.000  H
  N205     1.0000 0.55780  0.99070  0.48830  Biso   1.000  N
  N206     1.0000 0.57940  0.01250  0.46650  Biso   1.000  N
  N207     1.0000 0.57820  0.96360  0.50030  Biso   1.000  N
  N208     1.0000 0.61380  0.00000  0.46370  Biso   1.000  N
  C358     1.0000 0.61150  0.96980  0.48480  Biso   1.000  C
  C359     1.0000 0.64610  0.94620  0.48950  Biso   1.000  C
  C360     1.0000 0.67900  0.95250  0.46580  Biso   1.000  C
  C361     1.0000 0.64780  0.92260  0.51660  Biso   1.000  C
  H205     1.0000 0.67990  0.97130  0.44810  Biso   1.000  H
  C362     1.0000 0.70740  0.92910  0.47170  Biso   1.000  C
  C363     1.0000 0.67630  0.90180  0.52020  Biso   1.000  C
  H206     1.0000 0.62830  0.92080  0.53340  Biso   1.000  H
  H207     1.0000 0.72840  0.93130  0.45690  Biso   1.000  H
  C364     1.0000 0.70690  0.90220  0.49820  Biso   1.000  C
  H208     1.0000 0.67610  0.88480  0.53970  Biso   1.000  H
  N209     1.0000 0.55780  0.00930  0.01170  Biso   1.000  N
  N210     1.0000 0.57940  0.98750  0.03350  Biso   1.000  N
  N211     1.0000 0.57820  0.03640  0.99970  Biso   1.000  N
  N212     1.0000 0.61380  0.00000  0.03630  Biso   1.000  N
  C365     1.0000 0.61150  0.03020  0.01520  Biso   1.000  C
  C366     1.0000 0.64610  0.05380  0.01050  Biso   1.000  C
  C367     1.0000 0.67900  0.04750  0.03420  Biso   1.000  C
  C368     1.0000 0.64780  0.07740  0.98340  Biso   1.000  C
  H209     1.0000 0.67990  0.02870  0.05190  Biso   1.000  H
  C369     1.0000 0.70740  0.07090  0.02830  Biso   1.000  C
  C370     1.0000 0.67630  0.09820  0.97980  Biso   1.000  C
  H210     1.0000 0.62830  0.07920  0.96660  Biso   1.000  H
  H211     1.0000 0.72840  0.06870  0.04310  Biso   1.000  H
  C371     1.0000 0.70690  0.09780  0.00180  Biso   1.000  C
  H212     1.0000 0.67610  0.11520  0.96030  Biso   1.000  H
  N213     1.0000 0.05780  0.50930  0.51170  Biso   1.000  N
  N214     1.0000 0.07940  0.48750  0.53350  Biso   1.000  N
  N215     1.0000 0.07820  0.53640  0.49970  Biso   1.000  N
  N216     1.0000 0.11380  0.50000  0.53630  Biso   1.000  N
  C372     1.0000 0.11150  0.53020  0.51520  Biso   1.000  C
  C373     1.0000 0.14610  0.55380  0.51050  Biso   1.000  C
  C374     1.0000 0.17900  0.54750  0.53420  Biso   1.000  C
  C375     1.0000 0.14780  0.57740  0.48340  Biso   1.000  C
  H213     1.0000 0.17990  0.52870  0.55190  Biso   1.000  H
  C376     1.0000 0.20740  0.57090  0.52830  Biso   1.000  C
  C377     1.0000 0.17630  0.59820  0.47980  Biso   1.000  C
  H214     1.0000 0.12830  0.57920  0.46660  Biso   1.000  H
  H215     1.0000 0.22840  0.56870  0.54310  Biso   1.000  H
  C378     1.0000 0.20690  0.59780  0.50180  Biso   1.000  C
  H216     1.0000 0.17610  0.61520  0.46030  Biso   1.000  H
  N217     1.0000 0.94220  0.99070  0.51170  Biso   1.000  N
  N218     1.0000 0.92060  0.01250  0.53350  Biso   1.000  N
  N219     1.0000 0.92180  0.96360  0.49970  Biso   1.000  N
  N220     1.0000 0.88620  0.00000  0.53630  Biso   1.000  N
  C379     1.0000 0.88850  0.96980  0.51520  Biso   1.000  C
  C380     1.0000 0.85390  0.94620  0.51050  Biso   1.000  C
  C381     1.0000 0.82100  0.95250  0.53420  Biso   1.000  C
  C382     1.0000 0.85220  0.92260  0.48340  Biso   1.000  C
  H217     1.0000 0.82010  0.97130  0.55190  Biso   1.000  H
  C383     1.0000 0.79260  0.92910  0.52830  Biso   1.000  C
  C384     1.0000 0.82370  0.90180  0.47980  Biso   1.000  C
  H218     1.0000 0.87170  0.92080  0.46660  Biso   1.000  H
  H219     1.0000 0.77160  0.93130  0.54310  Biso   1.000  H
  C385     1.0000 0.79310  0.90220  0.50180  Biso   1.000  C
  H220     1.0000 0.82390  0.88480  0.46030  Biso   1.000  H
  N221     1.0000 0.44220  0.49070  0.01170  Biso   1.000  N
  N222     1.0000 0.42060  0.51250  0.03350  Biso   1.000  N
  N223     1.0000 0.42180  0.46360  0.99970  Biso   1.000  N
  N224     1.0000 0.38620  0.50000  0.03630  Biso   1.000  N
  C386     1.0000 0.38850  0.46980  0.01520  Biso   1.000  C
  C387     1.0000 0.35390  0.44620  0.01050  Biso   1.000  C
  C388     1.0000 0.32100  0.45250  0.03420  Biso   1.000  C
  C389     1.0000 0.35220  0.42260  0.98340  Biso   1.000  C
  H221     1.0000 0.32010  0.47130  0.05190  Biso   1.000  H
  C390     1.0000 0.29260  0.42910  0.02830  Biso   1.000  C
  C391     1.0000 0.32370  0.40180  0.97980  Biso   1.000  C
  H222     1.0000 0.37170  0.42080  0.96660  Biso   1.000  H
  H223     1.0000 0.27160  0.43130  0.04310  Biso   1.000  H
  C392     1.0000 0.29310  0.40220  0.00180  Biso   1.000  C
  H224     1.0000 0.32390  0.38480  0.96030  Biso   1.000  H
  N225     1.0000 0.48830  0.44220  0.50930  Biso   1.000  N
  N226     1.0000 0.46650  0.42060  0.48750  Biso   1.000  N
  N227     1.0000 0.50030  0.42180  0.53640  Biso   1.000  N
  N228     1.0000 0.46370  0.38620  0.50000  Biso   1.000  N
  C393     1.0000 0.48480  0.38850  0.53020  Biso   1.000  C
  C394     1.0000 0.48950  0.35390  0.55380  Biso   1.000  C
  C395     1.0000 0.46580  0.32100  0.54750  Biso   1.000  C
  C396     1.0000 0.51660  0.35220  0.57740  Biso   1.000  C
  H225     1.0000 0.44810  0.32010  0.52870  Biso   1.000  H
  C397     1.0000 0.47170  0.29260  0.57090  Biso   1.000  C
  C398     1.0000 0.52020  0.32370  0.59820  Biso   1.000  C
  H226     1.0000 0.53340  0.37170  0.57920  Biso   1.000  H
  H227     1.0000 0.45690  0.27160  0.56870  Biso   1.000  H
  C399     1.0000 0.49820  0.29310  0.59780  Biso   1.000  C
  H228     1.0000 0.53970  0.32390  0.61520  Biso   1.000  H
  N229     1.0000 0.98830  0.94220  0.00930  Biso   1.000  N
  N230     1.0000 0.96650  0.92060  0.98750  Biso   1.000  N
  N231     1.0000 0.00030  0.92180  0.03640  Biso   1.000  N
  N232     1.0000 0.96370  0.88620  0.00000  Biso   1.000  N
  C400     1.0000 0.98480  0.88850  0.03020  Biso   1.000  C
  C401     1.0000 0.98950  0.85390  0.05380  Biso   1.000  C
  C402     1.0000 0.96580  0.82100  0.04750  Biso   1.000  C
  C403     1.0000 0.01660  0.85220  0.07740  Biso   1.000  C
  H229     1.0000 0.94810  0.82010  0.02870  Biso   1.000  H
  C404     1.0000 0.97170  0.79260  0.07090  Biso   1.000  C
  C405     1.0000 0.02020  0.82370  0.09820  Biso   1.000  C
  H230     1.0000 0.03340  0.87170  0.07920  Biso   1.000  H
  H231     1.0000 0.95690  0.77160  0.06870  Biso   1.000  H
  C406     1.0000 0.99820  0.79310  0.09780  Biso   1.000  C
  H232     1.0000 0.03970  0.82390  0.11520  Biso   1.000  H
  N233     1.0000 0.98830  0.05780  0.49070  Biso   1.000  N
  N234     1.0000 0.96650  0.07940  0.51250  Biso   1.000  N
  N235     1.0000 0.00030  0.07820  0.46360  Biso   1.000  N
  N236     1.0000 0.96370  0.11380  0.50000  Biso   1.000  N
  C407     1.0000 0.98480  0.11150  0.46980  Biso   1.000  C
  C408     1.0000 0.98950  0.14610  0.44620  Biso   1.000  C
  C409     1.0000 0.96580  0.17900  0.45250  Biso   1.000  C
  C410     1.0000 0.01660  0.14780  0.42260  Biso   1.000  C
  H233     1.0000 0.94810  0.17990  0.47130  Biso   1.000  H
  C411     1.0000 0.97170  0.20740  0.42910  Biso   1.000  C
  C412     1.0000 0.02020  0.17630  0.40180  Biso   1.000  C
  H234     1.0000 0.03340  0.12830  0.42080  Biso   1.000  H
  H235     1.0000 0.95690  0.22840  0.43130  Biso   1.000  H
  C413     1.0000 0.99820  0.20690  0.40220  Biso   1.000  C
  H236     1.0000 0.03970  0.17610  0.38480  Biso   1.000  H
  N237     1.0000 0.48830  0.55780  0.99070  Biso   1.000  N
  N238     1.0000 0.46650  0.57940  0.01250  Biso   1.000  N
  N239     1.0000 0.50030  0.57820  0.96360  Biso   1.000  N
  N240     1.0000 0.46370  0.61380  0.00000  Biso   1.000  N
  C414     1.0000 0.48480  0.61150  0.96980  Biso   1.000  C
  C415     1.0000 0.48950  0.64610  0.94620  Biso   1.000  C
  C416     1.0000 0.46580  0.67900  0.95250  Biso   1.000  C
  C417     1.0000 0.51660  0.64780  0.92260  Biso   1.000  C
  H237     1.0000 0.44810  0.67990  0.97130  Biso   1.000  H
  C418     1.0000 0.47170  0.70740  0.92910  Biso   1.000  C
  C419     1.0000 0.52020  0.67630  0.90180  Biso   1.000  C
  H238     1.0000 0.53340  0.62830  0.92080  Biso   1.000  H
  H239     1.0000 0.45690  0.72840  0.93130  Biso   1.000  H
  C420     1.0000 0.49820  0.70690  0.90220  Biso   1.000  C
  H240     1.0000 0.53970  0.67610  0.88480  Biso   1.000  H
  N241     1.0000 0.01170  0.55780  0.00930  Biso   1.000  N
  N242     1.0000 0.03350  0.57940  0.98750  Biso   1.000  N
  N243     1.0000 0.99970  0.57820  0.03640  Biso   1.000  N
  N244     1.0000 0.03630  0.61380  0.00000  Biso   1.000  N
  C421     1.0000 0.01520  0.61150  0.03020  Biso   1.000  C
  C422     1.0000 0.01050  0.64610  0.05380  Biso   1.000  C
  C423     1.0000 0.03420  0.67900  0.04750  Biso   1.000  C
  C424     1.0000 0.98340  0.64780  0.07740  Biso   1.000  C
  H241     1.0000 0.05190  0.67990  0.02870  Biso   1.000  H
  C425     1.0000 0.02830  0.70740  0.07090  Biso   1.000  C
  C426     1.0000 0.97980  0.67630  0.09820  Biso   1.000  C
  H242     1.0000 0.96660  0.62830  0.07920  Biso   1.000  H
  H243     1.0000 0.04310  0.72840  0.06870  Biso   1.000  H
  C427     1.0000 0.00180  0.70690  0.09780  Biso   1.000  C
  H244     1.0000 0.96030  0.67610  0.11520  Biso   1.000  H
  N245     1.0000 0.51170  0.05780  0.50930  Biso   1.000  N
  N246     1.0000 0.53350  0.07940  0.48750  Biso   1.000  N
  N247     1.0000 0.49970  0.07820  0.53640  Biso   1.000  N
  N248     1.0000 0.53630  0.11380  0.50000  Biso   1.000  N
  C428     1.0000 0.51520  0.11150  0.53020  Biso   1.000  C
  C429     1.0000 0.51050  0.14610  0.55380  Biso   1.000  C
  C430     1.0000 0.53420  0.17900  0.54750  Biso   1.000  C
  C431     1.0000 0.48340  0.14780  0.57740  Biso   1.000  C
  H245     1.0000 0.55190  0.17990  0.52870  Biso   1.000  H
  C432     1.0000 0.52830  0.20740  0.57090  Biso   1.000  C
  C433     1.0000 0.47980  0.17630  0.59820  Biso   1.000  C
  H246     1.0000 0.46660  0.12830  0.57920  Biso   1.000  H
  H247     1.0000 0.54310  0.22840  0.56870  Biso   1.000  H
  C434     1.0000 0.50180  0.20690  0.59780  Biso   1.000  C
  H248     1.0000 0.46030  0.17610  0.61520  Biso   1.000  H
  N249     1.0000 0.51170  0.94220  0.99070  Biso   1.000  N
  N250     1.0000 0.53350  0.92060  0.01250  Biso   1.000  N
  N251     1.0000 0.49970  0.92180  0.96360  Biso   1.000  N
  N252     1.0000 0.53630  0.88620  0.00000  Biso   1.000  N
  C435     1.0000 0.51520  0.88850  0.96980  Biso   1.000  C
  C436     1.0000 0.51050  0.85390  0.94620  Biso   1.000  C
  C437     1.0000 0.53420  0.82100  0.95250  Biso   1.000  C
  C438     1.0000 0.48340  0.85220  0.92260  Biso   1.000  C
  H249     1.0000 0.55190  0.82010  0.97130  Biso   1.000  H
  C439     1.0000 0.52830  0.79260  0.92910  Biso   1.000  C
  C440     1.0000 0.47980  0.82370  0.90180  Biso   1.000  C
  H250     1.0000 0.46660  0.87170  0.92080  Biso   1.000  H
  H251     1.0000 0.54310  0.77160  0.93130  Biso   1.000  H
  C441     1.0000 0.50180  0.79310  0.90220  Biso   1.000  C
  H252     1.0000 0.46030  0.82390  0.88480  Biso   1.000  H
  N253     1.0000 0.01170  0.44220  0.49070  Biso   1.000  N
  N254     1.0000 0.03350  0.42060  0.51250  Biso   1.000  N
  N255     1.0000 0.99970  0.42180  0.46360  Biso   1.000  N
  N256     1.0000 0.03630  0.38620  0.50000  Biso   1.000  N
  C442     1.0000 0.01520  0.38850  0.46980  Biso   1.000  C
  C443     1.0000 0.01050  0.35390  0.44620  Biso   1.000  C
  C444     1.0000 0.03420  0.32100  0.45250  Biso   1.000  C
  C445     1.0000 0.98340  0.35220  0.42260  Biso   1.000  C
  H253     1.0000 0.05190  0.32010  0.47130  Biso   1.000  H
  C446     1.0000 0.02830  0.29260  0.42910  Biso   1.000  C
  C447     1.0000 0.97980  0.32370  0.40180  Biso   1.000  C
  H254     1.0000 0.96660  0.37170  0.42080  Biso   1.000  H
  H255     1.0000 0.04310  0.27160  0.43130  Biso   1.000  H
  C448     1.0000 0.00180  0.29310  0.40220  Biso   1.000  C
  H256     1.0000 0.96030  0.32390  0.38480  Biso   1.000  H
  N257     1.0000 0.50930  0.48830  0.44220  Biso   1.000  N
  N258     1.0000 0.48750  0.46650  0.42060  Biso   1.000  N
  N259     1.0000 0.53640  0.50030  0.42180  Biso   1.000  N
  N260     1.0000 0.50000  0.46370  0.38620  Biso   1.000  N
  C449     1.0000 0.53020  0.48480  0.38850  Biso   1.000  C
  C450     1.0000 0.55380  0.48950  0.35390  Biso   1.000  C
  C451     1.0000 0.54750  0.46580  0.32100  Biso   1.000  C
  C452     1.0000 0.57740  0.51660  0.35220  Biso   1.000  C
  H257     1.0000 0.52870  0.44810  0.32010  Biso   1.000  H
  C453     1.0000 0.57090  0.47170  0.29260  Biso   1.000  C
  C454     1.0000 0.59820  0.52020  0.32370  Biso   1.000  C
  H258     1.0000 0.57920  0.53340  0.37170  Biso   1.000  H
  H259     1.0000 0.56870  0.45690  0.27160  Biso   1.000  H
  C455     1.0000 0.59780  0.49820  0.29310  Biso   1.000  C
  H260     1.0000 0.61520  0.53970  0.32390  Biso   1.000  H
  N261     1.0000 0.00930  0.98830  0.94220  Biso   1.000  N
  N262     1.0000 0.98750  0.96650  0.92060  Biso   1.000  N
  N263     1.0000 0.03640  0.00030  0.92180  Biso   1.000  N
  N264     1.0000 0.00000  0.96370  0.88620  Biso   1.000  N
  C456     1.0000 0.03020  0.98480  0.88850  Biso   1.000  C
  C457     1.0000 0.05380  0.98950  0.85390  Biso   1.000  C
  C458     1.0000 0.04750  0.96580  0.82100  Biso   1.000  C
  C459     1.0000 0.07740  0.01660  0.85220  Biso   1.000  C
  H261     1.0000 0.02870  0.94810  0.82010  Biso   1.000  H
  C460     1.0000 0.07090  0.97170  0.79260  Biso   1.000  C
  C461     1.0000 0.09820  0.02020  0.82370  Biso   1.000  C
  H262     1.0000 0.07920  0.03340  0.87170  Biso   1.000  H
  H263     1.0000 0.06870  0.95690  0.77160  Biso   1.000  H
  C462     1.0000 0.09780  0.99820  0.79310  Biso   1.000  C
  H264     1.0000 0.11520  0.03970  0.82390  Biso   1.000  H
  N265     1.0000 0.49070  0.98830  0.05780  Biso   1.000  N
  N266     1.0000 0.51250  0.96650  0.07940  Biso   1.000  N
  N267     1.0000 0.46360  0.00030  0.07820  Biso   1.000  N
  N268     1.0000 0.50000  0.96370  0.11380  Biso   1.000  N
  C463     1.0000 0.46980  0.98480  0.11150  Biso   1.000  C
  C464     1.0000 0.44620  0.98950  0.14610  Biso   1.000  C
  C465     1.0000 0.45250  0.96580  0.17900  Biso   1.000  C
  C466     1.0000 0.42260  0.01660  0.14780  Biso   1.000  C
  H265     1.0000 0.47130  0.94810  0.17990  Biso   1.000  H
  C467     1.0000 0.42910  0.97170  0.20740  Biso   1.000  C
  C468     1.0000 0.40180  0.02020  0.17630  Biso   1.000  C
  H266     1.0000 0.42080  0.03340  0.12830  Biso   1.000  H
  H267     1.0000 0.43130  0.95690  0.22840  Biso   1.000  H
  C469     1.0000 0.40220  0.99820  0.20690  Biso   1.000  C
  H268     1.0000 0.38480  0.03970  0.17610  Biso   1.000  H
  N269     1.0000 0.99070  0.48830  0.55780  Biso   1.000  N
  N270     1.0000 0.01250  0.46650  0.57940  Biso   1.000  N
  N271     1.0000 0.96360  0.50030  0.57820  Biso   1.000  N
  N272     1.0000 0.00000  0.46370  0.61380  Biso   1.000  N
  C470     1.0000 0.96980  0.48480  0.61150  Biso   1.000  C
  C471     1.0000 0.94620  0.48950  0.64610  Biso   1.000  C
  C472     1.0000 0.95250  0.46580  0.67900  Biso   1.000  C
  C473     1.0000 0.92260  0.51660  0.64780  Biso   1.000  C
  H269     1.0000 0.97130  0.44810  0.67990  Biso   1.000  H
  C474     1.0000 0.92910  0.47170  0.70740  Biso   1.000  C
  C475     1.0000 0.90180  0.52020  0.67630  Biso   1.000  C
  H270     1.0000 0.92080  0.53340  0.62830  Biso   1.000  H
  H271     1.0000 0.93130  0.45690  0.72840  Biso   1.000  H
  C476     1.0000 0.90220  0.49820  0.70690  Biso   1.000  C
  H272     1.0000 0.88480  0.53970  0.67610  Biso   1.000  H
  N273     1.0000 0.00930  0.01170  0.55780  Biso   1.000  N
  N274     1.0000 0.98750  0.03350  0.57940  Biso   1.000  N
  N275     1.0000 0.03640  0.99970  0.57820  Biso   1.000  N
  N276     1.0000 0.00000  0.03630  0.61380  Biso   1.000  N
  C477     1.0000 0.03020  0.01520  0.61150  Biso   1.000  C
  C478     1.0000 0.05380  0.01050  0.64610  Biso   1.000  C
  C479     1.0000 0.04750  0.03420  0.67900  Biso   1.000  C
  C480     1.0000 0.07740  0.98340  0.64780  Biso   1.000  C
  H273     1.0000 0.02870  0.05190  0.67990  Biso   1.000  H
  C481     1.0000 0.07090  0.02830  0.70740  Biso   1.000  C
  C482     1.0000 0.09820  0.97980  0.67630  Biso   1.000  C
  H274     1.0000 0.07920  0.96660  0.62830  Biso   1.000  H
  H275     1.0000 0.06870  0.04310  0.72840  Biso   1.000  H
  C483     1.0000 0.09780  0.00180  0.70690  Biso   1.000  C
  H276     1.0000 0.11520  0.96030  0.67610  Biso   1.000  H
  N277     1.0000 0.50930  0.51170  0.05780  Biso   1.000  N
  N278     1.0000 0.48750  0.53350  0.07940  Biso   1.000  N
  N279     1.0000 0.53640  0.49970  0.07820  Biso   1.000  N
  N280     1.0000 0.50000  0.53630  0.11380  Biso   1.000  N
  C484     1.0000 0.53020  0.51520  0.11150  Biso   1.000  C
  C485     1.0000 0.55380  0.51050  0.14610  Biso   1.000  C
  C486     1.0000 0.54750  0.53420  0.17900  Biso   1.000  C
  C487     1.0000 0.57740  0.48340  0.14780  Biso   1.000  C
  H277     1.0000 0.52870  0.55190  0.17990  Biso   1.000  H
  C488     1.0000 0.57090  0.52830  0.20740  Biso   1.000  C
  C489     1.0000 0.59820  0.47980  0.17630  Biso   1.000  C
  H278     1.0000 0.57920  0.46660  0.12830  Biso   1.000  H
  H279     1.0000 0.56870  0.54310  0.22840  Biso   1.000  H
  C490     1.0000 0.59780  0.50180  0.20690  Biso   1.000  C
  H280     1.0000 0.61520  0.46030  0.17610  Biso   1.000  H
  N281     1.0000 0.99070  0.51170  0.94220  Biso   1.000  N
  N282     1.0000 0.01250  0.53350  0.92060  Biso   1.000  N
  N283     1.0000 0.96360  0.49970  0.92180  Biso   1.000  N
  N284     1.0000 0.00000  0.53630  0.88620  Biso   1.000  N
  C491     1.0000 0.96980  0.51520  0.88850  Biso   1.000  C
  C492     1.0000 0.94620  0.51050  0.85390  Biso   1.000  C
  C493     1.0000 0.95250  0.53420  0.82100  Biso   1.000  C
  C494     1.0000 0.92260  0.48340  0.85220  Biso   1.000  C
  H281     1.0000 0.97130  0.55190  0.82010  Biso   1.000  H
  C495     1.0000 0.92910  0.52830  0.79260  Biso   1.000  C
  C496     1.0000 0.90180  0.47980  0.82370  Biso   1.000  C
  H282     1.0000 0.92080  0.46660  0.87170  Biso   1.000  H
  H283     1.0000 0.93130  0.54310  0.77160  Biso   1.000  H
  C497     1.0000 0.90220  0.50180  0.79310  Biso   1.000  C
  H284     1.0000 0.88480  0.46030  0.82390  Biso   1.000  H
  N285     1.0000 0.49070  0.01170  0.44220  Biso   1.000  N
  N286     1.0000 0.51250  0.03350  0.42060  Biso   1.000  N
  N287     1.0000 0.46360  0.99970  0.42180  Biso   1.000  N
  N288     1.0000 0.50000  0.03630  0.38620  Biso   1.000  N
  C498     1.0000 0.46980  0.01520  0.38850  Biso   1.000  C
  C499     1.0000 0.44620  0.01050  0.35390  Biso   1.000  C
  C500     1.0000 0.45250  0.03420  0.32100  Biso   1.000  C
  C501     1.0000 0.42260  0.98340  0.35220  Biso   1.000  C
  H285     1.0000 0.47130  0.05190  0.32010  Biso   1.000  H
  C502     1.0000 0.42910  0.02830  0.29260  Biso   1.000  C
  C503     1.0000 0.40180  0.97980  0.32370  Biso   1.000  C
  H286     1.0000 0.42080  0.96660  0.37170  Biso   1.000  H
  H287     1.0000 0.43130  0.04310  0.27160  Biso   1.000  H
  C504     1.0000 0.40220  0.00180  0.29310  Biso   1.000  C
  H288     1.0000 0.38480  0.96030  0.32390  Biso   1.000  H
  N289     1.0000 0.75930  0.19220  0.26170  Biso   1.000  N
  N290     1.0000 0.73750  0.17060  0.28350  Biso   1.000  N
  N291     1.0000 0.78640  0.17180  0.24970  Biso   1.000  N
  N292     1.0000 0.75000  0.13620  0.28630  Biso   1.000  N
  C505     1.0000 0.78020  0.13850  0.26520  Biso   1.000  C
  C506     1.0000 0.80380  0.10390  0.26050  Biso   1.000  C
  C507     1.0000 0.79750  0.07100  0.28420  Biso   1.000  C
  C508     1.0000 0.82740  0.10220  0.23340  Biso   1.000  C
  H289     1.0000 0.77870  0.07010  0.30190  Biso   1.000  H
  C509     1.0000 0.82090  0.04260  0.27830  Biso   1.000  C
  C510     1.0000 0.84820  0.07370  0.22980  Biso   1.000  C
  H290     1.0000 0.82920  0.12170  0.21660  Biso   1.000  H
  H291     1.0000 0.81870  0.02160  0.29310  Biso   1.000  H
  C511     1.0000 0.84780  0.04310  0.25180  Biso   1.000  C
  H292     1.0000 0.86520  0.07390  0.21030  Biso   1.000  H
  N293     1.0000 0.25930  0.69220  0.76170  Biso   1.000  N
  N294     1.0000 0.23750  0.67060  0.78350  Biso   1.000  N
  N295     1.0000 0.28640  0.67180  0.74970  Biso   1.000  N
  N296     1.0000 0.25000  0.63620  0.78630  Biso   1.000  N
  C512     1.0000 0.28020  0.63850  0.76520  Biso   1.000  C
  C513     1.0000 0.30380  0.60390  0.76050  Biso   1.000  C
  C514     1.0000 0.29750  0.57100  0.78420  Biso   1.000  C
  C515     1.0000 0.32740  0.60220  0.73340  Biso   1.000  C
  H293     1.0000 0.27870  0.57010  0.80190  Biso   1.000  H
  C516     1.0000 0.32090  0.54260  0.77830  Biso   1.000  C
  C517     1.0000 0.34820  0.57370  0.72980  Biso   1.000  C
  H294     1.0000 0.32920  0.62170  0.71660  Biso   1.000  H
  H295     1.0000 0.31870  0.52160  0.79310  Biso   1.000  H
  C518     1.0000 0.34780  0.54310  0.75180  Biso   1.000  C
  H296     1.0000 0.36520  0.57390  0.71030  Biso   1.000  H
  N297     1.0000 0.74070  0.80780  0.76170  Biso   1.000  N
  N298     1.0000 0.76250  0.82940  0.78350  Biso   1.000  N
  N299     1.0000 0.71360  0.82820  0.74970  Biso   1.000  N
  N300     1.0000 0.75000  0.86380  0.78630  Biso   1.000  N
  C519     1.0000 0.71980  0.86150  0.76520  Biso   1.000  C
  C520     1.0000 0.69620  0.89610  0.76050  Biso   1.000  C
  C521     1.0000 0.70250  0.92900  0.78420  Biso   1.000  C
  C522     1.0000 0.67260  0.89780  0.73340  Biso   1.000  C
  H297     1.0000 0.72130  0.92990  0.80190  Biso   1.000  H
  C523     1.0000 0.67910  0.95740  0.77830  Biso   1.000  C
  C524     1.0000 0.65180  0.92630  0.72980  Biso   1.000  C
  H298     1.0000 0.67080  0.87830  0.71660  Biso   1.000  H
  H299     1.0000 0.68130  0.97840  0.79310  Biso   1.000  H
  C525     1.0000 0.65220  0.95690  0.75180  Biso   1.000  C
  H300     1.0000 0.63480  0.92610  0.71030  Biso   1.000  H
  N301     1.0000 0.24070  0.30780  0.26170  Biso   1.000  N
  N302     1.0000 0.26250  0.32940  0.28350  Biso   1.000  N
  N303     1.0000 0.21360  0.32820  0.24970  Biso   1.000  N
  N304     1.0000 0.25000  0.36380  0.28630  Biso   1.000  N
  C526     1.0000 0.21980  0.36150  0.26520  Biso   1.000  C
  C527     1.0000 0.19620  0.39610  0.26050  Biso   1.000  C
  C528     1.0000 0.20250  0.42900  0.28420  Biso   1.000  C
  C529     1.0000 0.17260  0.39780  0.23340  Biso   1.000  C
  H301     1.0000 0.22130  0.42990  0.30190  Biso   1.000  H
  C530     1.0000 0.17910  0.45740  0.27830  Biso   1.000  C
  C531     1.0000 0.15180  0.42630  0.22980  Biso   1.000  C
  H302     1.0000 0.17080  0.37830  0.21660  Biso   1.000  H
  H303     1.0000 0.18130  0.47840  0.29310  Biso   1.000  H
  C532     1.0000 0.15220  0.45690  0.25180  Biso   1.000  C
  H304     1.0000 0.13480  0.42610  0.21030  Biso   1.000  H
  N305     1.0000 0.25930  0.30780  0.73830  Biso   1.000  N
  N306     1.0000 0.23750  0.32940  0.71650  Biso   1.000  N
  N307     1.0000 0.28640  0.32820  0.75030  Biso   1.000  N
  N308     1.0000 0.25000  0.36380  0.71370  Biso   1.000  N
  C533     1.0000 0.28020  0.36150  0.73480  Biso   1.000  C
  C534     1.0000 0.30380  0.39610  0.73950  Biso   1.000  C
  C535     1.0000 0.29750  0.42900  0.71580  Biso   1.000  C
  C536     1.0000 0.32740  0.39780  0.76660  Biso   1.000  C
  H305     1.0000 0.27870  0.42990  0.69810  Biso   1.000  H
  C537     1.0000 0.32090  0.45740  0.72170  Biso   1.000  C
  C538     1.0000 0.34820  0.42630  0.77020  Biso   1.000  C
  H306     1.0000 0.32920  0.37830  0.78340  Biso   1.000  H
  H307     1.0000 0.31870  0.47840  0.70690  Biso   1.000  H
  C539     1.0000 0.34780  0.45690  0.74820  Biso   1.000  C
  H308     1.0000 0.36520  0.42610  0.78970  Biso   1.000  H
  N309     1.0000 0.75930  0.80780  0.23830  Biso   1.000  N
  N310     1.0000 0.73750  0.82940  0.21650  Biso   1.000  N
  N311     1.0000 0.78640  0.82820  0.25030  Biso   1.000  N
  N312     1.0000 0.75000  0.86380  0.21370  Biso   1.000  N
  C540     1.0000 0.78020  0.86150  0.23480  Biso   1.000  C
  C541     1.0000 0.80380  0.89610  0.23950  Biso   1.000  C
  C542     1.0000 0.79750  0.92900  0.21580  Biso   1.000  C
  C543     1.0000 0.82740  0.89780  0.26660  Biso   1.000  C
  H309     1.0000 0.77870  0.92990  0.19810  Biso   1.000  H
  C544     1.0000 0.82090  0.95740  0.22170  Biso   1.000  C
  C545     1.0000 0.84820  0.92630  0.27020  Biso   1.000  C
  H310     1.0000 0.82920  0.87830  0.28340  Biso   1.000  H
  H311     1.0000 0.81870  0.97840  0.20690  Biso   1.000  H
  C546     1.0000 0.84780  0.95690  0.24820  Biso   1.000  C
  H312     1.0000 0.86520  0.92610  0.28970  Biso   1.000  H
  N313     1.0000 0.24070  0.69220  0.23830  Biso   1.000  N
  N314     1.0000 0.26250  0.67060  0.21650  Biso   1.000  N
  N315     1.0000 0.21360  0.67180  0.25030  Biso   1.000  N
  N316     1.0000 0.25000  0.63620  0.21370  Biso   1.000  N
  C547     1.0000 0.21980  0.63850  0.23480  Biso   1.000  C
  C548     1.0000 0.19620  0.60390  0.23950  Biso   1.000  C
  C549     1.0000 0.20250  0.57100  0.21580  Biso   1.000  C
  C550     1.0000 0.17260  0.60220  0.26660  Biso   1.000  C
  H313     1.0000 0.22130  0.57010  0.19810  Biso   1.000  H
  C551     1.0000 0.17910  0.54260  0.22170  Biso   1.000  C
  C552     1.0000 0.15180  0.57370  0.27020  Biso   1.000  C
  H314     1.0000 0.17080  0.62170  0.28340  Biso   1.000  H
  H315     1.0000 0.18130  0.52160  0.20690  Biso   1.000  H
  C553     1.0000 0.15220  0.54310  0.24820  Biso   1.000  C
  H316     1.0000 0.13480  0.57390  0.28970  Biso   1.000  H
  N317     1.0000 0.74070  0.19220  0.73830  Biso   1.000  N
  N318     1.0000 0.76250  0.17060  0.71650  Biso   1.000  N
  N319     1.0000 0.71360  0.17180  0.75030  Biso   1.000  N
  N320     1.0000 0.75000  0.13620  0.71370  Biso   1.000  N
  C554     1.0000 0.71980  0.13850  0.73480  Biso   1.000  C
  C555     1.0000 0.69620  0.10390  0.73950  Biso   1.000  C
  C556     1.0000 0.70250  0.07100  0.71580  Biso   1.000  C
  C557     1.0000 0.67260  0.10220  0.76660  Biso   1.000  C
  H317     1.0000 0.72130  0.07010  0.69810  Biso   1.000  H
  C558     1.0000 0.67910  0.04260  0.72170  Biso   1.000  C
  C559     1.0000 0.65180  0.07370  0.77020  Biso   1.000  C
  H318     1.0000 0.67080  0.12170  0.78340  Biso   1.000  H
  H319     1.0000 0.68130  0.02160  0.70690  Biso   1.000  H
  C560     1.0000 0.65220  0.04310  0.74820  Biso   1.000  C
  H320     1.0000 0.63480  0.07390  0.78970  Biso   1.000  H
  N321     1.0000 0.69220  0.23830  0.24070  Biso   1.000  N
  N322     1.0000 0.67060  0.21650  0.26250  Biso   1.000  N
  N323     1.0000 0.67180  0.25030  0.21360  Biso   1.000  N
  N324     1.0000 0.63620  0.21370  0.25000  Biso   1.000  N
  C561     1.0000 0.63850  0.23480  0.21980  Biso   1.000  C
  C562     1.0000 0.60390  0.23950  0.19620  Biso   1.000  C
  C563     1.0000 0.57100  0.21580  0.20250  Biso   1.000  C
  C564     1.0000 0.60220  0.26660  0.17260  Biso   1.000  C
  H321     1.0000 0.57010  0.19810  0.22130  Biso   1.000  H
  C565     1.0000 0.54260  0.22170  0.17910  Biso   1.000  C
  C566     1.0000 0.57370  0.27020  0.15180  Biso   1.000  C
  H322     1.0000 0.62170  0.28340  0.17080  Biso   1.000  H
  H323     1.0000 0.52160  0.20690  0.18130  Biso   1.000  H
  C567     1.0000 0.54310  0.24820  0.15220  Biso   1.000  C
  H324     1.0000 0.57390  0.28970  0.13480  Biso   1.000  H
  N325     1.0000 0.19220  0.73830  0.74070  Biso   1.000  N
  N326     1.0000 0.17060  0.71650  0.76250  Biso   1.000  N
  N327     1.0000 0.17180  0.75030  0.71360  Biso   1.000  N
  N328     1.0000 0.13620  0.71370  0.75000  Biso   1.000  N
  C568     1.0000 0.13850  0.73480  0.71980  Biso   1.000  C
  C569     1.0000 0.10390  0.73950  0.69620  Biso   1.000  C
  C570     1.0000 0.07100  0.71580  0.70250  Biso   1.000  C
  C571     1.0000 0.10220  0.76660  0.67260  Biso   1.000  C
  H325     1.0000 0.07010  0.69810  0.72130  Biso   1.000  H
  C572     1.0000 0.04260  0.72170  0.67910  Biso   1.000  C
  C573     1.0000 0.07370  0.77020  0.65180  Biso   1.000  C
  H326     1.0000 0.12170  0.78340  0.67080  Biso   1.000  H
  H327     1.0000 0.02160  0.70690  0.68130  Biso   1.000  H
  C574     1.0000 0.04310  0.74820  0.65220  Biso   1.000  C
  H328     1.0000 0.07390  0.78970  0.63480  Biso   1.000  H
  N329     1.0000 0.30780  0.73830  0.25930  Biso   1.000  N
  N330     1.0000 0.32940  0.71650  0.23750  Biso   1.000  N
  N331     1.0000 0.32820  0.75030  0.28640  Biso   1.000  N
  N332     1.0000 0.36380  0.71370  0.25000  Biso   1.000  N
  C575     1.0000 0.36150  0.73480  0.28020  Biso   1.000  C
  C576     1.0000 0.39610  0.73950  0.30380  Biso   1.000  C
  C577     1.0000 0.42900  0.71580  0.29750  Biso   1.000  C
  C578     1.0000 0.39780  0.76660  0.32740  Biso   1.000  C
  H329     1.0000 0.42990  0.69810  0.27870  Biso   1.000  H
  C579     1.0000 0.45740  0.72170  0.32090  Biso   1.000  C
  C580     1.0000 0.42630  0.77020  0.34820  Biso   1.000  C
  H330     1.0000 0.37830  0.78340  0.32920  Biso   1.000  H
  H331     1.0000 0.47840  0.70690  0.31870  Biso   1.000  H
  C581     1.0000 0.45690  0.74820  0.34780  Biso   1.000  C
  H332     1.0000 0.42610  0.78970  0.36520  Biso   1.000  H
  N333     1.0000 0.80780  0.23830  0.75930  Biso   1.000  N
  N334     1.0000 0.82940  0.21650  0.73750  Biso   1.000  N
  N335     1.0000 0.82820  0.25030  0.78640  Biso   1.000  N
  N336     1.0000 0.86380  0.21370  0.75000  Biso   1.000  N
  C582     1.0000 0.86150  0.23480  0.78020  Biso   1.000  C
  C583     1.0000 0.89610  0.23950  0.80380  Biso   1.000  C
  C584     1.0000 0.92900  0.21580  0.79750  Biso   1.000  C
  C585     1.0000 0.89780  0.26660  0.82740  Biso   1.000  C
  H333     1.0000 0.92990  0.19810  0.77870  Biso   1.000  H
  C586     1.0000 0.95740  0.22170  0.82090  Biso   1.000  C
  C587     1.0000 0.92630  0.27020  0.84820  Biso   1.000  C
  H334     1.0000 0.87830  0.28340  0.82920  Biso   1.000  H
  H335     1.0000 0.97840  0.20690  0.81870  Biso   1.000  H
  C588     1.0000 0.95690  0.24820  0.84780  Biso   1.000  C
  H336     1.0000 0.92610  0.28970  0.86520  Biso   1.000  H
  N337     1.0000 0.80780  0.76170  0.74070  Biso   1.000  N
  N338     1.0000 0.82940  0.78350  0.76250  Biso   1.000  N
  N339     1.0000 0.82820  0.74970  0.71360  Biso   1.000  N
  N340     1.0000 0.86380  0.78630  0.75000  Biso   1.000  N
  C589     1.0000 0.86150  0.76520  0.71980  Biso   1.000  C
  C590     1.0000 0.89610  0.76050  0.69620  Biso   1.000  C
  C591     1.0000 0.92900  0.78420  0.70250  Biso   1.000  C
  C592     1.0000 0.89780  0.73340  0.67260  Biso   1.000  C
  H337     1.0000 0.92990  0.80190  0.72130  Biso   1.000  H
  C593     1.0000 0.95740  0.77830  0.67910  Biso   1.000  C
  C594     1.0000 0.92630  0.72980  0.65180  Biso   1.000  C
  H338     1.0000 0.87830  0.71660  0.67080  Biso   1.000  H
  H339     1.0000 0.97840  0.79310  0.68130  Biso   1.000  H
  C595     1.0000 0.95690  0.75180  0.65220  Biso   1.000  C
  H340     1.0000 0.92610  0.71030  0.63480  Biso   1.000  H
  N341     1.0000 0.30780  0.26170  0.24070  Biso   1.000  N
  N342     1.0000 0.32940  0.28350  0.26250  Biso   1.000  N
  N343     1.0000 0.32820  0.24970  0.21360  Biso   1.000  N
  N344     1.0000 0.36380  0.28630  0.25000  Biso   1.000  N
  C596     1.0000 0.36150  0.26520  0.21980  Biso   1.000  C
  C597     1.0000 0.39610  0.26050  0.19620  Biso   1.000  C
  C598     1.0000 0.42900  0.28420  0.20250  Biso   1.000  C
  C599     1.0000 0.39780  0.23340  0.17260  Biso   1.000  C
  H341     1.0000 0.42990  0.30190  0.22130  Biso   1.000  H
  C600     1.0000 0.45740  0.27830  0.17910  Biso   1.000  C
  C601     1.0000 0.42630  0.22980  0.15180  Biso   1.000  C
  H342     1.0000 0.37830  0.21660  0.17080  Biso   1.000  H
  H343     1.0000 0.47840  0.29310  0.18130  Biso   1.000  H
  C602     1.0000 0.45690  0.25180  0.15220  Biso   1.000  C
  H344     1.0000 0.42610  0.21030  0.13480  Biso   1.000  H
  N345     1.0000 0.19220  0.26170  0.75930  Biso   1.000  N
  N346     1.0000 0.17060  0.28350  0.73750  Biso   1.000  N
  N347     1.0000 0.17180  0.24970  0.78640  Biso   1.000  N
  N348     1.0000 0.13620  0.28630  0.75000  Biso   1.000  N
  C603     1.0000 0.13850  0.26520  0.78020  Biso   1.000  C
  C604     1.0000 0.10390  0.26050  0.80380  Biso   1.000  C
  C605     1.0000 0.07100  0.28420  0.79750  Biso   1.000  C
  C606     1.0000 0.10220  0.23340  0.82740  Biso   1.000  C
  H345     1.0000 0.07010  0.30190  0.77870  Biso   1.000  H
  C607     1.0000 0.04260  0.27830  0.82090  Biso   1.000  C
  C608     1.0000 0.07370  0.22980  0.84820  Biso   1.000  C
  H346     1.0000 0.12170  0.21660  0.82920  Biso   1.000  H
  H347     1.0000 0.02160  0.29310  0.81870  Biso   1.000  H
  C609     1.0000 0.04310  0.25180  0.84780  Biso   1.000  C
  H348     1.0000 0.07390  0.21030  0.86520  Biso   1.000  H
  N349     1.0000 0.69220  0.76170  0.25930  Biso   1.000  N
  N350     1.0000 0.67060  0.78350  0.23750  Biso   1.000  N
  N351     1.0000 0.67180  0.74970  0.28640  Biso   1.000  N
  N352     1.0000 0.63620  0.78630  0.25000  Biso   1.000  N
  C610     1.0000 0.63850  0.76520  0.28020  Biso   1.000  C
  C611     1.0000 0.60390  0.76050  0.30380  Biso   1.000  C
  C612     1.0000 0.57100  0.78420  0.29750  Biso   1.000  C
  C613     1.0000 0.60220  0.73340  0.32740  Biso   1.000  C
  H349     1.0000 0.57010  0.80190  0.27870  Biso   1.000  H
  C614     1.0000 0.54260  0.77830  0.32090  Biso   1.000  C
  C615     1.0000 0.57370  0.72980  0.34820  Biso   1.000  C
  H350     1.0000 0.62170  0.71660  0.32920  Biso   1.000  H
  H351     1.0000 0.52160  0.79310  0.31870  Biso   1.000  H
  C616     1.0000 0.54310  0.75180  0.34780  Biso   1.000  C
  H352     1.0000 0.57390  0.71030  0.36520  Biso   1.000  H
  N353     1.0000 0.73830  0.25930  0.30780  Biso   1.000  N
  N354     1.0000 0.71650  0.23750  0.32940  Biso   1.000  N
  N355     1.0000 0.75030  0.28640  0.32820  Biso   1.000  N
  N356     1.0000 0.71370  0.25000  0.36380  Biso   1.000  N
  C617     1.0000 0.73480  0.28020  0.36150  Biso   1.000  C
  C618     1.0000 0.73950  0.30380  0.39610  Biso   1.000  C
  C619     1.0000 0.71580  0.29750  0.42900  Biso   1.000  C
  C620     1.0000 0.76660  0.32740  0.39780  Biso   1.000  C
  H353     1.0000 0.69810  0.27870  0.42990  Biso   1.000  H
  C621     1.0000 0.72170  0.32090  0.45740  Biso   1.000  C
  C622     1.0000 0.77020  0.34820  0.42630  Biso   1.000  C
  H354     1.0000 0.78340  0.32920  0.37830  Biso   1.000  H
  H355     1.0000 0.70690  0.31870  0.47840  Biso   1.000  H
  C623     1.0000 0.74820  0.34780  0.45690  Biso   1.000  C
  H356     1.0000 0.78970  0.36520  0.42610  Biso   1.000  H
  N357     1.0000 0.23830  0.75930  0.80780  Biso   1.000  N
  N358     1.0000 0.21650  0.73750  0.82940  Biso   1.000  N
  N359     1.0000 0.25030  0.78640  0.82820  Biso   1.000  N
  N360     1.0000 0.21370  0.75000  0.86380  Biso   1.000  N
  C624     1.0000 0.23480  0.78020  0.86150  Biso   1.000  C
  C625     1.0000 0.23950  0.80380  0.89610  Biso   1.000  C
  C626     1.0000 0.21580  0.79750  0.92900  Biso   1.000  C
  C627     1.0000 0.26660  0.82740  0.89780  Biso   1.000  C
  H357     1.0000 0.19810  0.77870  0.92990  Biso   1.000  H
  C628     1.0000 0.22170  0.82090  0.95740  Biso   1.000  C
  C629     1.0000 0.27020  0.84820  0.92630  Biso   1.000  C
  H358     1.0000 0.28340  0.82920  0.87830  Biso   1.000  H
  H359     1.0000 0.20690  0.81870  0.97840  Biso   1.000  H
  C630     1.0000 0.24820  0.84780  0.95690  Biso   1.000  C
  H360     1.0000 0.28970  0.86520  0.92610  Biso   1.000  H
  N361     1.0000 0.23830  0.24070  0.69220  Biso   1.000  N
  N362     1.0000 0.21650  0.26250  0.67060  Biso   1.000  N
  N363     1.0000 0.25030  0.21360  0.67180  Biso   1.000  N
  N364     1.0000 0.21370  0.25000  0.63620  Biso   1.000  N
  C631     1.0000 0.23480  0.21980  0.63850  Biso   1.000  C
  C632     1.0000 0.23950  0.19620  0.60390  Biso   1.000  C
  C633     1.0000 0.21580  0.20250  0.57100  Biso   1.000  C
  C634     1.0000 0.26660  0.17260  0.60220  Biso   1.000  C
  H361     1.0000 0.19810  0.22130  0.57010  Biso   1.000  H
  C635     1.0000 0.22170  0.17910  0.54260  Biso   1.000  C
  C636     1.0000 0.27020  0.15180  0.57370  Biso   1.000  C
  H362     1.0000 0.28340  0.17080  0.62170  Biso   1.000  H
  H363     1.0000 0.20690  0.18130  0.52160  Biso   1.000  H
  C637     1.0000 0.24820  0.15220  0.54310  Biso   1.000  C
  H364     1.0000 0.28970  0.13480  0.57390  Biso   1.000  H
  N365     1.0000 0.73830  0.74070  0.19220  Biso   1.000  N
  N366     1.0000 0.71650  0.76250  0.17060  Biso   1.000  N
  N367     1.0000 0.75030  0.71360  0.17180  Biso   1.000  N
  N368     1.0000 0.71370  0.75000  0.13620  Biso   1.000  N
  C638     1.0000 0.73480  0.71980  0.13850  Biso   1.000  C
  C639     1.0000 0.73950  0.69620  0.10390  Biso   1.000  C
  C640     1.0000 0.71580  0.70250  0.07100  Biso   1.000  C
  C641     1.0000 0.76660  0.67260  0.10220  Biso   1.000  C
  H365     1.0000 0.69810  0.72130  0.07010  Biso   1.000  H
  C642     1.0000 0.72170  0.67910  0.04260  Biso   1.000  C
  C643     1.0000 0.77020  0.65180  0.07370  Biso   1.000  C
  H366     1.0000 0.78340  0.67080  0.12170  Biso   1.000  H
  H367     1.0000 0.70690  0.68130  0.02160  Biso   1.000  H
  C644     1.0000 0.74820  0.65220  0.04310  Biso   1.000  C
  H368     1.0000 0.78970  0.63480  0.07390  Biso   1.000  H
  N369     1.0000 0.26170  0.75930  0.19220  Biso   1.000  N
  N370     1.0000 0.28350  0.73750  0.17060  Biso   1.000  N
  N371     1.0000 0.24970  0.78640  0.17180  Biso   1.000  N
  N372     1.0000 0.28630  0.75000  0.13620  Biso   1.000  N
  C645     1.0000 0.26520  0.78020  0.13850  Biso   1.000  C
  C646     1.0000 0.26050  0.80380  0.10390  Biso   1.000  C
  C647     1.0000 0.28420  0.79750  0.07100  Biso   1.000  C
  C648     1.0000 0.23340  0.82740  0.10220  Biso   1.000  C
  H369     1.0000 0.30190  0.77870  0.07010  Biso   1.000  H
  C649     1.0000 0.27830  0.82090  0.04260  Biso   1.000  C
  C650     1.0000 0.22980  0.84820  0.07370  Biso   1.000  C
  H370     1.0000 0.21660  0.82920  0.12170  Biso   1.000  H
  H371     1.0000 0.29310  0.81870  0.02160  Biso   1.000  H
  C651     1.0000 0.25180  0.84780  0.04310  Biso   1.000  C
  H372     1.0000 0.21030  0.86520  0.07390  Biso   1.000  H
  N373     1.0000 0.76170  0.25930  0.69220  Biso   1.000  N
  N374     1.0000 0.78350  0.23750  0.67060  Biso   1.000  N
  N375     1.0000 0.74970  0.28640  0.67180  Biso   1.000  N
  N376     1.0000 0.78630  0.25000  0.63620  Biso   1.000  N
  C652     1.0000 0.76520  0.28020  0.63850  Biso   1.000  C
  C653     1.0000 0.76050  0.30380  0.60390  Biso   1.000  C
  C654     1.0000 0.78420  0.29750  0.57100  Biso   1.000  C
  C655     1.0000 0.73340  0.32740  0.60220  Biso   1.000  C
  H373     1.0000 0.80190  0.27870  0.57010  Biso   1.000  H
  C656     1.0000 0.77830  0.32090  0.54260  Biso   1.000  C
  C657     1.0000 0.72980  0.34820  0.57370  Biso   1.000  C
  H374     1.0000 0.71660  0.32920  0.62170  Biso   1.000  H
  H375     1.0000 0.79310  0.31870  0.52160  Biso   1.000  H
  C658     1.0000 0.75180  0.34780  0.54310  Biso   1.000  C
  H376     1.0000 0.71030  0.36520  0.57390  Biso   1.000  H
  N377     1.0000 0.76170  0.74070  0.80780  Biso   1.000  N
  N378     1.0000 0.78350  0.76250  0.82940  Biso   1.000  N
  N379     1.0000 0.74970  0.71360  0.82820  Biso   1.000  N
  N380     1.0000 0.78630  0.75000  0.86380  Biso   1.000  N
  C659     1.0000 0.76520  0.71980  0.86150  Biso   1.000  C
  C660     1.0000 0.76050  0.69620  0.89610  Biso   1.000  C
  C661     1.0000 0.78420  0.70250  0.92900  Biso   1.000  C
  C662     1.0000 0.73340  0.67260  0.89780  Biso   1.000  C
  H377     1.0000 0.80190  0.72130  0.92990  Biso   1.000  H
  C663     1.0000 0.77830  0.67910  0.95740  Biso   1.000  C
  C664     1.0000 0.72980  0.65180  0.92630  Biso   1.000  C
  H378     1.0000 0.71660  0.67080  0.87830  Biso   1.000  H
  H379     1.0000 0.79310  0.68130  0.97840  Biso   1.000  H
  C665     1.0000 0.75180  0.65220  0.95690  Biso   1.000  C
  H380     1.0000 0.71030  0.63480  0.92610  Biso   1.000  H
  N381     1.0000 0.26170  0.24070  0.30780  Biso   1.000  N
  N382     1.0000 0.28350  0.26250  0.32940  Biso   1.000  N
  N383     1.0000 0.24970  0.21360  0.32820  Biso   1.000  N
  N384     1.0000 0.28630  0.25000  0.36380  Biso   1.000  N
  C666     1.0000 0.26520  0.21980  0.36150  Biso   1.000  C
  C667     1.0000 0.26050  0.19620  0.39610  Biso   1.000  C
  C668     1.0000 0.28420  0.20250  0.42900  Biso   1.000  C
  C669     1.0000 0.23340  0.17260  0.39780  Biso   1.000  C
  H381     1.0000 0.30190  0.22130  0.42990  Biso   1.000  H
  C670     1.0000 0.27830  0.17910  0.45740  Biso   1.000  C
  C671     1.0000 0.22980  0.15180  0.42630  Biso   1.000  C
  H382     1.0000 0.21660  0.17080  0.37830  Biso   1.000  H
  H383     1.0000 0.29310  0.18130  0.47840  Biso   1.000  H
  C672     1.0000 0.25180  0.15220  0.45690  Biso   1.000  C
  H384     1.0000 0.21030  0.13480  0.42610  Biso   1.000  H
  Mn1      1.0000 0.50000  0.50000  0.50000  Biso   1.000  Mn
  Mn2      1.0000 0.00000  0.00000  0.00000  Biso   1.000  Mn
  Mn3      1.0000 0.00000  0.50000  0.00000  Biso   1.000  Mn
  Mn4      1.0000 0.50000  0.00000  0.50000  Biso   1.000  Mn
  Mn5      1.0000 0.50000  0.00000  0.00000  Biso   1.000  Mn
  Mn6      1.0000 0.00000  0.50000  0.50000  Biso   1.000  Mn
  Mn7      1.0000 0.00000  0.00000  0.50000  Biso   1.000  Mn
  Mn8      1.0000 0.50000  0.50000  0.00000  Biso   1.000  Mn
  Mn9      1.0000 0.25000  0.75000  0.75000  Biso   1.000  Mn
  Mn10     1.0000 0.25000  0.25000  0.25000  Biso   1.000  Mn
  Mn11     1.0000 0.75000  0.75000  0.75000  Biso   1.000  Mn
  Mn12     1.0000 0.75000  0.75000  0.25000  Biso   1.000  Mn
  Mn13     1.0000 0.75000  0.25000  0.75000  Biso   1.000  Mn
  Mn14     1.0000 0.75000  0.25000  0.25000  Biso   1.000  Mn
  Mn15     1.0000 0.25000  0.25000  0.75000  Biso   1.000  Mn
  Mn16     1.0000 0.25000  0.75000  0.25000  Biso   1.000  Mn
  Mn17     1.0000 0.56378  0.56378  0.56378  Biso   1.000  Mn
  Mn18     1.0000 0.06378  0.06378  0.06378  Biso   1.000  Mn
  Mn19     1.0000 0.93622  0.43622  0.06378  Biso   1.000  Mn
  Mn20     1.0000 0.43622  0.93622  0.56378  Biso   1.000  Mn
  Mn21     1.0000 0.43622  0.06378  0.93622  Biso   1.000  Mn
  Mn22     1.0000 0.93622  0.56378  0.43622  Biso   1.000  Mn
  Mn23     1.0000 0.06378  0.93622  0.43622  Biso   1.000  Mn
  Mn24     1.0000 0.56378  0.43622  0.93622  Biso   1.000  Mn
  Mn25     1.0000 0.31378  0.81378  0.68622  Biso   1.000  Mn
  Mn26     1.0000 0.81378  0.31378  0.18622  Biso   1.000  Mn
  Mn27     1.0000 0.18622  0.18622  0.18622  Biso   1.000  Mn
  Mn28     1.0000 0.68622  0.68622  0.68622  Biso   1.000  Mn
  Mn29     1.0000 0.81378  0.68622  0.31378  Biso   1.000  Mn
  Mn30     1.0000 0.31378  0.18622  0.81378  Biso   1.000  Mn
  Mn31     1.0000 0.68622  0.31378  0.81378  Biso   1.000  Mn
  Mn32     1.0000 0.18622  0.81378  0.31378  Biso   1.000  Mn
  Mn33     1.0000 0.43622  0.43622  0.43622  Biso   1.000  Mn
  Mn34     1.0000 0.93622  0.93622  0.93622  Biso   1.000  Mn
  Mn35     1.0000 0.06378  0.56378  0.93622  Biso   1.000  Mn
  Mn36     1.0000 0.56378  0.06378  0.43622  Biso   1.000  Mn
  Mn37     1.0000 0.56378  0.93622  0.06378  Biso   1.000  Mn
  Mn38     1.0000 0.06378  0.43622  0.56378  Biso   1.000  Mn
  Mn39     1.0000 0.93622  0.06378  0.56378  Biso   1.000  Mn
  Mn40     1.0000 0.43622  0.56378  0.06378  Biso   1.000  Mn
  Mn41     1.0000 0.68622  0.18622  0.31378  Biso   1.000  Mn
  Mn42     1.0000 0.18622  0.68622  0.81378  Biso   1.000  Mn
  Mn43     1.0000 0.81378  0.81378  0.81378  Biso   1.000  Mn
  Mn44     1.0000 0.31378  0.31378  0.31378  Biso   1.000  Mn
  Mn45     1.0000 0.18622  0.31378  0.68622  Biso   1.000  Mn
  Mn46     1.0000 0.68622  0.81378  0.18622  Biso   1.000  Mn
  Mn47     1.0000 0.31378  0.68622  0.18622  Biso   1.000  Mn
  Mn48     1.0000 0.81378  0.18622  0.68622  Biso   1.000  Mn
  Si1      1.0000 0.75000  0.37500  0.50000  Biso   1.000  Si
  Si2      1.0000 0.75000  0.62500  0.00000  Biso   1.000  Si
  Si3      1.0000 0.25000  0.87500  0.00000  Biso   1.000  Si
  Si4      1.0000 0.25000  0.12500  0.50000  Biso   1.000  Si
  Si5      1.0000 0.50000  0.75000  0.37500  Biso   1.000  Si
  Si6      1.0000 0.00000  0.75000  0.62500  Biso   1.000  Si
  Si7      1.0000 0.00000  0.25000  0.87500  Biso   1.000  Si
  Si8      1.0000 0.50000  0.25000  0.12500  Biso   1.000  Si
  Si9      1.0000 0.37500  0.50000  0.75000  Biso   1.000  Si
  Si10     1.0000 0.62500  0.00000  0.75000  Biso   1.000  Si
  Si11     1.0000 0.87500  0.00000  0.25000  Biso   1.000  Si
  Si12     1.0000 0.12500  0.50000  0.25000  Biso   1.000  Si
  Si13     1.0000 0.12500  0.00000  0.75000  Biso   1.000  Si
  Si14     1.0000 0.37500  0.00000  0.25000  Biso   1.000  Si
  Si15     1.0000 0.62500  0.50000  0.25000  Biso   1.000  Si
  Si16     1.0000 0.87500  0.50000  0.75000  Biso   1.000  Si
  Si17     1.0000 0.50000  0.75000  0.87500  Biso   1.000  Si
  Si18     1.0000 0.50000  0.25000  0.62500  Biso   1.000  Si
  Si19     1.0000 0.00000  0.25000  0.37500  Biso   1.000  Si
  Si20     1.0000 0.00000  0.75000  0.12500  Biso   1.000  Si
  Si21     1.0000 0.25000  0.62500  0.50000  Biso   1.000  Si
  Si22     1.0000 0.75000  0.87500  0.50000  Biso   1.000  Si
  Si23     1.0000 0.75000  0.12500  0.00000  Biso   1.000  Si
  Si24     1.0000 0.25000  0.37500  0.00000  Biso   1.000  Si
