data_image0
_cell_length_a       36.1906
_cell_length_b       36.1906
_cell_length_c       36.1906
_cell_angle_alpha    90
_cell_angle_beta     90
_cell_angle_gamma    90

_symmetry_space_group_name_H-M    "P 1"
_symmetry_int_tables_number       1

loop_
  _symmetry_equiv_pos_as_xyz
  'x, y, z'

loop_
  _atom_site_label
  _atom_site_occupancy
  _atom_site_fract_x
  _atom_site_fract_y
  _atom_site_fract_z
  _atom_site_thermal_displace_type
  _atom_site_B_iso_or_equiv
  _atom_site_type_symbol
  C1       1.0000 0.02960  0.48600  0.11320  Biso   1.000  C
  C2       1.0000 0.05218  0.49005  0.14564  Biso   1.000  C
  C3       1.0000 0.04404  0.46952  0.17710  Biso   1.000  C
  H1       1.0000 0.02370  0.45300  0.17700  Biso   1.000  H
  C4       1.0000 0.06570  0.47321  0.20856  Biso   1.000  C
  H2       1.0000 0.06010  0.45920  0.23000  Biso   1.000  H
  C5       1.0000 0.09553  0.49742  0.20863  Biso   1.000  C
  C6       1.0000 0.10367  0.51795  0.17720  Biso   1.000  C
  H3       1.0000 0.12400  0.53450  0.17730  Biso   1.000  H
  C7       1.0000 0.08200  0.51426  0.14571  Biso   1.000  C
  H4       1.0000 0.08760  0.52830  0.12420  Biso   1.000  H
  N1       1.0000 0.98590  0.46670  0.07760  Biso   1.000  N
  N2       1.0000 0.00810  0.48930  0.05850  Biso   1.000  N
  N3       1.0000 0.03550  0.50060  0.07980  Biso   1.000  N
  N4       1.0000 0.99930  0.46530  0.11280  Biso   1.000  N
  C8       1.0000 0.52960  0.98600  0.61320  Biso   1.000  C
  C9       1.0000 0.55218  0.99005  0.64564  Biso   1.000  C
  C10      1.0000 0.54404  0.96952  0.67710  Biso   1.000  C
  H5       1.0000 0.52370  0.95300  0.67700  Biso   1.000  H
  C11      1.0000 0.56570  0.97321  0.70856  Biso   1.000  C
  H6       1.0000 0.56010  0.95920  0.73000  Biso   1.000  H
  C12      1.0000 0.59553  0.99742  0.70863  Biso   1.000  C
  C13      1.0000 0.60367  0.01795  0.67720  Biso   1.000  C
  H7       1.0000 0.62400  0.03450  0.67730  Biso   1.000  H
  C14      1.0000 0.58200  0.01426  0.64571  Biso   1.000  C
  H8       1.0000 0.58760  0.02830  0.62420  Biso   1.000  H
  N5       1.0000 0.48590  0.96670  0.57760  Biso   1.000  N
  N6       1.0000 0.50810  0.98930  0.55850  Biso   1.000  N
  N7       1.0000 0.53550  0.00060  0.57980  Biso   1.000  N
  N8       1.0000 0.49930  0.96530  0.61280  Biso   1.000  N
  C15      1.0000 0.47040  0.51400  0.61320  Biso   1.000  C
  C16      1.0000 0.44782  0.50995  0.64564  Biso   1.000  C
  C17      1.0000 0.45596  0.53048  0.67710  Biso   1.000  C
  H9       1.0000 0.47630  0.54700  0.67700  Biso   1.000  H
  C18      1.0000 0.43430  0.52679  0.70856  Biso   1.000  C
  H10      1.0000 0.43990  0.54080  0.73000  Biso   1.000  H
  C19      1.0000 0.40447  0.50258  0.70863  Biso   1.000  C
  C20      1.0000 0.39633  0.48205  0.67720  Biso   1.000  C
  H11      1.0000 0.37600  0.46550  0.67730  Biso   1.000  H
  C21      1.0000 0.41800  0.48574  0.64571  Biso   1.000  C
  H12      1.0000 0.41240  0.47170  0.62420  Biso   1.000  H
  N9       1.0000 0.51410  0.53330  0.57760  Biso   1.000  N
  N10      1.0000 0.49190  0.51070  0.55850  Biso   1.000  N
  N11      1.0000 0.46450  0.49940  0.57980  Biso   1.000  N
  N12      1.0000 0.50070  0.53470  0.61280  Biso   1.000  N
  C22      1.0000 0.97040  0.01400  0.11320  Biso   1.000  C
  C23      1.0000 0.94782  0.00995  0.14564  Biso   1.000  C
  C24      1.0000 0.95596  0.03048  0.17710  Biso   1.000  C
  H13      1.0000 0.97630  0.04700  0.17700  Biso   1.000  H
  C25      1.0000 0.93430  0.02679  0.20856  Biso   1.000  C
  H14      1.0000 0.93990  0.04080  0.23000  Biso   1.000  H
  C26      1.0000 0.90447  0.00258  0.20863  Biso   1.000  C
  C27      1.0000 0.89633  0.98205  0.17720  Biso   1.000  C
  H15      1.0000 0.87600  0.96550  0.17730  Biso   1.000  H
  C28      1.0000 0.91800  0.98574  0.14571  Biso   1.000  C
  H16      1.0000 0.91240  0.97170  0.12420  Biso   1.000  H
  N13      1.0000 0.01410  0.03330  0.07760  Biso   1.000  N
  N14      1.0000 0.99190  0.01070  0.05850  Biso   1.000  N
  N15      1.0000 0.96450  0.99940  0.07980  Biso   1.000  N
  N16      1.0000 0.00070  0.03470  0.11280  Biso   1.000  N
  C29      1.0000 0.97040  0.98600  0.38680  Biso   1.000  C
  C30      1.0000 0.94782  0.99005  0.35436  Biso   1.000  C
  C31      1.0000 0.95596  0.96952  0.32290  Biso   1.000  C
  H17      1.0000 0.97630  0.95300  0.32300  Biso   1.000  H
  C32      1.0000 0.93430  0.97321  0.29144  Biso   1.000  C
  H18      1.0000 0.93990  0.95920  0.27000  Biso   1.000  H
  C33      1.0000 0.90447  0.99742  0.29137  Biso   1.000  C
  C34      1.0000 0.89633  0.01795  0.32280  Biso   1.000  C
  H19      1.0000 0.87600  0.03450  0.32270  Biso   1.000  H
  C35      1.0000 0.91800  0.01426  0.35429  Biso   1.000  C
  H20      1.0000 0.91240  0.02830  0.37580  Biso   1.000  H
  N17      1.0000 0.01410  0.96670  0.42240  Biso   1.000  N
  N18      1.0000 0.99190  0.98930  0.44150  Biso   1.000  N
  N19      1.0000 0.96450  0.00060  0.42020  Biso   1.000  N
  N20      1.0000 0.00070  0.96530  0.38720  Biso   1.000  N
  C36      1.0000 0.47040  0.48600  0.88680  Biso   1.000  C
  C37      1.0000 0.44782  0.49005  0.85436  Biso   1.000  C
  C38      1.0000 0.45596  0.46952  0.82290  Biso   1.000  C
  H21      1.0000 0.47630  0.45300  0.82300  Biso   1.000  H
  C39      1.0000 0.43430  0.47321  0.79144  Biso   1.000  C
  H22      1.0000 0.43990  0.45920  0.77000  Biso   1.000  H
  C40      1.0000 0.40447  0.49742  0.79137  Biso   1.000  C
  C41      1.0000 0.39633  0.51795  0.82280  Biso   1.000  C
  H23      1.0000 0.37600  0.53450  0.82270  Biso   1.000  H
  C42      1.0000 0.41800  0.51426  0.85429  Biso   1.000  C
  H24      1.0000 0.41240  0.52830  0.87580  Biso   1.000  H
  N21      1.0000 0.51410  0.46670  0.92240  Biso   1.000  N
  N22      1.0000 0.49190  0.48930  0.94150  Biso   1.000  N
  N23      1.0000 0.46450  0.50060  0.92020  Biso   1.000  N
  N24      1.0000 0.50070  0.46530  0.88720  Biso   1.000  N
  C43      1.0000 0.52960  0.01400  0.88680  Biso   1.000  C
  C44      1.0000 0.55218  0.00995  0.85436  Biso   1.000  C
  C45      1.0000 0.54404  0.03048  0.82290  Biso   1.000  C
  H25      1.0000 0.52370  0.04700  0.82300  Biso   1.000  H
  C46      1.0000 0.56570  0.02679  0.79144  Biso   1.000  C
  H26      1.0000 0.56010  0.04080  0.77000  Biso   1.000  H
  C47      1.0000 0.59553  0.00258  0.79137  Biso   1.000  C
  C48      1.0000 0.60367  0.98205  0.82280  Biso   1.000  C
  H27      1.0000 0.62400  0.96550  0.82270  Biso   1.000  H
  C49      1.0000 0.58200  0.98574  0.85429  Biso   1.000  C
  H28      1.0000 0.58760  0.97170  0.87580  Biso   1.000  H
  N25      1.0000 0.48590  0.03330  0.92240  Biso   1.000  N
  N26      1.0000 0.50810  0.01070  0.94150  Biso   1.000  N
  N27      1.0000 0.53550  0.99940  0.92020  Biso   1.000  N
  N28      1.0000 0.49930  0.03470  0.88720  Biso   1.000  N
  C50      1.0000 0.02960  0.51400  0.38680  Biso   1.000  C
  C51      1.0000 0.05218  0.50995  0.35436  Biso   1.000  C
  C52      1.0000 0.04404  0.53048  0.32290  Biso   1.000  C
  H29      1.0000 0.02370  0.54700  0.32300  Biso   1.000  H
  C53      1.0000 0.06570  0.52679  0.29144  Biso   1.000  C
  H30      1.0000 0.06010  0.54080  0.27000  Biso   1.000  H
  C54      1.0000 0.09553  0.50258  0.29137  Biso   1.000  C
  C55      1.0000 0.10367  0.48205  0.32280  Biso   1.000  C
  H31      1.0000 0.12400  0.46550  0.32270  Biso   1.000  H
  C56      1.0000 0.08200  0.48574  0.35429  Biso   1.000  C
  H32      1.0000 0.08760  0.47170  0.37580  Biso   1.000  H
  N29      1.0000 0.98590  0.53330  0.42240  Biso   1.000  N
  N30      1.0000 0.00810  0.51070  0.44150  Biso   1.000  N
  N31      1.0000 0.03550  0.49940  0.42020  Biso   1.000  N
  N32      1.0000 0.99930  0.53470  0.38720  Biso   1.000  N
  C57      1.0000 0.11320  0.02960  0.48600  Biso   1.000  C
  C58      1.0000 0.14564  0.05218  0.49005  Biso   1.000  C
  C59      1.0000 0.17710  0.04404  0.46952  Biso   1.000  C
  H33      1.0000 0.17700  0.02370  0.45300  Biso   1.000  H
  C60      1.0000 0.20856  0.06570  0.47321  Biso   1.000  C
  H34      1.0000 0.23000  0.06010  0.45920  Biso   1.000  H
  C61      1.0000 0.20863  0.09553  0.49742  Biso   1.000  C
  C62      1.0000 0.17720  0.10367  0.51795  Biso   1.000  C
  H35      1.0000 0.17730  0.12400  0.53450  Biso   1.000  H
  C63      1.0000 0.14571  0.08200  0.51426  Biso   1.000  C
  H36      1.0000 0.12420  0.08760  0.52830  Biso   1.000  H
  N33      1.0000 0.07760  0.98590  0.46670  Biso   1.000  N
  N34      1.0000 0.05850  0.00810  0.48930  Biso   1.000  N
  N35      1.0000 0.07980  0.03550  0.50060  Biso   1.000  N
  N36      1.0000 0.11280  0.99930  0.46530  Biso   1.000  N
  C64      1.0000 0.61320  0.52960  0.98600  Biso   1.000  C
  C65      1.0000 0.64564  0.55218  0.99005  Biso   1.000  C
  C66      1.0000 0.67710  0.54404  0.96952  Biso   1.000  C
  H37      1.0000 0.67700  0.52370  0.95300  Biso   1.000  H
  C67      1.0000 0.70856  0.56570  0.97321  Biso   1.000  C
  H38      1.0000 0.73000  0.56010  0.95920  Biso   1.000  H
  C68      1.0000 0.70863  0.59553  0.99742  Biso   1.000  C
  C69      1.0000 0.67720  0.60367  0.01795  Biso   1.000  C
  H39      1.0000 0.67730  0.62400  0.03450  Biso   1.000  H
  C70      1.0000 0.64571  0.58200  0.01426  Biso   1.000  C
  H40      1.0000 0.62420  0.58760  0.02830  Biso   1.000  H
  N37      1.0000 0.57760  0.48590  0.96670  Biso   1.000  N
  N38      1.0000 0.55850  0.50810  0.98930  Biso   1.000  N
  N39      1.0000 0.57980  0.53550  0.00060  Biso   1.000  N
  N40      1.0000 0.61280  0.49930  0.96530  Biso   1.000  N
  C71      1.0000 0.61320  0.47040  0.51400  Biso   1.000  C
  C72      1.0000 0.64564  0.44782  0.50995  Biso   1.000  C
  C73      1.0000 0.67710  0.45596  0.53048  Biso   1.000  C
  H41      1.0000 0.67700  0.47630  0.54700  Biso   1.000  H
  C74      1.0000 0.70856  0.43430  0.52679  Biso   1.000  C
  H42      1.0000 0.73000  0.43990  0.54080  Biso   1.000  H
  C75      1.0000 0.70863  0.40447  0.50258  Biso   1.000  C
  C76      1.0000 0.67720  0.39633  0.48205  Biso   1.000  C
  H43      1.0000 0.67730  0.37600  0.46550  Biso   1.000  H
  C77      1.0000 0.64571  0.41800  0.48574  Biso   1.000  C
  H44      1.0000 0.62420  0.41240  0.47170  Biso   1.000  H
  N41      1.0000 0.57760  0.51410  0.53330  Biso   1.000  N
  N42      1.0000 0.55850  0.49190  0.51070  Biso   1.000  N
  N43      1.0000 0.57980  0.46450  0.49940  Biso   1.000  N
  N44      1.0000 0.61280  0.50070  0.53470  Biso   1.000  N
  C78      1.0000 0.11320  0.97040  0.01400  Biso   1.000  C
  C79      1.0000 0.14564  0.94782  0.00995  Biso   1.000  C
  C80      1.0000 0.17710  0.95596  0.03048  Biso   1.000  C
  H45      1.0000 0.17700  0.97630  0.04700  Biso   1.000  H
  C81      1.0000 0.20856  0.93430  0.02679  Biso   1.000  C
  H46      1.0000 0.23000  0.93990  0.04080  Biso   1.000  H
  C82      1.0000 0.20863  0.90447  0.00258  Biso   1.000  C
  C83      1.0000 0.17720  0.89633  0.98205  Biso   1.000  C
  H47      1.0000 0.17730  0.87600  0.96550  Biso   1.000  H
  C84      1.0000 0.14571  0.91800  0.98574  Biso   1.000  C
  H48      1.0000 0.12420  0.91240  0.97170  Biso   1.000  H
  N45      1.0000 0.07760  0.01410  0.03330  Biso   1.000  N
  N46      1.0000 0.05850  0.99190  0.01070  Biso   1.000  N
  N47      1.0000 0.07980  0.96450  0.99940  Biso   1.000  N
  N48      1.0000 0.11280  0.00070  0.03470  Biso   1.000  N
  C85      1.0000 0.38680  0.97040  0.98600  Biso   1.000  C
  C86      1.0000 0.35436  0.94782  0.99005  Biso   1.000  C
  C87      1.0000 0.32290  0.95596  0.96952  Biso   1.000  C
  H49      1.0000 0.32300  0.97630  0.95300  Biso   1.000  H
  C88      1.0000 0.29144  0.93430  0.97321  Biso   1.000  C
  H50      1.0000 0.27000  0.93990  0.95920  Biso   1.000  H
  C89      1.0000 0.29137  0.90447  0.99742  Biso   1.000  C
  C90      1.0000 0.32280  0.89633  0.01795  Biso   1.000  C
  H51      1.0000 0.32270  0.87600  0.03450  Biso   1.000  H
  C91      1.0000 0.35429  0.91800  0.01426  Biso   1.000  C
  H52      1.0000 0.37580  0.91240  0.02830  Biso   1.000  H
  N49      1.0000 0.42240  0.01410  0.96670  Biso   1.000  N
  N50      1.0000 0.44150  0.99190  0.98930  Biso   1.000  N
  N51      1.0000 0.42020  0.96450  0.00060  Biso   1.000  N
  N52      1.0000 0.38720  0.00070  0.96530  Biso   1.000  N
  C92      1.0000 0.88680  0.47040  0.48600  Biso   1.000  C
  C93      1.0000 0.85436  0.44782  0.49005  Biso   1.000  C
  C94      1.0000 0.82290  0.45596  0.46952  Biso   1.000  C
  H53      1.0000 0.82300  0.47630  0.45300  Biso   1.000  H
  C95      1.0000 0.79144  0.43430  0.47321  Biso   1.000  C
  H54      1.0000 0.77000  0.43990  0.45920  Biso   1.000  H
  C96      1.0000 0.79137  0.40447  0.49742  Biso   1.000  C
  C97      1.0000 0.82280  0.39633  0.51795  Biso   1.000  C
  H55      1.0000 0.82270  0.37600  0.53450  Biso   1.000  H
  C98      1.0000 0.85429  0.41800  0.51426  Biso   1.000  C
  H56      1.0000 0.87580  0.41240  0.52830  Biso   1.000  H
  N53      1.0000 0.92240  0.51410  0.46670  Biso   1.000  N
  N54      1.0000 0.94150  0.49190  0.48930  Biso   1.000  N
  N55      1.0000 0.92020  0.46450  0.50060  Biso   1.000  N
  N56      1.0000 0.88720  0.50070  0.46530  Biso   1.000  N
  C99      1.0000 0.88680  0.52960  0.01400  Biso   1.000  C
  C100     1.0000 0.85436  0.55218  0.00995  Biso   1.000  C
  C101     1.0000 0.82290  0.54404  0.03048  Biso   1.000  C
  H57      1.0000 0.82300  0.52370  0.04700  Biso   1.000  H
  C102     1.0000 0.79144  0.56570  0.02679  Biso   1.000  C
  H58      1.0000 0.77000  0.56010  0.04080  Biso   1.000  H
  C103     1.0000 0.79137  0.59553  0.00258  Biso   1.000  C
  C104     1.0000 0.82280  0.60367  0.98205  Biso   1.000  C
  H59      1.0000 0.82270  0.62400  0.96550  Biso   1.000  H
  C105     1.0000 0.85429  0.58200  0.98574  Biso   1.000  C
  H60      1.0000 0.87580  0.58760  0.97170  Biso   1.000  H
  N57      1.0000 0.92240  0.48590  0.03330  Biso   1.000  N
  N58      1.0000 0.94150  0.50810  0.01070  Biso   1.000  N
  N59      1.0000 0.92020  0.53550  0.99940  Biso   1.000  N
  N60      1.0000 0.88720  0.49930  0.03470  Biso   1.000  N
  C106     1.0000 0.38680  0.02960  0.51400  Biso   1.000  C
  C107     1.0000 0.35436  0.05218  0.50995  Biso   1.000  C
  C108     1.0000 0.32290  0.04404  0.53048  Biso   1.000  C
  H61      1.0000 0.32300  0.02370  0.54700  Biso   1.000  H
  C109     1.0000 0.29144  0.06570  0.52679  Biso   1.000  C
  H62      1.0000 0.27000  0.06010  0.54080  Biso   1.000  H
  C110     1.0000 0.29137  0.09553  0.50258  Biso   1.000  C
  C111     1.0000 0.32280  0.10367  0.48205  Biso   1.000  C
  H63      1.0000 0.32270  0.12400  0.46550  Biso   1.000  H
  C112     1.0000 0.35429  0.08200  0.48574  Biso   1.000  C
  H64      1.0000 0.37580  0.08760  0.47170  Biso   1.000  H
  N61      1.0000 0.42240  0.98590  0.53330  Biso   1.000  N
  N62      1.0000 0.44150  0.00810  0.51070  Biso   1.000  N
  N63      1.0000 0.42020  0.03550  0.49940  Biso   1.000  N
  N64      1.0000 0.38720  0.99930  0.53470  Biso   1.000  N
  C113     1.0000 0.48600  0.11320  0.02960  Biso   1.000  C
  C114     1.0000 0.49005  0.14564  0.05218  Biso   1.000  C
  C115     1.0000 0.46952  0.17710  0.04404  Biso   1.000  C
  H65      1.0000 0.45300  0.17700  0.02370  Biso   1.000  H
  C116     1.0000 0.47321  0.20856  0.06570  Biso   1.000  C
  H66      1.0000 0.45920  0.23000  0.06010  Biso   1.000  H
  C117     1.0000 0.49742  0.20863  0.09553  Biso   1.000  C
  C118     1.0000 0.51795  0.17720  0.10367  Biso   1.000  C
  H67      1.0000 0.53450  0.17730  0.12400  Biso   1.000  H
  C119     1.0000 0.51426  0.14571  0.08200  Biso   1.000  C
  H68      1.0000 0.52830  0.12420  0.08760  Biso   1.000  H
  N65      1.0000 0.46670  0.07760  0.98590  Biso   1.000  N
  N66      1.0000 0.48930  0.05850  0.00810  Biso   1.000  N
  N67      1.0000 0.50060  0.07980  0.03550  Biso   1.000  N
  N68      1.0000 0.46530  0.11280  0.99930  Biso   1.000  N
  C120     1.0000 0.98600  0.61320  0.52960  Biso   1.000  C
  C121     1.0000 0.99005  0.64564  0.55218  Biso   1.000  C
  C122     1.0000 0.96952  0.67710  0.54404  Biso   1.000  C
  H69      1.0000 0.95300  0.67700  0.52370  Biso   1.000  H
  C123     1.0000 0.97321  0.70856  0.56570  Biso   1.000  C
  H70      1.0000 0.95920  0.73000  0.56010  Biso   1.000  H
  C124     1.0000 0.99742  0.70863  0.59553  Biso   1.000  C
  C125     1.0000 0.01795  0.67720  0.60367  Biso   1.000  C
  H71      1.0000 0.03450  0.67730  0.62400  Biso   1.000  H
  C126     1.0000 0.01426  0.64571  0.58200  Biso   1.000  C
  H72      1.0000 0.02830  0.62420  0.58760  Biso   1.000  H
  N69      1.0000 0.96670  0.57760  0.48590  Biso   1.000  N
  N70      1.0000 0.98930  0.55850  0.50810  Biso   1.000  N
  N71      1.0000 0.00060  0.57980  0.53550  Biso   1.000  N
  N72      1.0000 0.96530  0.61280  0.49930  Biso   1.000  N
  C127     1.0000 0.51400  0.61320  0.47040  Biso   1.000  C
  C128     1.0000 0.50995  0.64564  0.44782  Biso   1.000  C
  C129     1.0000 0.53048  0.67710  0.45596  Biso   1.000  C
  H73      1.0000 0.54700  0.67700  0.47630  Biso   1.000  H
  C130     1.0000 0.52679  0.70856  0.43430  Biso   1.000  C
  H74      1.0000 0.54080  0.73000  0.43990  Biso   1.000  H
  C131     1.0000 0.50258  0.70863  0.40447  Biso   1.000  C
  C132     1.0000 0.48205  0.67720  0.39633  Biso   1.000  C
  H75      1.0000 0.46550  0.67730  0.37600  Biso   1.000  H
  C133     1.0000 0.48574  0.64571  0.41800  Biso   1.000  C
  H76      1.0000 0.47170  0.62420  0.41240  Biso   1.000  H
  N73      1.0000 0.53330  0.57760  0.51410  Biso   1.000  N
  N74      1.0000 0.51070  0.55850  0.49190  Biso   1.000  N
  N75      1.0000 0.49940  0.57980  0.46450  Biso   1.000  N
  N76      1.0000 0.53470  0.61280  0.50070  Biso   1.000  N
  C134     1.0000 0.01400  0.11320  0.97040  Biso   1.000  C
  C135     1.0000 0.00995  0.14564  0.94782  Biso   1.000  C
  C136     1.0000 0.03048  0.17710  0.95596  Biso   1.000  C
  H77      1.0000 0.04700  0.17700  0.97630  Biso   1.000  H
  C137     1.0000 0.02679  0.20856  0.93430  Biso   1.000  C
  H78      1.0000 0.04080  0.23000  0.93990  Biso   1.000  H
  C138     1.0000 0.00258  0.20863  0.90447  Biso   1.000  C
  C139     1.0000 0.98205  0.17720  0.89633  Biso   1.000  C
  H79      1.0000 0.96550  0.17730  0.87600  Biso   1.000  H
  C140     1.0000 0.98574  0.14571  0.91800  Biso   1.000  C
  H80      1.0000 0.97170  0.12420  0.91240  Biso   1.000  H
  N77      1.0000 0.03330  0.07760  0.01410  Biso   1.000  N
  N78      1.0000 0.01070  0.05850  0.99190  Biso   1.000  N
  N79      1.0000 0.99940  0.07980  0.96450  Biso   1.000  N
  N80      1.0000 0.03470  0.11280  0.00070  Biso   1.000  N
  C141     1.0000 0.98600  0.38680  0.97040  Biso   1.000  C
  C142     1.0000 0.99005  0.35436  0.94782  Biso   1.000  C
  C143     1.0000 0.96952  0.32290  0.95596  Biso   1.000  C
  H81      1.0000 0.95300  0.32300  0.97630  Biso   1.000  H
  C144     1.0000 0.97321  0.29144  0.93430  Biso   1.000  C
  H82      1.0000 0.95920  0.27000  0.93990  Biso   1.000  H
  C145     1.0000 0.99742  0.29137  0.90447  Biso   1.000  C
  C146     1.0000 0.01795  0.32280  0.89633  Biso   1.000  C
  H83      1.0000 0.03450  0.32270  0.87600  Biso   1.000  H
  C147     1.0000 0.01426  0.35429  0.91800  Biso   1.000  C
  H84      1.0000 0.02830  0.37580  0.91240  Biso   1.000  H
  N81      1.0000 0.96670  0.42240  0.01410  Biso   1.000  N
  N82      1.0000 0.98930  0.44150  0.99190  Biso   1.000  N
  N83      1.0000 0.00060  0.42020  0.96450  Biso   1.000  N
  N84      1.0000 0.96530  0.38720  0.00070  Biso   1.000  N
  C148     1.0000 0.48600  0.88680  0.47040  Biso   1.000  C
  C149     1.0000 0.49005  0.85436  0.44782  Biso   1.000  C
  C150     1.0000 0.46952  0.82290  0.45596  Biso   1.000  C
  H85      1.0000 0.45300  0.82300  0.47630  Biso   1.000  H
  C151     1.0000 0.47321  0.79144  0.43430  Biso   1.000  C
  H86      1.0000 0.45920  0.77000  0.43990  Biso   1.000  H
  C152     1.0000 0.49742  0.79137  0.40447  Biso   1.000  C
  C153     1.0000 0.51795  0.82280  0.39633  Biso   1.000  C
  H87      1.0000 0.53450  0.82270  0.37600  Biso   1.000  H
  C154     1.0000 0.51426  0.85429  0.41800  Biso   1.000  C
  H88      1.0000 0.52830  0.87580  0.41240  Biso   1.000  H
  N85      1.0000 0.46670  0.92240  0.51410  Biso   1.000  N
  N86      1.0000 0.48930  0.94150  0.49190  Biso   1.000  N
  N87      1.0000 0.50060  0.92020  0.46450  Biso   1.000  N
  N88      1.0000 0.46530  0.88720  0.50070  Biso   1.000  N
  C155     1.0000 0.01400  0.88680  0.52960  Biso   1.000  C
  C156     1.0000 0.00995  0.85436  0.55218  Biso   1.000  C
  C157     1.0000 0.03048  0.82290  0.54404  Biso   1.000  C
  H89      1.0000 0.04700  0.82300  0.52370  Biso   1.000  H
  C158     1.0000 0.02679  0.79144  0.56570  Biso   1.000  C
  H90      1.0000 0.04080  0.77000  0.56010  Biso   1.000  H
  C159     1.0000 0.00258  0.79137  0.59553  Biso   1.000  C
  C160     1.0000 0.98205  0.82280  0.60367  Biso   1.000  C
  H91      1.0000 0.96550  0.82270  0.62400  Biso   1.000  H
  C161     1.0000 0.98574  0.85429  0.58200  Biso   1.000  C
  H92      1.0000 0.97170  0.87580  0.58760  Biso   1.000  H
  N89      1.0000 0.03330  0.92240  0.48590  Biso   1.000  N
  N90      1.0000 0.01070  0.94150  0.50810  Biso   1.000  N
  N91      1.0000 0.99940  0.92020  0.53550  Biso   1.000  N
  N92      1.0000 0.03470  0.88720  0.49930  Biso   1.000  N
  C162     1.0000 0.51400  0.38680  0.02960  Biso   1.000  C
  C163     1.0000 0.50995  0.35436  0.05218  Biso   1.000  C
  C164     1.0000 0.53048  0.32290  0.04404  Biso   1.000  C
  H93      1.0000 0.54700  0.32300  0.02370  Biso   1.000  H
  C165     1.0000 0.52679  0.29144  0.06570  Biso   1.000  C
  H94      1.0000 0.54080  0.27000  0.06010  Biso   1.000  H
  C166     1.0000 0.50258  0.29137  0.09553  Biso   1.000  C
  C167     1.0000 0.48205  0.32280  0.10367  Biso   1.000  C
  H95      1.0000 0.46550  0.32270  0.12400  Biso   1.000  H
  C168     1.0000 0.48574  0.35429  0.08200  Biso   1.000  C
  H96      1.0000 0.47170  0.37580  0.08760  Biso   1.000  H
  N93      1.0000 0.53330  0.42240  0.98590  Biso   1.000  N
  N94      1.0000 0.51070  0.44150  0.00810  Biso   1.000  N
  N95      1.0000 0.49940  0.42020  0.03550  Biso   1.000  N
  N96      1.0000 0.53470  0.38720  0.99930  Biso   1.000  N
  C169     1.0000 0.23600  0.27960  0.13680  Biso   1.000  C
  C170     1.0000 0.24005  0.30218  0.10436  Biso   1.000  C
  C171     1.0000 0.21952  0.29404  0.07290  Biso   1.000  C
  H97      1.0000 0.20300  0.27370  0.07300  Biso   1.000  H
  C172     1.0000 0.22321  0.31570  0.04144  Biso   1.000  C
  H98      1.0000 0.20920  0.31010  0.02000  Biso   1.000  H
  C173     1.0000 0.24742  0.34553  0.04137  Biso   1.000  C
  C174     1.0000 0.26795  0.35367  0.07280  Biso   1.000  C
  H99      1.0000 0.28450  0.37400  0.07270  Biso   1.000  H
  C175     1.0000 0.26426  0.33200  0.10429  Biso   1.000  C
  H100     1.0000 0.27830  0.33760  0.12580  Biso   1.000  H
  N97      1.0000 0.21670  0.23590  0.17240  Biso   1.000  N
  N98      1.0000 0.23930  0.25810  0.19150  Biso   1.000  N
  N99      1.0000 0.25060  0.28550  0.17020  Biso   1.000  N
  N100     1.0000 0.21530  0.24930  0.13720  Biso   1.000  N
  C176     1.0000 0.73600  0.77960  0.63680  Biso   1.000  C
  C177     1.0000 0.74005  0.80218  0.60436  Biso   1.000  C
  C178     1.0000 0.71952  0.79404  0.57290  Biso   1.000  C
  H101     1.0000 0.70300  0.77370  0.57300  Biso   1.000  H
  C179     1.0000 0.72321  0.81570  0.54144  Biso   1.000  C
  H102     1.0000 0.70920  0.81010  0.52000  Biso   1.000  H
  C180     1.0000 0.74742  0.84553  0.54137  Biso   1.000  C
  C181     1.0000 0.76795  0.85367  0.57280  Biso   1.000  C
  H103     1.0000 0.78450  0.87400  0.57270  Biso   1.000  H
  C182     1.0000 0.76426  0.83200  0.60429  Biso   1.000  C
  H104     1.0000 0.77830  0.83760  0.62580  Biso   1.000  H
  N101     1.0000 0.71670  0.73590  0.67240  Biso   1.000  N
  N102     1.0000 0.73930  0.75810  0.69150  Biso   1.000  N
  N103     1.0000 0.75060  0.78550  0.67020  Biso   1.000  N
  N104     1.0000 0.71530  0.74930  0.63720  Biso   1.000  N
  C183     1.0000 0.26400  0.72040  0.63680  Biso   1.000  C
  C184     1.0000 0.25995  0.69782  0.60436  Biso   1.000  C
  C185     1.0000 0.28048  0.70596  0.57290  Biso   1.000  C
  H105     1.0000 0.29700  0.72630  0.57300  Biso   1.000  H
  C186     1.0000 0.27679  0.68430  0.54144  Biso   1.000  C
  H106     1.0000 0.29080  0.68990  0.52000  Biso   1.000  H
  C187     1.0000 0.25258  0.65447  0.54137  Biso   1.000  C
  C188     1.0000 0.23205  0.64633  0.57280  Biso   1.000  C
  H107     1.0000 0.21550  0.62600  0.57270  Biso   1.000  H
  C189     1.0000 0.23574  0.66800  0.60429  Biso   1.000  C
  H108     1.0000 0.22170  0.66240  0.62580  Biso   1.000  H
  N105     1.0000 0.28330  0.76410  0.67240  Biso   1.000  N
  N106     1.0000 0.26070  0.74190  0.69150  Biso   1.000  N
  N107     1.0000 0.24940  0.71450  0.67020  Biso   1.000  N
  N108     1.0000 0.28470  0.75070  0.63720  Biso   1.000  N
  C190     1.0000 0.76400  0.22040  0.13680  Biso   1.000  C
  C191     1.0000 0.75995  0.19782  0.10436  Biso   1.000  C
  C192     1.0000 0.78048  0.20596  0.07290  Biso   1.000  C
  H109     1.0000 0.79700  0.22630  0.07300  Biso   1.000  H
  C193     1.0000 0.77679  0.18430  0.04144  Biso   1.000  C
  H110     1.0000 0.79080  0.18990  0.02000  Biso   1.000  H
  C194     1.0000 0.75258  0.15447  0.04137  Biso   1.000  C
  C195     1.0000 0.73205  0.14633  0.07280  Biso   1.000  C
  H111     1.0000 0.71550  0.12600  0.07270  Biso   1.000  H
  C196     1.0000 0.73574  0.16800  0.10429  Biso   1.000  C
  H112     1.0000 0.72170  0.16240  0.12580  Biso   1.000  H
  N109     1.0000 0.78330  0.26410  0.17240  Biso   1.000  N
  N110     1.0000 0.76070  0.24190  0.19150  Biso   1.000  N
  N111     1.0000 0.74940  0.21450  0.17020  Biso   1.000  N
  N112     1.0000 0.78470  0.25070  0.13720  Biso   1.000  N
  C197     1.0000 0.73600  0.22040  0.86320  Biso   1.000  C
  C198     1.0000 0.74005  0.19782  0.89564  Biso   1.000  C
  C199     1.0000 0.71952  0.20596  0.92710  Biso   1.000  C
  H113     1.0000 0.70300  0.22630  0.92700  Biso   1.000  H
  C200     1.0000 0.72321  0.18430  0.95856  Biso   1.000  C
  H114     1.0000 0.70920  0.18990  0.98000  Biso   1.000  H
  C201     1.0000 0.74742  0.15447  0.95863  Biso   1.000  C
  C202     1.0000 0.76795  0.14633  0.92720  Biso   1.000  C
  H115     1.0000 0.78450  0.12600  0.92730  Biso   1.000  H
  C203     1.0000 0.76426  0.16800  0.89571  Biso   1.000  C
  H116     1.0000 0.77830  0.16240  0.87420  Biso   1.000  H
  N113     1.0000 0.71670  0.26410  0.82760  Biso   1.000  N
  N114     1.0000 0.73930  0.24190  0.80850  Biso   1.000  N
  N115     1.0000 0.75060  0.21450  0.82980  Biso   1.000  N
  N116     1.0000 0.71530  0.25070  0.86280  Biso   1.000  N
  C204     1.0000 0.23600  0.72040  0.36320  Biso   1.000  C
  C205     1.0000 0.24005  0.69782  0.39564  Biso   1.000  C
  C206     1.0000 0.21952  0.70596  0.42710  Biso   1.000  C
  H117     1.0000 0.20300  0.72630  0.42700  Biso   1.000  H
  C207     1.0000 0.22321  0.68430  0.45856  Biso   1.000  C
  H118     1.0000 0.20920  0.68990  0.48000  Biso   1.000  H
  C208     1.0000 0.24742  0.65447  0.45863  Biso   1.000  C
  C209     1.0000 0.26795  0.64633  0.42720  Biso   1.000  C
  H119     1.0000 0.28450  0.62600  0.42730  Biso   1.000  H
  C210     1.0000 0.26426  0.66800  0.39571  Biso   1.000  C
  H120     1.0000 0.27830  0.66240  0.37420  Biso   1.000  H
  N117     1.0000 0.21670  0.76410  0.32760  Biso   1.000  N
  N118     1.0000 0.23930  0.74190  0.30850  Biso   1.000  N
  N119     1.0000 0.25060  0.71450  0.32980  Biso   1.000  N
  N120     1.0000 0.21530  0.75070  0.36280  Biso   1.000  N
  C211     1.0000 0.76400  0.77960  0.36320  Biso   1.000  C
  C212     1.0000 0.75995  0.80218  0.39564  Biso   1.000  C
  C213     1.0000 0.78048  0.79404  0.42710  Biso   1.000  C
  H121     1.0000 0.79700  0.77370  0.42700  Biso   1.000  H
  C214     1.0000 0.77679  0.81570  0.45856  Biso   1.000  C
  H122     1.0000 0.79080  0.81010  0.48000  Biso   1.000  H
  C215     1.0000 0.75258  0.84553  0.45863  Biso   1.000  C
  C216     1.0000 0.73205  0.85367  0.42720  Biso   1.000  C
  H123     1.0000 0.71550  0.87400  0.42730  Biso   1.000  H
  C217     1.0000 0.73574  0.83200  0.39571  Biso   1.000  C
  H124     1.0000 0.72170  0.83760  0.37420  Biso   1.000  H
  N121     1.0000 0.78330  0.73590  0.32760  Biso   1.000  N
  N122     1.0000 0.76070  0.75810  0.30850  Biso   1.000  N
  N123     1.0000 0.74940  0.78550  0.32980  Biso   1.000  N
  N124     1.0000 0.78470  0.74930  0.36280  Biso   1.000  N
  C218     1.0000 0.26400  0.27960  0.86320  Biso   1.000  C
  C219     1.0000 0.25995  0.30218  0.89564  Biso   1.000  C
  C220     1.0000 0.28048  0.29404  0.92710  Biso   1.000  C
  H125     1.0000 0.29700  0.27370  0.92700  Biso   1.000  H
  C221     1.0000 0.27679  0.31570  0.95856  Biso   1.000  C
  H126     1.0000 0.29080  0.31010  0.98000  Biso   1.000  H
  C222     1.0000 0.25258  0.34553  0.95863  Biso   1.000  C
  C223     1.0000 0.23205  0.35367  0.92720  Biso   1.000  C
  H127     1.0000 0.21550  0.37400  0.92730  Biso   1.000  H
  C224     1.0000 0.23574  0.33200  0.89571  Biso   1.000  C
  H128     1.0000 0.22170  0.33760  0.87420  Biso   1.000  H
  N125     1.0000 0.28330  0.23590  0.82760  Biso   1.000  N
  N126     1.0000 0.26070  0.25810  0.80850  Biso   1.000  N
  N127     1.0000 0.24940  0.28550  0.82980  Biso   1.000  N
  N128     1.0000 0.28470  0.24930  0.86280  Biso   1.000  N
  C225     1.0000 0.77960  0.36320  0.76400  Biso   1.000  C
  C226     1.0000 0.80218  0.39564  0.75995  Biso   1.000  C
  C227     1.0000 0.79404  0.42710  0.78048  Biso   1.000  C
  H129     1.0000 0.77370  0.42700  0.79700  Biso   1.000  H
  C228     1.0000 0.81570  0.45856  0.77679  Biso   1.000  C
  H130     1.0000 0.81010  0.48000  0.79080  Biso   1.000  H
  C229     1.0000 0.84553  0.45863  0.75258  Biso   1.000  C
  C230     1.0000 0.85367  0.42720  0.73205  Biso   1.000  C
  H131     1.0000 0.87400  0.42730  0.71550  Biso   1.000  H
  C231     1.0000 0.83200  0.39571  0.73574  Biso   1.000  C
  H132     1.0000 0.83760  0.37420  0.72170  Biso   1.000  H
  N129     1.0000 0.73590  0.32760  0.78330  Biso   1.000  N
  N130     1.0000 0.75810  0.30850  0.76070  Biso   1.000  N
  N131     1.0000 0.78550  0.32980  0.74940  Biso   1.000  N
  N132     1.0000 0.74930  0.36280  0.78470  Biso   1.000  N
  C232     1.0000 0.27960  0.86320  0.26400  Biso   1.000  C
  C233     1.0000 0.30218  0.89564  0.25995  Biso   1.000  C
  C234     1.0000 0.29404  0.92710  0.28048  Biso   1.000  C
  H133     1.0000 0.27370  0.92700  0.29700  Biso   1.000  H
  C235     1.0000 0.31570  0.95856  0.27679  Biso   1.000  C
  H134     1.0000 0.31010  0.98000  0.29080  Biso   1.000  H
  C236     1.0000 0.34553  0.95863  0.25258  Biso   1.000  C
  C237     1.0000 0.35367  0.92720  0.23205  Biso   1.000  C
  H135     1.0000 0.37400  0.92730  0.21550  Biso   1.000  H
  C238     1.0000 0.33200  0.89571  0.23574  Biso   1.000  C
  H136     1.0000 0.33760  0.87420  0.22170  Biso   1.000  H
  N133     1.0000 0.23590  0.82760  0.28330  Biso   1.000  N
  N134     1.0000 0.25810  0.80850  0.26070  Biso   1.000  N
  N135     1.0000 0.28550  0.82980  0.24940  Biso   1.000  N
  N136     1.0000 0.24930  0.86280  0.28470  Biso   1.000  N
  C239     1.0000 0.22040  0.86320  0.73600  Biso   1.000  C
  C240     1.0000 0.19782  0.89564  0.74005  Biso   1.000  C
  C241     1.0000 0.20596  0.92710  0.71952  Biso   1.000  C
  H137     1.0000 0.22630  0.92700  0.70300  Biso   1.000  H
  C242     1.0000 0.18430  0.95856  0.72321  Biso   1.000  C
  H138     1.0000 0.18990  0.98000  0.70920  Biso   1.000  H
  C243     1.0000 0.15447  0.95863  0.74742  Biso   1.000  C
  C244     1.0000 0.14633  0.92720  0.76795  Biso   1.000  C
  H139     1.0000 0.12600  0.92730  0.78450  Biso   1.000  H
  C245     1.0000 0.16800  0.89571  0.76426  Biso   1.000  C
  H140     1.0000 0.16240  0.87420  0.77830  Biso   1.000  H
  N137     1.0000 0.26410  0.82760  0.71670  Biso   1.000  N
  N138     1.0000 0.24190  0.80850  0.73930  Biso   1.000  N
  N139     1.0000 0.21450  0.82980  0.75060  Biso   1.000  N
  N140     1.0000 0.25070  0.86280  0.71530  Biso   1.000  N
  C246     1.0000 0.72040  0.36320  0.23600  Biso   1.000  C
  C247     1.0000 0.69782  0.39564  0.24005  Biso   1.000  C
  C248     1.0000 0.70596  0.42710  0.21952  Biso   1.000  C
  H141     1.0000 0.72630  0.42700  0.20300  Biso   1.000  H
  C249     1.0000 0.68430  0.45856  0.22321  Biso   1.000  C
  H142     1.0000 0.68990  0.48000  0.20920  Biso   1.000  H
  C250     1.0000 0.65447  0.45863  0.24742  Biso   1.000  C
  C251     1.0000 0.64633  0.42720  0.26795  Biso   1.000  C
  H143     1.0000 0.62600  0.42730  0.28450  Biso   1.000  H
  C252     1.0000 0.66800  0.39571  0.26426  Biso   1.000  C
  H144     1.0000 0.66240  0.37420  0.27830  Biso   1.000  H
  N141     1.0000 0.76410  0.32760  0.21670  Biso   1.000  N
  N142     1.0000 0.74190  0.30850  0.23930  Biso   1.000  N
  N143     1.0000 0.71450  0.32980  0.25060  Biso   1.000  N
  N144     1.0000 0.75070  0.36280  0.21530  Biso   1.000  N
  C253     1.0000 0.72040  0.63680  0.26400  Biso   1.000  C
  C254     1.0000 0.69782  0.60436  0.25995  Biso   1.000  C
  C255     1.0000 0.70596  0.57290  0.28048  Biso   1.000  C
  H145     1.0000 0.72630  0.57300  0.29700  Biso   1.000  H
  C256     1.0000 0.68430  0.54144  0.27679  Biso   1.000  C
  H146     1.0000 0.68990  0.52000  0.29080  Biso   1.000  H
  C257     1.0000 0.65447  0.54137  0.25258  Biso   1.000  C
  C258     1.0000 0.64633  0.57280  0.23205  Biso   1.000  C
  H147     1.0000 0.62600  0.57270  0.21550  Biso   1.000  H
  C259     1.0000 0.66800  0.60429  0.23574  Biso   1.000  C
  H148     1.0000 0.66240  0.62580  0.22170  Biso   1.000  H
  N145     1.0000 0.76410  0.67240  0.28330  Biso   1.000  N
  N146     1.0000 0.74190  0.69150  0.26070  Biso   1.000  N
  N147     1.0000 0.71450  0.67020  0.24940  Biso   1.000  N
  N148     1.0000 0.75070  0.63720  0.28470  Biso   1.000  N
  C260     1.0000 0.22040  0.13680  0.76400  Biso   1.000  C
  C261     1.0000 0.19782  0.10436  0.75995  Biso   1.000  C
  C262     1.0000 0.20596  0.07290  0.78048  Biso   1.000  C
  H149     1.0000 0.22630  0.07300  0.79700  Biso   1.000  H
  C263     1.0000 0.18430  0.04144  0.77679  Biso   1.000  C
  H150     1.0000 0.18990  0.02000  0.79080  Biso   1.000  H
  C264     1.0000 0.15447  0.04137  0.75258  Biso   1.000  C
  C265     1.0000 0.14633  0.07280  0.73205  Biso   1.000  C
  H151     1.0000 0.12600  0.07270  0.71550  Biso   1.000  H
  C266     1.0000 0.16800  0.10429  0.73574  Biso   1.000  C
  H152     1.0000 0.16240  0.12580  0.72170  Biso   1.000  H
  N149     1.0000 0.26410  0.17240  0.78330  Biso   1.000  N
  N150     1.0000 0.24190  0.19150  0.76070  Biso   1.000  N
  N151     1.0000 0.21450  0.17020  0.74940  Biso   1.000  N
  N152     1.0000 0.25070  0.13720  0.78470  Biso   1.000  N
  C267     1.0000 0.27960  0.13680  0.23600  Biso   1.000  C
  C268     1.0000 0.30218  0.10436  0.24005  Biso   1.000  C
  C269     1.0000 0.29404  0.07290  0.21952  Biso   1.000  C
  H153     1.0000 0.27370  0.07300  0.20300  Biso   1.000  H
  C270     1.0000 0.31570  0.04144  0.22321  Biso   1.000  C
  H154     1.0000 0.31010  0.02000  0.20920  Biso   1.000  H
  C271     1.0000 0.34553  0.04137  0.24742  Biso   1.000  C
  C272     1.0000 0.35367  0.07280  0.26795  Biso   1.000  C
  H155     1.0000 0.37400  0.07270  0.28450  Biso   1.000  H
  C273     1.0000 0.33200  0.10429  0.26426  Biso   1.000  C
  H156     1.0000 0.33760  0.12580  0.27830  Biso   1.000  H
  N153     1.0000 0.23590  0.17240  0.21670  Biso   1.000  N
  N154     1.0000 0.25810  0.19150  0.23930  Biso   1.000  N
  N155     1.0000 0.28550  0.17020  0.25060  Biso   1.000  N
  N156     1.0000 0.24930  0.13720  0.21530  Biso   1.000  N
  C274     1.0000 0.77960  0.63680  0.73600  Biso   1.000  C
  C275     1.0000 0.80218  0.60436  0.74005  Biso   1.000  C
  C276     1.0000 0.79404  0.57290  0.71952  Biso   1.000  C
  H157     1.0000 0.77370  0.57300  0.70300  Biso   1.000  H
  C277     1.0000 0.81570  0.54144  0.72321  Biso   1.000  C
  H158     1.0000 0.81010  0.52000  0.70920  Biso   1.000  H
  C278     1.0000 0.84553  0.54137  0.74742  Biso   1.000  C
  C279     1.0000 0.85367  0.57280  0.76795  Biso   1.000  C
  H159     1.0000 0.87400  0.57270  0.78450  Biso   1.000  H
  C280     1.0000 0.83200  0.60429  0.76426  Biso   1.000  C
  H160     1.0000 0.83760  0.62580  0.77830  Biso   1.000  H
  N157     1.0000 0.73590  0.67240  0.71670  Biso   1.000  N
  N158     1.0000 0.75810  0.69150  0.73930  Biso   1.000  N
  N159     1.0000 0.78550  0.67020  0.75060  Biso   1.000  N
  N160     1.0000 0.74930  0.63720  0.71530  Biso   1.000  N
  C281     1.0000 0.86320  0.73600  0.22040  Biso   1.000  C
  C282     1.0000 0.89564  0.74005  0.19782  Biso   1.000  C
  C283     1.0000 0.92710  0.71952  0.20596  Biso   1.000  C
  H161     1.0000 0.92700  0.70300  0.22630  Biso   1.000  H
  C284     1.0000 0.95856  0.72321  0.18430  Biso   1.000  C
  H162     1.0000 0.98000  0.70920  0.18990  Biso   1.000  H
  C285     1.0000 0.95863  0.74742  0.15447  Biso   1.000  C
  C286     1.0000 0.92720  0.76795  0.14633  Biso   1.000  C
  H163     1.0000 0.92730  0.78450  0.12600  Biso   1.000  H
  C287     1.0000 0.89571  0.76426  0.16800  Biso   1.000  C
  H164     1.0000 0.87420  0.77830  0.16240  Biso   1.000  H
  N161     1.0000 0.82760  0.71670  0.26410  Biso   1.000  N
  N162     1.0000 0.80850  0.73930  0.24190  Biso   1.000  N
  N163     1.0000 0.82980  0.75060  0.21450  Biso   1.000  N
  N164     1.0000 0.86280  0.71530  0.25070  Biso   1.000  N
  C288     1.0000 0.36320  0.23600  0.72040  Biso   1.000  C
  C289     1.0000 0.39564  0.24005  0.69782  Biso   1.000  C
  C290     1.0000 0.42710  0.21952  0.70596  Biso   1.000  C
  H165     1.0000 0.42700  0.20300  0.72630  Biso   1.000  H
  C291     1.0000 0.45856  0.22321  0.68430  Biso   1.000  C
  H166     1.0000 0.48000  0.20920  0.68990  Biso   1.000  H
  C292     1.0000 0.45863  0.24742  0.65447  Biso   1.000  C
  C293     1.0000 0.42720  0.26795  0.64633  Biso   1.000  C
  H167     1.0000 0.42730  0.28450  0.62600  Biso   1.000  H
  C294     1.0000 0.39571  0.26426  0.66800  Biso   1.000  C
  H168     1.0000 0.37420  0.27830  0.66240  Biso   1.000  H
  N165     1.0000 0.32760  0.21670  0.76410  Biso   1.000  N
  N166     1.0000 0.30850  0.23930  0.74190  Biso   1.000  N
  N167     1.0000 0.32980  0.25060  0.71450  Biso   1.000  N
  N168     1.0000 0.36280  0.21530  0.75070  Biso   1.000  N
  C295     1.0000 0.36320  0.76400  0.77960  Biso   1.000  C
  C296     1.0000 0.39564  0.75995  0.80218  Biso   1.000  C
  C297     1.0000 0.42710  0.78048  0.79404  Biso   1.000  C
  H169     1.0000 0.42700  0.79700  0.77370  Biso   1.000  H
  C298     1.0000 0.45856  0.77679  0.81570  Biso   1.000  C
  H170     1.0000 0.48000  0.79080  0.81010  Biso   1.000  H
  C299     1.0000 0.45863  0.75258  0.84553  Biso   1.000  C
  C300     1.0000 0.42720  0.73205  0.85367  Biso   1.000  C
  H171     1.0000 0.42730  0.71550  0.87400  Biso   1.000  H
  C301     1.0000 0.39571  0.73574  0.83200  Biso   1.000  C
  H172     1.0000 0.37420  0.72170  0.83760  Biso   1.000  H
  N169     1.0000 0.32760  0.78330  0.73590  Biso   1.000  N
  N170     1.0000 0.30850  0.76070  0.75810  Biso   1.000  N
  N171     1.0000 0.32980  0.74940  0.78550  Biso   1.000  N
  N172     1.0000 0.36280  0.78470  0.74930  Biso   1.000  N
  C302     1.0000 0.86320  0.26400  0.27960  Biso   1.000  C
  C303     1.0000 0.89564  0.25995  0.30218  Biso   1.000  C
  C304     1.0000 0.92710  0.28048  0.29404  Biso   1.000  C
  H173     1.0000 0.92700  0.29700  0.27370  Biso   1.000  H
  C305     1.0000 0.95856  0.27679  0.31570  Biso   1.000  C
  H174     1.0000 0.98000  0.29080  0.31010  Biso   1.000  H
  C306     1.0000 0.95863  0.25258  0.34553  Biso   1.000  C
  C307     1.0000 0.92720  0.23205  0.35367  Biso   1.000  C
  H175     1.0000 0.92730  0.21550  0.37400  Biso   1.000  H
  C308     1.0000 0.89571  0.23574  0.33200  Biso   1.000  C
  H176     1.0000 0.87420  0.22170  0.33760  Biso   1.000  H
  N173     1.0000 0.82760  0.28330  0.23590  Biso   1.000  N
  N174     1.0000 0.80850  0.26070  0.25810  Biso   1.000  N
  N175     1.0000 0.82980  0.24940  0.28550  Biso   1.000  N
  N176     1.0000 0.86280  0.28470  0.24930  Biso   1.000  N
  C309     1.0000 0.13680  0.23600  0.27960  Biso   1.000  C
  C310     1.0000 0.10436  0.24005  0.30218  Biso   1.000  C
  C311     1.0000 0.07290  0.21952  0.29404  Biso   1.000  C
  H177     1.0000 0.07300  0.20300  0.27370  Biso   1.000  H
  C312     1.0000 0.04144  0.22321  0.31570  Biso   1.000  C
  H178     1.0000 0.02000  0.20920  0.31010  Biso   1.000  H
  C313     1.0000 0.04137  0.24742  0.34553  Biso   1.000  C
  C314     1.0000 0.07280  0.26795  0.35367  Biso   1.000  C
  H179     1.0000 0.07270  0.28450  0.37400  Biso   1.000  H
  C315     1.0000 0.10429  0.26426  0.33200  Biso   1.000  C
  H180     1.0000 0.12580  0.27830  0.33760  Biso   1.000  H
  N177     1.0000 0.17240  0.21670  0.23590  Biso   1.000  N
  N178     1.0000 0.19150  0.23930  0.25810  Biso   1.000  N
  N179     1.0000 0.17020  0.25060  0.28550  Biso   1.000  N
  N180     1.0000 0.13720  0.21530  0.24930  Biso   1.000  N
  C316     1.0000 0.63680  0.73600  0.77960  Biso   1.000  C
  C317     1.0000 0.60436  0.74005  0.80218  Biso   1.000  C
  C318     1.0000 0.57290  0.71952  0.79404  Biso   1.000  C
  H181     1.0000 0.57300  0.70300  0.77370  Biso   1.000  H
  C319     1.0000 0.54144  0.72321  0.81570  Biso   1.000  C
  H182     1.0000 0.52000  0.70920  0.81010  Biso   1.000  H
  C320     1.0000 0.54137  0.74742  0.84553  Biso   1.000  C
  C321     1.0000 0.57280  0.76795  0.85367  Biso   1.000  C
  H183     1.0000 0.57270  0.78450  0.87400  Biso   1.000  H
  C322     1.0000 0.60429  0.76426  0.83200  Biso   1.000  C
  H184     1.0000 0.62580  0.77830  0.83760  Biso   1.000  H
  N181     1.0000 0.67240  0.71670  0.73590  Biso   1.000  N
  N182     1.0000 0.69150  0.73930  0.75810  Biso   1.000  N
  N183     1.0000 0.67020  0.75060  0.78550  Biso   1.000  N
  N184     1.0000 0.63720  0.71530  0.74930  Biso   1.000  N
  C323     1.0000 0.63680  0.26400  0.72040  Biso   1.000  C
  C324     1.0000 0.60436  0.25995  0.69782  Biso   1.000  C
  C325     1.0000 0.57290  0.28048  0.70596  Biso   1.000  C
  H185     1.0000 0.57300  0.29700  0.72630  Biso   1.000  H
  C326     1.0000 0.54144  0.27679  0.68430  Biso   1.000  C
  H186     1.0000 0.52000  0.29080  0.68990  Biso   1.000  H
  C327     1.0000 0.54137  0.25258  0.65447  Biso   1.000  C
  C328     1.0000 0.57280  0.23205  0.64633  Biso   1.000  C
  H187     1.0000 0.57270  0.21550  0.62600  Biso   1.000  H
  C329     1.0000 0.60429  0.23574  0.66800  Biso   1.000  C
  H188     1.0000 0.62580  0.22170  0.66240  Biso   1.000  H
  N185     1.0000 0.67240  0.28330  0.76410  Biso   1.000  N
  N186     1.0000 0.69150  0.26070  0.74190  Biso   1.000  N
  N187     1.0000 0.67020  0.24940  0.71450  Biso   1.000  N
  N188     1.0000 0.63720  0.28470  0.75070  Biso   1.000  N
  C330     1.0000 0.13680  0.76400  0.22040  Biso   1.000  C
  C331     1.0000 0.10436  0.75995  0.19782  Biso   1.000  C
  C332     1.0000 0.07290  0.78048  0.20596  Biso   1.000  C
  H189     1.0000 0.07300  0.79700  0.22630  Biso   1.000  H
  C333     1.0000 0.04144  0.77679  0.18430  Biso   1.000  C
  H190     1.0000 0.02000  0.79080  0.18990  Biso   1.000  H
  C334     1.0000 0.04137  0.75258  0.15447  Biso   1.000  C
  C335     1.0000 0.07280  0.73205  0.14633  Biso   1.000  C
  H191     1.0000 0.07270  0.71550  0.12600  Biso   1.000  H
  C336     1.0000 0.10429  0.73574  0.16800  Biso   1.000  C
  H192     1.0000 0.12580  0.72170  0.16240  Biso   1.000  H
  N189     1.0000 0.17240  0.78330  0.26410  Biso   1.000  N
  N190     1.0000 0.19150  0.76070  0.24190  Biso   1.000  N
  N191     1.0000 0.17020  0.74940  0.21450  Biso   1.000  N
  N192     1.0000 0.13720  0.78470  0.25070  Biso   1.000  N
  C337     1.0000 0.97040  0.51400  0.88680  Biso   1.000  C
  C338     1.0000 0.94782  0.50995  0.85436  Biso   1.000  C
  C339     1.0000 0.95596  0.53048  0.82290  Biso   1.000  C
  H193     1.0000 0.97630  0.54700  0.82300  Biso   1.000  H
  C340     1.0000 0.93430  0.52679  0.79144  Biso   1.000  C
  H194     1.0000 0.93990  0.54080  0.77000  Biso   1.000  H
  C341     1.0000 0.90447  0.50258  0.79137  Biso   1.000  C
  C342     1.0000 0.89633  0.48205  0.82280  Biso   1.000  C
  H195     1.0000 0.87600  0.46550  0.82270  Biso   1.000  H
  C343     1.0000 0.91800  0.48574  0.85429  Biso   1.000  C
  H196     1.0000 0.91240  0.47170  0.87580  Biso   1.000  H
  N193     1.0000 0.01410  0.53330  0.92240  Biso   1.000  N
  N194     1.0000 0.99190  0.51070  0.94150  Biso   1.000  N
  N195     1.0000 0.96450  0.49940  0.92020  Biso   1.000  N
  N196     1.0000 0.00070  0.53470  0.88720  Biso   1.000  N
  C344     1.0000 0.47040  0.01400  0.38680  Biso   1.000  C
  C345     1.0000 0.44782  0.00995  0.35436  Biso   1.000  C
  C346     1.0000 0.45596  0.03048  0.32290  Biso   1.000  C
  H197     1.0000 0.47630  0.04700  0.32300  Biso   1.000  H
  C347     1.0000 0.43430  0.02679  0.29144  Biso   1.000  C
  H198     1.0000 0.43990  0.04080  0.27000  Biso   1.000  H
  C348     1.0000 0.40447  0.00258  0.29137  Biso   1.000  C
  C349     1.0000 0.39633  0.98205  0.32280  Biso   1.000  C
  H199     1.0000 0.37600  0.96550  0.32270  Biso   1.000  H
  C350     1.0000 0.41800  0.98574  0.35429  Biso   1.000  C
  H200     1.0000 0.41240  0.97170  0.37580  Biso   1.000  H
  N197     1.0000 0.51410  0.03330  0.42240  Biso   1.000  N
  N198     1.0000 0.49190  0.01070  0.44150  Biso   1.000  N
  N199     1.0000 0.46450  0.99940  0.42020  Biso   1.000  N
  N200     1.0000 0.50070  0.03470  0.38720  Biso   1.000  N
  C351     1.0000 0.52960  0.48600  0.38680  Biso   1.000  C
  C352     1.0000 0.55218  0.49005  0.35436  Biso   1.000  C
  C353     1.0000 0.54404  0.46952  0.32290  Biso   1.000  C
  H201     1.0000 0.52370  0.45300  0.32300  Biso   1.000  H
  C354     1.0000 0.56570  0.47321  0.29144  Biso   1.000  C
  H202     1.0000 0.56010  0.45920  0.27000  Biso   1.000  H
  C355     1.0000 0.59553  0.49742  0.29137  Biso   1.000  C
  C356     1.0000 0.60367  0.51795  0.32280  Biso   1.000  C
  H203     1.0000 0.62400  0.53450  0.32270  Biso   1.000  H
  C357     1.0000 0.58200  0.51426  0.35429  Biso   1.000  C
  H204     1.0000 0.58760  0.52830  0.37580  Biso   1.000  H
  N201     1.0000 0.48590  0.46670  0.42240  Biso   1.000  N
  N202     1.0000 0.50810  0.48930  0.44150  Biso   1.000  N
  N203     1.0000 0.53550  0.50060  0.42020  Biso   1.000  N
  N204     1.0000 0.49930  0.46530  0.38720  Biso   1.000  N
  C358     1.0000 0.02960  0.98600  0.88680  Biso   1.000  C
  C359     1.0000 0.05218  0.99005  0.85436  Biso   1.000  C
  C360     1.0000 0.04404  0.96952  0.82290  Biso   1.000  C
  H205     1.0000 0.02370  0.95300  0.82300  Biso   1.000  H
  C361     1.0000 0.06570  0.97321  0.79144  Biso   1.000  C
  H206     1.0000 0.06010  0.95920  0.77000  Biso   1.000  H
  C362     1.0000 0.09553  0.99742  0.79137  Biso   1.000  C
  C363     1.0000 0.10367  0.01795  0.82280  Biso   1.000  C
  H207     1.0000 0.12400  0.03450  0.82270  Biso   1.000  H
  C364     1.0000 0.08200  0.01426  0.85429  Biso   1.000  C
  H208     1.0000 0.08760  0.02830  0.87580  Biso   1.000  H
  N205     1.0000 0.98590  0.96670  0.92240  Biso   1.000  N
  N206     1.0000 0.00810  0.98930  0.94150  Biso   1.000  N
  N207     1.0000 0.03550  0.00060  0.92020  Biso   1.000  N
  N208     1.0000 0.99930  0.96530  0.88720  Biso   1.000  N
  C365     1.0000 0.02960  0.01400  0.61320  Biso   1.000  C
  C366     1.0000 0.05218  0.00995  0.64564  Biso   1.000  C
  C367     1.0000 0.04404  0.03048  0.67710  Biso   1.000  C
  H209     1.0000 0.02370  0.04700  0.67700  Biso   1.000  H
  C368     1.0000 0.06570  0.02679  0.70856  Biso   1.000  C
  H210     1.0000 0.06010  0.04080  0.73000  Biso   1.000  H
  C369     1.0000 0.09553  0.00258  0.70863  Biso   1.000  C
  C370     1.0000 0.10367  0.98205  0.67720  Biso   1.000  C
  H211     1.0000 0.12400  0.96550  0.67730  Biso   1.000  H
  C371     1.0000 0.08200  0.98574  0.64571  Biso   1.000  C
  H212     1.0000 0.08760  0.97170  0.62420  Biso   1.000  H
  N209     1.0000 0.98590  0.03330  0.57760  Biso   1.000  N
  N210     1.0000 0.00810  0.01070  0.55850  Biso   1.000  N
  N211     1.0000 0.03550  0.99940  0.57980  Biso   1.000  N
  N212     1.0000 0.99930  0.03470  0.61280  Biso   1.000  N
  C372     1.0000 0.52960  0.51400  0.11320  Biso   1.000  C
  C373     1.0000 0.55218  0.50995  0.14564  Biso   1.000  C
  C374     1.0000 0.54404  0.53048  0.17710  Biso   1.000  C
  H213     1.0000 0.52370  0.54700  0.17700  Biso   1.000  H
  C375     1.0000 0.56570  0.52679  0.20856  Biso   1.000  C
  H214     1.0000 0.56010  0.54080  0.23000  Biso   1.000  H
  C376     1.0000 0.59553  0.50258  0.20863  Biso   1.000  C
  C377     1.0000 0.60367  0.48205  0.17720  Biso   1.000  C
  H215     1.0000 0.62400  0.46550  0.17730  Biso   1.000  H
  C378     1.0000 0.58200  0.48574  0.14571  Biso   1.000  C
  H216     1.0000 0.58760  0.47170  0.12420  Biso   1.000  H
  N213     1.0000 0.48590  0.53330  0.07760  Biso   1.000  N
  N214     1.0000 0.50810  0.51070  0.05850  Biso   1.000  N
  N215     1.0000 0.53550  0.49940  0.07980  Biso   1.000  N
  N216     1.0000 0.49930  0.53470  0.11280  Biso   1.000  N
  C379     1.0000 0.47040  0.98600  0.11320  Biso   1.000  C
  C380     1.0000 0.44782  0.99005  0.14564  Biso   1.000  C
  C381     1.0000 0.45596  0.96952  0.17710  Biso   1.000  C
  H217     1.0000 0.47630  0.95300  0.17700  Biso   1.000  H
  C382     1.0000 0.43430  0.97321  0.20856  Biso   1.000  C
  H218     1.0000 0.43990  0.95920  0.23000  Biso   1.000  H
  C383     1.0000 0.40447  0.99742  0.20863  Biso   1.000  C
  C384     1.0000 0.39633  0.01795  0.17720  Biso   1.000  C
  H219     1.0000 0.37600  0.03450  0.17730  Biso   1.000  H
  C385     1.0000 0.41800  0.01426  0.14571  Biso   1.000  C
  H220     1.0000 0.41240  0.02830  0.12420  Biso   1.000  H
  N217     1.0000 0.51410  0.96670  0.07760  Biso   1.000  N
  N218     1.0000 0.49190  0.98930  0.05850  Biso   1.000  N
  N219     1.0000 0.46450  0.00060  0.07980  Biso   1.000  N
  N220     1.0000 0.50070  0.96530  0.11280  Biso   1.000  N
  C386     1.0000 0.97040  0.48600  0.61320  Biso   1.000  C
  C387     1.0000 0.94782  0.49005  0.64564  Biso   1.000  C
  C388     1.0000 0.95596  0.46952  0.67710  Biso   1.000  C
  H221     1.0000 0.97630  0.45300  0.67700  Biso   1.000  H
  C389     1.0000 0.93430  0.47321  0.70856  Biso   1.000  C
  H222     1.0000 0.93990  0.45920  0.73000  Biso   1.000  H
  C390     1.0000 0.90447  0.49742  0.70863  Biso   1.000  C
  C391     1.0000 0.89633  0.51795  0.67720  Biso   1.000  C
  H223     1.0000 0.87600  0.53450  0.67730  Biso   1.000  H
  C392     1.0000 0.91800  0.51426  0.64571  Biso   1.000  C
  H224     1.0000 0.91240  0.52830  0.62420  Biso   1.000  H
  N221     1.0000 0.01410  0.46670  0.57760  Biso   1.000  N
  N222     1.0000 0.99190  0.48930  0.55850  Biso   1.000  N
  N223     1.0000 0.96450  0.50060  0.57980  Biso   1.000  N
  N224     1.0000 0.00070  0.46530  0.61280  Biso   1.000  N
  C393     1.0000 0.88680  0.97040  0.51400  Biso   1.000  C
  C394     1.0000 0.85436  0.94782  0.50995  Biso   1.000  C
  C395     1.0000 0.82290  0.95596  0.53048  Biso   1.000  C
  H225     1.0000 0.82300  0.97630  0.54700  Biso   1.000  H
  C396     1.0000 0.79144  0.93430  0.52679  Biso   1.000  C
  H226     1.0000 0.77000  0.93990  0.54080  Biso   1.000  H
  C397     1.0000 0.79137  0.90447  0.50258  Biso   1.000  C
  C398     1.0000 0.82280  0.89633  0.48205  Biso   1.000  C
  H227     1.0000 0.82270  0.87600  0.46550  Biso   1.000  H
  C399     1.0000 0.85429  0.91800  0.48574  Biso   1.000  C
  H228     1.0000 0.87580  0.91240  0.47170  Biso   1.000  H
  N225     1.0000 0.92240  0.01410  0.53330  Biso   1.000  N
  N226     1.0000 0.94150  0.99190  0.51070  Biso   1.000  N
  N227     1.0000 0.92020  0.96450  0.49940  Biso   1.000  N
  N228     1.0000 0.88720  0.00070  0.53470  Biso   1.000  N
  C400     1.0000 0.38680  0.47040  0.01400  Biso   1.000  C
  C401     1.0000 0.35436  0.44782  0.00995  Biso   1.000  C
  C402     1.0000 0.32290  0.45596  0.03048  Biso   1.000  C
  H229     1.0000 0.32300  0.47630  0.04700  Biso   1.000  H
  C403     1.0000 0.29144  0.43430  0.02679  Biso   1.000  C
  H230     1.0000 0.27000  0.43990  0.04080  Biso   1.000  H
  C404     1.0000 0.29137  0.40447  0.00258  Biso   1.000  C
  C405     1.0000 0.32280  0.39633  0.98205  Biso   1.000  C
  H231     1.0000 0.32270  0.37600  0.96550  Biso   1.000  H
  C406     1.0000 0.35429  0.41800  0.98574  Biso   1.000  C
  H232     1.0000 0.37580  0.41240  0.97170  Biso   1.000  H
  N229     1.0000 0.42240  0.51410  0.03330  Biso   1.000  N
  N230     1.0000 0.44150  0.49190  0.01070  Biso   1.000  N
  N231     1.0000 0.42020  0.46450  0.99940  Biso   1.000  N
  N232     1.0000 0.38720  0.50070  0.03470  Biso   1.000  N
  C407     1.0000 0.38680  0.52960  0.48600  Biso   1.000  C
  C408     1.0000 0.35436  0.55218  0.49005  Biso   1.000  C
  C409     1.0000 0.32290  0.54404  0.46952  Biso   1.000  C
  H233     1.0000 0.32300  0.52370  0.45300  Biso   1.000  H
  C410     1.0000 0.29144  0.56570  0.47321  Biso   1.000  C
  H234     1.0000 0.27000  0.56010  0.45920  Biso   1.000  H
  C411     1.0000 0.29137  0.59553  0.49742  Biso   1.000  C
  C412     1.0000 0.32280  0.60367  0.51795  Biso   1.000  C
  H235     1.0000 0.32270  0.62400  0.53450  Biso   1.000  H
  C413     1.0000 0.35429  0.58200  0.51426  Biso   1.000  C
  H236     1.0000 0.37580  0.58760  0.52830  Biso   1.000  H
  N233     1.0000 0.42240  0.48590  0.46670  Biso   1.000  N
  N234     1.0000 0.44150  0.50810  0.48930  Biso   1.000  N
  N235     1.0000 0.42020  0.53550  0.50060  Biso   1.000  N
  N236     1.0000 0.38720  0.49930  0.46530  Biso   1.000  N
  C414     1.0000 0.88680  0.02960  0.98600  Biso   1.000  C
  C415     1.0000 0.85436  0.05218  0.99005  Biso   1.000  C
  C416     1.0000 0.82290  0.04404  0.96952  Biso   1.000  C
  H237     1.0000 0.82300  0.02370  0.95300  Biso   1.000  H
  C417     1.0000 0.79144  0.06570  0.97321  Biso   1.000  C
  H238     1.0000 0.77000  0.06010  0.95920  Biso   1.000  H
  C418     1.0000 0.79137  0.09553  0.99742  Biso   1.000  C
  C419     1.0000 0.82280  0.10367  0.01795  Biso   1.000  C
  H239     1.0000 0.82270  0.12400  0.03450  Biso   1.000  H
  C420     1.0000 0.85429  0.08200  0.01426  Biso   1.000  C
  H240     1.0000 0.87580  0.08760  0.02830  Biso   1.000  H
  N237     1.0000 0.92240  0.98590  0.96670  Biso   1.000  N
  N238     1.0000 0.94150  0.00810  0.98930  Biso   1.000  N
  N239     1.0000 0.92020  0.03550  0.00060  Biso   1.000  N
  N240     1.0000 0.88720  0.99930  0.96530  Biso   1.000  N
  C421     1.0000 0.61320  0.02960  0.01400  Biso   1.000  C
  C422     1.0000 0.64564  0.05218  0.00995  Biso   1.000  C
  C423     1.0000 0.67710  0.04404  0.03048  Biso   1.000  C
  H241     1.0000 0.67700  0.02370  0.04700  Biso   1.000  H
  C424     1.0000 0.70856  0.06570  0.02679  Biso   1.000  C
  H242     1.0000 0.73000  0.06010  0.04080  Biso   1.000  H
  C425     1.0000 0.70863  0.09553  0.00258  Biso   1.000  C
  C426     1.0000 0.67720  0.10367  0.98205  Biso   1.000  C
  H243     1.0000 0.67730  0.12400  0.96550  Biso   1.000  H
  C427     1.0000 0.64571  0.08200  0.98574  Biso   1.000  C
  H244     1.0000 0.62420  0.08760  0.97170  Biso   1.000  H
  N241     1.0000 0.57760  0.98590  0.03330  Biso   1.000  N
  N242     1.0000 0.55850  0.00810  0.01070  Biso   1.000  N
  N243     1.0000 0.57980  0.03550  0.99940  Biso   1.000  N
  N244     1.0000 0.61280  0.99930  0.03470  Biso   1.000  N
  C428     1.0000 0.11320  0.52960  0.51400  Biso   1.000  C
  C429     1.0000 0.14564  0.55218  0.50995  Biso   1.000  C
  C430     1.0000 0.17710  0.54404  0.53048  Biso   1.000  C
  H245     1.0000 0.17700  0.52370  0.54700  Biso   1.000  H
  C431     1.0000 0.20856  0.56570  0.52679  Biso   1.000  C
  H246     1.0000 0.23000  0.56010  0.54080  Biso   1.000  H
  C432     1.0000 0.20863  0.59553  0.50258  Biso   1.000  C
  C433     1.0000 0.17720  0.60367  0.48205  Biso   1.000  C
  H247     1.0000 0.17730  0.62400  0.46550  Biso   1.000  H
  C434     1.0000 0.14571  0.58200  0.48574  Biso   1.000  C
  H248     1.0000 0.12420  0.58760  0.47170  Biso   1.000  H
  N245     1.0000 0.07760  0.48590  0.53330  Biso   1.000  N
  N246     1.0000 0.05850  0.50810  0.51070  Biso   1.000  N
  N247     1.0000 0.07980  0.53550  0.49940  Biso   1.000  N
  N248     1.0000 0.11280  0.49930  0.53470  Biso   1.000  N
  C435     1.0000 0.11320  0.47040  0.98600  Biso   1.000  C
  C436     1.0000 0.14564  0.44782  0.99005  Biso   1.000  C
  C437     1.0000 0.17710  0.45596  0.96952  Biso   1.000  C
  H249     1.0000 0.17700  0.47630  0.95300  Biso   1.000  H
  C438     1.0000 0.20856  0.43430  0.97321  Biso   1.000  C
  H250     1.0000 0.23000  0.43990  0.95920  Biso   1.000  H
  C439     1.0000 0.20863  0.40447  0.99742  Biso   1.000  C
  C440     1.0000 0.17720  0.39633  0.01795  Biso   1.000  C
  H251     1.0000 0.17730  0.37600  0.03450  Biso   1.000  H
  C441     1.0000 0.14571  0.41800  0.01426  Biso   1.000  C
  H252     1.0000 0.12420  0.41240  0.02830  Biso   1.000  H
  N249     1.0000 0.07760  0.51410  0.96670  Biso   1.000  N
  N250     1.0000 0.05850  0.49190  0.98930  Biso   1.000  N
  N251     1.0000 0.07980  0.46450  0.00060  Biso   1.000  N
  N252     1.0000 0.11280  0.50070  0.96530  Biso   1.000  N
  C442     1.0000 0.61320  0.97040  0.48600  Biso   1.000  C
  C443     1.0000 0.64564  0.94782  0.49005  Biso   1.000  C
  C444     1.0000 0.67710  0.95596  0.46952  Biso   1.000  C
  H253     1.0000 0.67700  0.97630  0.45300  Biso   1.000  H
  C445     1.0000 0.70856  0.93430  0.47321  Biso   1.000  C
  H254     1.0000 0.73000  0.93990  0.45920  Biso   1.000  H
  C446     1.0000 0.70863  0.90447  0.49742  Biso   1.000  C
  C447     1.0000 0.67720  0.89633  0.51795  Biso   1.000  C
  H255     1.0000 0.67730  0.87600  0.53450  Biso   1.000  H
  C448     1.0000 0.64571  0.91800  0.51426  Biso   1.000  C
  H256     1.0000 0.62420  0.91240  0.52830  Biso   1.000  H
  N253     1.0000 0.57760  0.01410  0.46670  Biso   1.000  N
  N254     1.0000 0.55850  0.99190  0.48930  Biso   1.000  N
  N255     1.0000 0.57980  0.96450  0.50060  Biso   1.000  N
  N256     1.0000 0.61280  0.00070  0.46530  Biso   1.000  N
  C449     1.0000 0.51400  0.88680  0.97040  Biso   1.000  C
  C450     1.0000 0.50995  0.85436  0.94782  Biso   1.000  C
  C451     1.0000 0.53048  0.82290  0.95596  Biso   1.000  C
  H257     1.0000 0.54700  0.82300  0.97630  Biso   1.000  H
  C452     1.0000 0.52679  0.79144  0.93430  Biso   1.000  C
  H258     1.0000 0.54080  0.77000  0.93990  Biso   1.000  H
  C453     1.0000 0.50258  0.79137  0.90447  Biso   1.000  C
  C454     1.0000 0.48205  0.82280  0.89633  Biso   1.000  C
  H259     1.0000 0.46550  0.82270  0.87600  Biso   1.000  H
  C455     1.0000 0.48574  0.85429  0.91800  Biso   1.000  C
  H260     1.0000 0.47170  0.87580  0.91240  Biso   1.000  H
  N257     1.0000 0.53330  0.92240  0.01410  Biso   1.000  N
  N258     1.0000 0.51070  0.94150  0.99190  Biso   1.000  N
  N259     1.0000 0.49940  0.92020  0.96450  Biso   1.000  N
  N260     1.0000 0.53470  0.88720  0.00070  Biso   1.000  N
  C456     1.0000 0.01400  0.38680  0.47040  Biso   1.000  C
  C457     1.0000 0.00995  0.35436  0.44782  Biso   1.000  C
  C458     1.0000 0.03048  0.32290  0.45596  Biso   1.000  C
  H261     1.0000 0.04700  0.32300  0.47630  Biso   1.000  H
  C459     1.0000 0.02679  0.29144  0.43430  Biso   1.000  C
  H262     1.0000 0.04080  0.27000  0.43990  Biso   1.000  H
  C460     1.0000 0.00258  0.29137  0.40447  Biso   1.000  C
  C461     1.0000 0.98205  0.32280  0.39633  Biso   1.000  C
  H263     1.0000 0.96550  0.32270  0.37600  Biso   1.000  H
  C462     1.0000 0.98574  0.35429  0.41800  Biso   1.000  C
  H264     1.0000 0.97170  0.37580  0.41240  Biso   1.000  H
  N261     1.0000 0.03330  0.42240  0.51410  Biso   1.000  N
  N262     1.0000 0.01070  0.44150  0.49190  Biso   1.000  N
  N263     1.0000 0.99940  0.42020  0.46450  Biso   1.000  N
  N264     1.0000 0.03470  0.38720  0.50070  Biso   1.000  N
  C463     1.0000 0.48600  0.38680  0.52960  Biso   1.000  C
  C464     1.0000 0.49005  0.35436  0.55218  Biso   1.000  C
  C465     1.0000 0.46952  0.32290  0.54404  Biso   1.000  C
  H265     1.0000 0.45300  0.32300  0.52370  Biso   1.000  H
  C466     1.0000 0.47321  0.29144  0.56570  Biso   1.000  C
  H266     1.0000 0.45920  0.27000  0.56010  Biso   1.000  H
  C467     1.0000 0.49742  0.29137  0.59553  Biso   1.000  C
  C468     1.0000 0.51795  0.32280  0.60367  Biso   1.000  C
  H267     1.0000 0.53450  0.32270  0.62400  Biso   1.000  H
  C469     1.0000 0.51426  0.35429  0.58200  Biso   1.000  C
  H268     1.0000 0.52830  0.37580  0.58760  Biso   1.000  H
  N265     1.0000 0.46670  0.42240  0.48590  Biso   1.000  N
  N266     1.0000 0.48930  0.44150  0.50810  Biso   1.000  N
  N267     1.0000 0.50060  0.42020  0.53550  Biso   1.000  N
  N268     1.0000 0.46530  0.38720  0.49930  Biso   1.000  N
  C470     1.0000 0.98600  0.88680  0.02960  Biso   1.000  C
  C471     1.0000 0.99005  0.85436  0.05218  Biso   1.000  C
  C472     1.0000 0.96952  0.82290  0.04404  Biso   1.000  C
  H269     1.0000 0.95300  0.82300  0.02370  Biso   1.000  H
  C473     1.0000 0.97321  0.79144  0.06570  Biso   1.000  C
  H270     1.0000 0.95920  0.77000  0.06010  Biso   1.000  H
  C474     1.0000 0.99742  0.79137  0.09553  Biso   1.000  C
  C475     1.0000 0.01795  0.82280  0.10367  Biso   1.000  C
  H271     1.0000 0.03450  0.82270  0.12400  Biso   1.000  H
  C476     1.0000 0.01426  0.85429  0.08200  Biso   1.000  C
  H272     1.0000 0.02830  0.87580  0.08760  Biso   1.000  H
  N269     1.0000 0.96670  0.92240  0.98590  Biso   1.000  N
  N270     1.0000 0.98930  0.94150  0.00810  Biso   1.000  N
  N271     1.0000 0.00060  0.92020  0.03550  Biso   1.000  N
  N272     1.0000 0.96530  0.88720  0.99930  Biso   1.000  N
  C477     1.0000 0.01400  0.61320  0.02960  Biso   1.000  C
  C478     1.0000 0.00995  0.64564  0.05218  Biso   1.000  C
  C479     1.0000 0.03048  0.67710  0.04404  Biso   1.000  C
  H273     1.0000 0.04700  0.67700  0.02370  Biso   1.000  H
  C480     1.0000 0.02679  0.70856  0.06570  Biso   1.000  C
  H274     1.0000 0.04080  0.73000  0.06010  Biso   1.000  H
  C481     1.0000 0.00258  0.70863  0.09553  Biso   1.000  C
  C482     1.0000 0.98205  0.67720  0.10367  Biso   1.000  C
  H275     1.0000 0.96550  0.67730  0.12400  Biso   1.000  H
  C483     1.0000 0.98574  0.64571  0.08200  Biso   1.000  C
  H276     1.0000 0.97170  0.62420  0.08760  Biso   1.000  H
  N273     1.0000 0.03330  0.57760  0.98590  Biso   1.000  N
  N274     1.0000 0.01070  0.55850  0.00810  Biso   1.000  N
  N275     1.0000 0.99940  0.57980  0.03550  Biso   1.000  N
  N276     1.0000 0.03470  0.61280  0.99930  Biso   1.000  N
  C484     1.0000 0.51400  0.11320  0.52960  Biso   1.000  C
  C485     1.0000 0.50995  0.14564  0.55218  Biso   1.000  C
  C486     1.0000 0.53048  0.17710  0.54404  Biso   1.000  C
  H277     1.0000 0.54700  0.17700  0.52370  Biso   1.000  H
  C487     1.0000 0.52679  0.20856  0.56570  Biso   1.000  C
  H278     1.0000 0.54080  0.23000  0.56010  Biso   1.000  H
  C488     1.0000 0.50258  0.20863  0.59553  Biso   1.000  C
  C489     1.0000 0.48205  0.17720  0.60367  Biso   1.000  C
  H279     1.0000 0.46550  0.17730  0.62400  Biso   1.000  H
  C490     1.0000 0.48574  0.14571  0.58200  Biso   1.000  C
  H280     1.0000 0.47170  0.12420  0.58760  Biso   1.000  H
  N277     1.0000 0.53330  0.07760  0.48590  Biso   1.000  N
  N278     1.0000 0.51070  0.05850  0.50810  Biso   1.000  N
  N279     1.0000 0.49940  0.07980  0.53550  Biso   1.000  N
  N280     1.0000 0.53470  0.11280  0.49930  Biso   1.000  N
  C491     1.0000 0.98600  0.11320  0.47040  Biso   1.000  C
  C492     1.0000 0.99005  0.14564  0.44782  Biso   1.000  C
  C493     1.0000 0.96952  0.17710  0.45596  Biso   1.000  C
  H281     1.0000 0.95300  0.17700  0.47630  Biso   1.000  H
  C494     1.0000 0.97321  0.20856  0.43430  Biso   1.000  C
  H282     1.0000 0.95920  0.23000  0.43990  Biso   1.000  H
  C495     1.0000 0.99742  0.20863  0.40447  Biso   1.000  C
  C496     1.0000 0.01795  0.17720  0.39633  Biso   1.000  C
  H283     1.0000 0.03450  0.17730  0.37600  Biso   1.000  H
  C497     1.0000 0.01426  0.14571  0.41800  Biso   1.000  C
  H284     1.0000 0.02830  0.12420  0.41240  Biso   1.000  H
  N281     1.0000 0.96670  0.07760  0.51410  Biso   1.000  N
  N282     1.0000 0.98930  0.05850  0.49190  Biso   1.000  N
  N283     1.0000 0.00060  0.07980  0.46450  Biso   1.000  N
  N284     1.0000 0.96530  0.11280  0.50070  Biso   1.000  N
  C498     1.0000 0.48600  0.61320  0.97040  Biso   1.000  C
  C499     1.0000 0.49005  0.64564  0.94782  Biso   1.000  C
  C500     1.0000 0.46952  0.67710  0.95596  Biso   1.000  C
  H285     1.0000 0.45300  0.67700  0.97630  Biso   1.000  H
  C501     1.0000 0.47321  0.70856  0.93430  Biso   1.000  C
  H286     1.0000 0.45920  0.73000  0.93990  Biso   1.000  H
  C502     1.0000 0.49742  0.70863  0.90447  Biso   1.000  C
  C503     1.0000 0.51795  0.67720  0.89633  Biso   1.000  C
  H287     1.0000 0.53450  0.67730  0.87600  Biso   1.000  H
  C504     1.0000 0.51426  0.64571  0.91800  Biso   1.000  C
  H288     1.0000 0.52830  0.62420  0.91240  Biso   1.000  H
  N285     1.0000 0.46670  0.57760  0.01410  Biso   1.000  N
  N286     1.0000 0.48930  0.55850  0.99190  Biso   1.000  N
  N287     1.0000 0.50060  0.57980  0.96450  Biso   1.000  N
  N288     1.0000 0.46530  0.61280  0.00070  Biso   1.000  N
  C505     1.0000 0.76400  0.72040  0.86320  Biso   1.000  C
  C506     1.0000 0.75995  0.69782  0.89564  Biso   1.000  C
  C507     1.0000 0.78048  0.70596  0.92710  Biso   1.000  C
  H289     1.0000 0.79700  0.72630  0.92700  Biso   1.000  H
  C508     1.0000 0.77679  0.68430  0.95856  Biso   1.000  C
  H290     1.0000 0.79080  0.68990  0.98000  Biso   1.000  H
  C509     1.0000 0.75258  0.65447  0.95863  Biso   1.000  C
  C510     1.0000 0.73205  0.64633  0.92720  Biso   1.000  C
  H291     1.0000 0.71550  0.62600  0.92730  Biso   1.000  H
  C511     1.0000 0.73574  0.66800  0.89571  Biso   1.000  C
  H292     1.0000 0.72170  0.66240  0.87420  Biso   1.000  H
  N289     1.0000 0.78330  0.76410  0.82760  Biso   1.000  N
  N290     1.0000 0.76070  0.74190  0.80850  Biso   1.000  N
  N291     1.0000 0.74940  0.71450  0.82980  Biso   1.000  N
  N292     1.0000 0.78470  0.75070  0.86280  Biso   1.000  N
  C512     1.0000 0.26400  0.22040  0.36320  Biso   1.000  C
  C513     1.0000 0.25995  0.19782  0.39564  Biso   1.000  C
  C514     1.0000 0.28048  0.20596  0.42710  Biso   1.000  C
  H293     1.0000 0.29700  0.22630  0.42700  Biso   1.000  H
  C515     1.0000 0.27679  0.18430  0.45856  Biso   1.000  C
  H294     1.0000 0.29080  0.18990  0.48000  Biso   1.000  H
  C516     1.0000 0.25258  0.15447  0.45863  Biso   1.000  C
  C517     1.0000 0.23205  0.14633  0.42720  Biso   1.000  C
  H295     1.0000 0.21550  0.12600  0.42730  Biso   1.000  H
  C518     1.0000 0.23574  0.16800  0.39571  Biso   1.000  C
  H296     1.0000 0.22170  0.16240  0.37420  Biso   1.000  H
  N293     1.0000 0.28330  0.26410  0.32760  Biso   1.000  N
  N294     1.0000 0.26070  0.24190  0.30850  Biso   1.000  N
  N295     1.0000 0.24940  0.21450  0.32980  Biso   1.000  N
  N296     1.0000 0.28470  0.25070  0.36280  Biso   1.000  N
  C519     1.0000 0.73600  0.27960  0.36320  Biso   1.000  C
  C520     1.0000 0.74005  0.30218  0.39564  Biso   1.000  C
  C521     1.0000 0.71952  0.29404  0.42710  Biso   1.000  C
  H297     1.0000 0.70300  0.27370  0.42700  Biso   1.000  H
  C522     1.0000 0.72321  0.31570  0.45856  Biso   1.000  C
  H298     1.0000 0.70920  0.31010  0.48000  Biso   1.000  H
  C523     1.0000 0.74742  0.34553  0.45863  Biso   1.000  C
  C524     1.0000 0.76795  0.35367  0.42720  Biso   1.000  C
  H299     1.0000 0.78450  0.37400  0.42730  Biso   1.000  H
  C525     1.0000 0.76426  0.33200  0.39571  Biso   1.000  C
  H300     1.0000 0.77830  0.33760  0.37420  Biso   1.000  H
  N297     1.0000 0.71670  0.23590  0.32760  Biso   1.000  N
  N298     1.0000 0.73930  0.25810  0.30850  Biso   1.000  N
  N299     1.0000 0.75060  0.28550  0.32980  Biso   1.000  N
  N300     1.0000 0.71530  0.24930  0.36280  Biso   1.000  N
  C526     1.0000 0.23600  0.77960  0.86320  Biso   1.000  C
  C527     1.0000 0.24005  0.80218  0.89564  Biso   1.000  C
  C528     1.0000 0.21952  0.79404  0.92710  Biso   1.000  C
  H301     1.0000 0.20300  0.77370  0.92700  Biso   1.000  H
  C529     1.0000 0.22321  0.81570  0.95856  Biso   1.000  C
  H302     1.0000 0.20920  0.81010  0.98000  Biso   1.000  H
  C530     1.0000 0.24742  0.84553  0.95863  Biso   1.000  C
  C531     1.0000 0.26795  0.85367  0.92720  Biso   1.000  C
  H303     1.0000 0.28450  0.87400  0.92730  Biso   1.000  H
  C532     1.0000 0.26426  0.83200  0.89571  Biso   1.000  C
  H304     1.0000 0.27830  0.83760  0.87420  Biso   1.000  H
  N301     1.0000 0.21670  0.73590  0.82760  Biso   1.000  N
  N302     1.0000 0.23930  0.75810  0.80850  Biso   1.000  N
  N303     1.0000 0.25060  0.78550  0.82980  Biso   1.000  N
  N304     1.0000 0.21530  0.74930  0.86280  Biso   1.000  N
  C533     1.0000 0.26400  0.77960  0.13680  Biso   1.000  C
  C534     1.0000 0.25995  0.80218  0.10436  Biso   1.000  C
  C535     1.0000 0.28048  0.79404  0.07290  Biso   1.000  C
  H305     1.0000 0.29700  0.77370  0.07300  Biso   1.000  H
  C536     1.0000 0.27679  0.81570  0.04144  Biso   1.000  C
  H306     1.0000 0.29080  0.81010  0.02000  Biso   1.000  H
  C537     1.0000 0.25258  0.84553  0.04137  Biso   1.000  C
  C538     1.0000 0.23205  0.85367  0.07280  Biso   1.000  C
  H307     1.0000 0.21550  0.87400  0.07270  Biso   1.000  H
  C539     1.0000 0.23574  0.83200  0.10429  Biso   1.000  C
  H308     1.0000 0.22170  0.83760  0.12580  Biso   1.000  H
  N305     1.0000 0.28330  0.73590  0.17240  Biso   1.000  N
  N306     1.0000 0.26070  0.75810  0.19150  Biso   1.000  N
  N307     1.0000 0.24940  0.78550  0.17020  Biso   1.000  N
  N308     1.0000 0.28470  0.74930  0.13720  Biso   1.000  N
  C540     1.0000 0.76400  0.27960  0.63680  Biso   1.000  C
  C541     1.0000 0.75995  0.30218  0.60436  Biso   1.000  C
  C542     1.0000 0.78048  0.29404  0.57290  Biso   1.000  C
  H309     1.0000 0.79700  0.27370  0.57300  Biso   1.000  H
  C543     1.0000 0.77679  0.31570  0.54144  Biso   1.000  C
  H310     1.0000 0.79080  0.31010  0.52000  Biso   1.000  H
  C544     1.0000 0.75258  0.34553  0.54137  Biso   1.000  C
  C545     1.0000 0.73205  0.35367  0.57280  Biso   1.000  C
  H311     1.0000 0.71550  0.37400  0.57270  Biso   1.000  H
  C546     1.0000 0.73574  0.33200  0.60429  Biso   1.000  C
  H312     1.0000 0.72170  0.33760  0.62580  Biso   1.000  H
  N309     1.0000 0.78330  0.23590  0.67240  Biso   1.000  N
  N310     1.0000 0.76070  0.25810  0.69150  Biso   1.000  N
  N311     1.0000 0.74940  0.28550  0.67020  Biso   1.000  N
  N312     1.0000 0.78470  0.24930  0.63720  Biso   1.000  N
  C547     1.0000 0.23600  0.22040  0.63680  Biso   1.000  C
  C548     1.0000 0.24005  0.19782  0.60436  Biso   1.000  C
  C549     1.0000 0.21952  0.20596  0.57290  Biso   1.000  C
  H313     1.0000 0.20300  0.22630  0.57300  Biso   1.000  H
  C550     1.0000 0.22321  0.18430  0.54144  Biso   1.000  C
  H314     1.0000 0.20920  0.18990  0.52000  Biso   1.000  H
  C551     1.0000 0.24742  0.15447  0.54137  Biso   1.000  C
  C552     1.0000 0.26795  0.14633  0.57280  Biso   1.000  C
  H315     1.0000 0.28450  0.12600  0.57270  Biso   1.000  H
  C553     1.0000 0.26426  0.16800  0.60429  Biso   1.000  C
  H316     1.0000 0.27830  0.16240  0.62580  Biso   1.000  H
  N313     1.0000 0.21670  0.26410  0.67240  Biso   1.000  N
  N314     1.0000 0.23930  0.24190  0.69150  Biso   1.000  N
  N315     1.0000 0.25060  0.21450  0.67020  Biso   1.000  N
  N316     1.0000 0.21530  0.25070  0.63720  Biso   1.000  N
  C554     1.0000 0.73600  0.72040  0.13680  Biso   1.000  C
  C555     1.0000 0.74005  0.69782  0.10436  Biso   1.000  C
  C556     1.0000 0.71952  0.70596  0.07290  Biso   1.000  C
  H317     1.0000 0.70300  0.72630  0.07300  Biso   1.000  H
  C557     1.0000 0.72321  0.68430  0.04144  Biso   1.000  C
  H318     1.0000 0.70920  0.68990  0.02000  Biso   1.000  H
  C558     1.0000 0.74742  0.65447  0.04137  Biso   1.000  C
  C559     1.0000 0.76795  0.64633  0.07280  Biso   1.000  C
  H319     1.0000 0.78450  0.62600  0.07270  Biso   1.000  H
  C560     1.0000 0.76426  0.66800  0.10429  Biso   1.000  C
  H320     1.0000 0.77830  0.66240  0.12580  Biso   1.000  H
  N317     1.0000 0.71670  0.76410  0.17240  Biso   1.000  N
  N318     1.0000 0.73930  0.74190  0.19150  Biso   1.000  N
  N319     1.0000 0.75060  0.71450  0.17020  Biso   1.000  N
  N320     1.0000 0.71530  0.75070  0.13720  Biso   1.000  N
  C561     1.0000 0.22040  0.63680  0.23600  Biso   1.000  C
  C562     1.0000 0.19782  0.60436  0.24005  Biso   1.000  C
  C563     1.0000 0.20596  0.57290  0.21952  Biso   1.000  C
  H321     1.0000 0.22630  0.57300  0.20300  Biso   1.000  H
  C564     1.0000 0.18430  0.54144  0.22321  Biso   1.000  C
  H322     1.0000 0.18990  0.52000  0.20920  Biso   1.000  H
  C565     1.0000 0.15447  0.54137  0.24742  Biso   1.000  C
  C566     1.0000 0.14633  0.57280  0.26795  Biso   1.000  C
  H323     1.0000 0.12600  0.57270  0.28450  Biso   1.000  H
  C567     1.0000 0.16800  0.60429  0.26426  Biso   1.000  C
  H324     1.0000 0.16240  0.62580  0.27830  Biso   1.000  H
  N321     1.0000 0.26410  0.67240  0.21670  Biso   1.000  N
  N322     1.0000 0.24190  0.69150  0.23930  Biso   1.000  N
  N323     1.0000 0.21450  0.67020  0.25060  Biso   1.000  N
  N324     1.0000 0.25070  0.63720  0.21530  Biso   1.000  N
  C568     1.0000 0.72040  0.13680  0.73600  Biso   1.000  C
  C569     1.0000 0.69782  0.10436  0.74005  Biso   1.000  C
  C570     1.0000 0.70596  0.07290  0.71952  Biso   1.000  C
  H325     1.0000 0.72630  0.07300  0.70300  Biso   1.000  H
  C571     1.0000 0.68430  0.04144  0.72321  Biso   1.000  C
  H326     1.0000 0.68990  0.02000  0.70920  Biso   1.000  H
  C572     1.0000 0.65447  0.04137  0.74742  Biso   1.000  C
  C573     1.0000 0.64633  0.07280  0.76795  Biso   1.000  C
  H327     1.0000 0.62600  0.07270  0.78450  Biso   1.000  H
  C574     1.0000 0.66800  0.10429  0.76426  Biso   1.000  C
  H328     1.0000 0.66240  0.12580  0.77830  Biso   1.000  H
  N325     1.0000 0.76410  0.17240  0.71670  Biso   1.000  N
  N326     1.0000 0.74190  0.19150  0.73930  Biso   1.000  N
  N327     1.0000 0.71450  0.17020  0.75060  Biso   1.000  N
  N328     1.0000 0.75070  0.13720  0.71530  Biso   1.000  N
  C575     1.0000 0.77960  0.13680  0.26400  Biso   1.000  C
  C576     1.0000 0.80218  0.10436  0.25995  Biso   1.000  C
  C577     1.0000 0.79404  0.07290  0.28048  Biso   1.000  C
  H329     1.0000 0.77370  0.07300  0.29700  Biso   1.000  H
  C578     1.0000 0.81570  0.04144  0.27679  Biso   1.000  C
  H330     1.0000 0.81010  0.02000  0.29080  Biso   1.000  H
  C579     1.0000 0.84553  0.04137  0.25258  Biso   1.000  C
  C580     1.0000 0.85367  0.07280  0.23205  Biso   1.000  C
  H331     1.0000 0.87400  0.07270  0.21550  Biso   1.000  H
  C581     1.0000 0.83200  0.10429  0.23574  Biso   1.000  C
  H332     1.0000 0.83760  0.12580  0.22170  Biso   1.000  H
  N329     1.0000 0.73590  0.17240  0.28330  Biso   1.000  N
  N330     1.0000 0.75810  0.19150  0.26070  Biso   1.000  N
  N331     1.0000 0.78550  0.17020  0.24940  Biso   1.000  N
  N332     1.0000 0.74930  0.13720  0.28470  Biso   1.000  N
  C582     1.0000 0.27960  0.63680  0.76400  Biso   1.000  C
  C583     1.0000 0.30218  0.60436  0.75995  Biso   1.000  C
  C584     1.0000 0.29404  0.57290  0.78048  Biso   1.000  C
  H333     1.0000 0.27370  0.57300  0.79700  Biso   1.000  H
  C585     1.0000 0.31570  0.54144  0.77679  Biso   1.000  C
  H334     1.0000 0.31010  0.52000  0.79080  Biso   1.000  H
  C586     1.0000 0.34553  0.54137  0.75258  Biso   1.000  C
  C587     1.0000 0.35367  0.57280  0.73205  Biso   1.000  C
  H335     1.0000 0.37400  0.57270  0.71550  Biso   1.000  H
  C588     1.0000 0.33200  0.60429  0.73574  Biso   1.000  C
  H336     1.0000 0.33760  0.62580  0.72170  Biso   1.000  H
  N333     1.0000 0.23590  0.67240  0.78330  Biso   1.000  N
  N334     1.0000 0.25810  0.69150  0.76070  Biso   1.000  N
  N335     1.0000 0.28550  0.67020  0.74940  Biso   1.000  N
  N336     1.0000 0.24930  0.63720  0.78470  Biso   1.000  N
  C589     1.0000 0.27960  0.36320  0.73600  Biso   1.000  C
  C590     1.0000 0.30218  0.39564  0.74005  Biso   1.000  C
  C591     1.0000 0.29404  0.42710  0.71952  Biso   1.000  C
  H337     1.0000 0.27370  0.42700  0.70300  Biso   1.000  H
  C592     1.0000 0.31570  0.45856  0.72321  Biso   1.000  C
  H338     1.0000 0.31010  0.48000  0.70920  Biso   1.000  H
  C593     1.0000 0.34553  0.45863  0.74742  Biso   1.000  C
  C594     1.0000 0.35367  0.42720  0.76795  Biso   1.000  C
  H339     1.0000 0.37400  0.42730  0.78450  Biso   1.000  H
  C595     1.0000 0.33200  0.39571  0.76426  Biso   1.000  C
  H340     1.0000 0.33760  0.37420  0.77830  Biso   1.000  H
  N337     1.0000 0.23590  0.32760  0.71670  Biso   1.000  N
  N338     1.0000 0.25810  0.30850  0.73930  Biso   1.000  N
  N339     1.0000 0.28550  0.32980  0.75060  Biso   1.000  N
  N340     1.0000 0.24930  0.36280  0.71530  Biso   1.000  N
  C596     1.0000 0.77960  0.86320  0.23600  Biso   1.000  C
  C597     1.0000 0.80218  0.89564  0.24005  Biso   1.000  C
  C598     1.0000 0.79404  0.92710  0.21952  Biso   1.000  C
  H341     1.0000 0.77370  0.92700  0.20300  Biso   1.000  H
  C599     1.0000 0.81570  0.95856  0.22321  Biso   1.000  C
  H342     1.0000 0.81010  0.98000  0.20920  Biso   1.000  H
  C600     1.0000 0.84553  0.95863  0.24742  Biso   1.000  C
  C601     1.0000 0.85367  0.92720  0.26795  Biso   1.000  C
  H343     1.0000 0.87400  0.92730  0.28450  Biso   1.000  H
  C602     1.0000 0.83200  0.89571  0.26426  Biso   1.000  C
  H344     1.0000 0.83760  0.87420  0.27830  Biso   1.000  H
  N341     1.0000 0.73590  0.82760  0.21670  Biso   1.000  N
  N342     1.0000 0.75810  0.80850  0.23930  Biso   1.000  N
  N343     1.0000 0.78550  0.82980  0.25060  Biso   1.000  N
  N344     1.0000 0.74930  0.86280  0.21530  Biso   1.000  N
  C603     1.0000 0.72040  0.86320  0.76400  Biso   1.000  C
  C604     1.0000 0.69782  0.89564  0.75995  Biso   1.000  C
  C605     1.0000 0.70596  0.92710  0.78048  Biso   1.000  C
  H345     1.0000 0.72630  0.92700  0.79700  Biso   1.000  H
  C606     1.0000 0.68430  0.95856  0.77679  Biso   1.000  C
  H346     1.0000 0.68990  0.98000  0.79080  Biso   1.000  H
  C607     1.0000 0.65447  0.95863  0.75258  Biso   1.000  C
  C608     1.0000 0.64633  0.92720  0.73205  Biso   1.000  C
  H347     1.0000 0.62600  0.92730  0.71550  Biso   1.000  H
  C609     1.0000 0.66800  0.89571  0.73574  Biso   1.000  C
  H348     1.0000 0.66240  0.87420  0.72170  Biso   1.000  H
  N345     1.0000 0.76410  0.82760  0.78330  Biso   1.000  N
  N346     1.0000 0.74190  0.80850  0.76070  Biso   1.000  N
  N347     1.0000 0.71450  0.82980  0.74940  Biso   1.000  N
  N348     1.0000 0.75070  0.86280  0.78470  Biso   1.000  N
  C610     1.0000 0.22040  0.36320  0.26400  Biso   1.000  C
  C611     1.0000 0.19782  0.39564  0.25995  Biso   1.000  C
  C612     1.0000 0.20596  0.42710  0.28048  Biso   1.000  C
  H349     1.0000 0.22630  0.42700  0.29700  Biso   1.000  H
  C613     1.0000 0.18430  0.45856  0.27679  Biso   1.000  C
  H350     1.0000 0.18990  0.48000  0.29080  Biso   1.000  H
  C614     1.0000 0.15447  0.45863  0.25258  Biso   1.000  C
  C615     1.0000 0.14633  0.42720  0.23205  Biso   1.000  C
  H351     1.0000 0.12600  0.42730  0.21550  Biso   1.000  H
  C616     1.0000 0.16800  0.39571  0.23574  Biso   1.000  C
  H352     1.0000 0.16240  0.37420  0.22170  Biso   1.000  H
  N349     1.0000 0.26410  0.32760  0.28330  Biso   1.000  N
  N350     1.0000 0.24190  0.30850  0.26070  Biso   1.000  N
  N351     1.0000 0.21450  0.32980  0.24940  Biso   1.000  N
  N352     1.0000 0.25070  0.36280  0.28470  Biso   1.000  N
  C617     1.0000 0.13680  0.26400  0.77960  Biso   1.000  C
  C618     1.0000 0.10436  0.25995  0.80218  Biso   1.000  C
  C619     1.0000 0.07290  0.28048  0.79404  Biso   1.000  C
  H353     1.0000 0.07300  0.29700  0.77370  Biso   1.000  H
  C620     1.0000 0.04144  0.27679  0.81570  Biso   1.000  C
  H354     1.0000 0.02000  0.29080  0.81010  Biso   1.000  H
  C621     1.0000 0.04137  0.25258  0.84553  Biso   1.000  C
  C622     1.0000 0.07280  0.23205  0.85367  Biso   1.000  C
  H355     1.0000 0.07270  0.21550  0.87400  Biso   1.000  H
  C623     1.0000 0.10429  0.23574  0.83200  Biso   1.000  C
  H356     1.0000 0.12580  0.22170  0.83760  Biso   1.000  H
  N353     1.0000 0.17240  0.28330  0.73590  Biso   1.000  N
  N354     1.0000 0.19150  0.26070  0.75810  Biso   1.000  N
  N355     1.0000 0.17020  0.24940  0.78550  Biso   1.000  N
  N356     1.0000 0.13720  0.28470  0.74930  Biso   1.000  N
  C624     1.0000 0.63680  0.76400  0.27960  Biso   1.000  C
  C625     1.0000 0.60436  0.75995  0.30218  Biso   1.000  C
  C626     1.0000 0.57290  0.78048  0.29404  Biso   1.000  C
  H357     1.0000 0.57300  0.79700  0.27370  Biso   1.000  H
  C627     1.0000 0.54144  0.77679  0.31570  Biso   1.000  C
  H358     1.0000 0.52000  0.79080  0.31010  Biso   1.000  H
  C628     1.0000 0.54137  0.75258  0.34553  Biso   1.000  C
  C629     1.0000 0.57280  0.73205  0.35367  Biso   1.000  C
  H359     1.0000 0.57270  0.71550  0.37400  Biso   1.000  H
  C630     1.0000 0.60429  0.73574  0.33200  Biso   1.000  C
  H360     1.0000 0.62580  0.72170  0.33760  Biso   1.000  H
  N357     1.0000 0.67240  0.78330  0.23590  Biso   1.000  N
  N358     1.0000 0.69150  0.76070  0.25810  Biso   1.000  N
  N359     1.0000 0.67020  0.74940  0.28550  Biso   1.000  N
  N360     1.0000 0.63720  0.78470  0.24930  Biso   1.000  N
  C631     1.0000 0.63680  0.23600  0.22040  Biso   1.000  C
  C632     1.0000 0.60436  0.24005  0.19782  Biso   1.000  C
  C633     1.0000 0.57290  0.21952  0.20596  Biso   1.000  C
  H361     1.0000 0.57300  0.20300  0.22630  Biso   1.000  H
  C634     1.0000 0.54144  0.22321  0.18430  Biso   1.000  C
  H362     1.0000 0.52000  0.20920  0.18990  Biso   1.000  H
  C635     1.0000 0.54137  0.24742  0.15447  Biso   1.000  C
  C636     1.0000 0.57280  0.26795  0.14633  Biso   1.000  C
  H363     1.0000 0.57270  0.28450  0.12600  Biso   1.000  H
  C637     1.0000 0.60429  0.26426  0.16800  Biso   1.000  C
  H364     1.0000 0.62580  0.27830  0.16240  Biso   1.000  H
  N361     1.0000 0.67240  0.21670  0.26410  Biso   1.000  N
  N362     1.0000 0.69150  0.23930  0.24190  Biso   1.000  N
  N363     1.0000 0.67020  0.25060  0.21450  Biso   1.000  N
  N364     1.0000 0.63720  0.21530  0.25070  Biso   1.000  N
  C638     1.0000 0.13680  0.73600  0.72040  Biso   1.000  C
  C639     1.0000 0.10436  0.74005  0.69782  Biso   1.000  C
  C640     1.0000 0.07290  0.71952  0.70596  Biso   1.000  C
  H365     1.0000 0.07300  0.70300  0.72630  Biso   1.000  H
  C641     1.0000 0.04144  0.72321  0.68430  Biso   1.000  C
  H366     1.0000 0.02000  0.70920  0.68990  Biso   1.000  H
  C642     1.0000 0.04137  0.74742  0.65447  Biso   1.000  C
  C643     1.0000 0.07280  0.76795  0.64633  Biso   1.000  C
  H367     1.0000 0.07270  0.78450  0.62600  Biso   1.000  H
  C644     1.0000 0.10429  0.76426  0.66800  Biso   1.000  C
  H368     1.0000 0.12580  0.77830  0.66240  Biso   1.000  H
  N365     1.0000 0.17240  0.71670  0.76410  Biso   1.000  N
  N366     1.0000 0.19150  0.73930  0.74190  Biso   1.000  N
  N367     1.0000 0.17020  0.75060  0.71450  Biso   1.000  N
  N368     1.0000 0.13720  0.71530  0.75070  Biso   1.000  N
  C645     1.0000 0.86320  0.76400  0.72040  Biso   1.000  C
  C646     1.0000 0.89564  0.75995  0.69782  Biso   1.000  C
  C647     1.0000 0.92710  0.78048  0.70596  Biso   1.000  C
  H369     1.0000 0.92700  0.79700  0.72630  Biso   1.000  H
  C648     1.0000 0.95856  0.77679  0.68430  Biso   1.000  C
  H370     1.0000 0.98000  0.79080  0.68990  Biso   1.000  H
  C649     1.0000 0.95863  0.75258  0.65447  Biso   1.000  C
  C650     1.0000 0.92720  0.73205  0.64633  Biso   1.000  C
  H371     1.0000 0.92730  0.71550  0.62600  Biso   1.000  H
  C651     1.0000 0.89571  0.73574  0.66800  Biso   1.000  C
  H372     1.0000 0.87420  0.72170  0.66240  Biso   1.000  H
  N369     1.0000 0.82760  0.78330  0.76410  Biso   1.000  N
  N370     1.0000 0.80850  0.76070  0.74190  Biso   1.000  N
  N371     1.0000 0.82980  0.74940  0.71450  Biso   1.000  N
  N372     1.0000 0.86280  0.78470  0.75070  Biso   1.000  N
  C652     1.0000 0.36320  0.26400  0.22040  Biso   1.000  C
  C653     1.0000 0.39564  0.25995  0.19782  Biso   1.000  C
  C654     1.0000 0.42710  0.28048  0.20596  Biso   1.000  C
  H373     1.0000 0.42700  0.29700  0.22630  Biso   1.000  H
  C655     1.0000 0.45856  0.27679  0.18430  Biso   1.000  C
  H374     1.0000 0.48000  0.29080  0.18990  Biso   1.000  H
  C656     1.0000 0.45863  0.25258  0.15447  Biso   1.000  C
  C657     1.0000 0.42720  0.23205  0.14633  Biso   1.000  C
  H375     1.0000 0.42730  0.21550  0.12600  Biso   1.000  H
  C658     1.0000 0.39571  0.23574  0.16800  Biso   1.000  C
  H376     1.0000 0.37420  0.22170  0.16240  Biso   1.000  H
  N373     1.0000 0.32760  0.28330  0.26410  Biso   1.000  N
  N374     1.0000 0.30850  0.26070  0.24190  Biso   1.000  N
  N375     1.0000 0.32980  0.24940  0.21450  Biso   1.000  N
  N376     1.0000 0.36280  0.28470  0.25070  Biso   1.000  N
  C659     1.0000 0.36320  0.73600  0.27960  Biso   1.000  C
  C660     1.0000 0.39564  0.74005  0.30218  Biso   1.000  C
  C661     1.0000 0.42710  0.71952  0.29404  Biso   1.000  C
  H377     1.0000 0.42700  0.70300  0.27370  Biso   1.000  H
  C662     1.0000 0.45856  0.72321  0.31570  Biso   1.000  C
  H378     1.0000 0.48000  0.70920  0.31010  Biso   1.000  H
  C663     1.0000 0.45863  0.74742  0.34553  Biso   1.000  C
  C664     1.0000 0.42720  0.76795  0.35367  Biso   1.000  C
  H379     1.0000 0.42730  0.78450  0.37400  Biso   1.000  H
  C665     1.0000 0.39571  0.76426  0.33200  Biso   1.000  C
  H380     1.0000 0.37420  0.77830  0.33760  Biso   1.000  H
  N377     1.0000 0.32760  0.71670  0.23590  Biso   1.000  N
  N378     1.0000 0.30850  0.73930  0.25810  Biso   1.000  N
  N379     1.0000 0.32980  0.75060  0.28550  Biso   1.000  N
  N380     1.0000 0.36280  0.71530  0.24930  Biso   1.000  N
  C666     1.0000 0.86320  0.23600  0.77960  Biso   1.000  C
  C667     1.0000 0.89564  0.24005  0.80218  Biso   1.000  C
  C668     1.0000 0.92710  0.21952  0.79404  Biso   1.000  C
  H381     1.0000 0.92700  0.20300  0.77370  Biso   1.000  H
  C669     1.0000 0.95856  0.22321  0.81570  Biso   1.000  C
  H382     1.0000 0.98000  0.20920  0.81010  Biso   1.000  H
  C670     1.0000 0.95863  0.24742  0.84553  Biso   1.000  C
  C671     1.0000 0.92720  0.26795  0.85367  Biso   1.000  C
  H383     1.0000 0.92730  0.28450  0.87400  Biso   1.000  H
  C672     1.0000 0.89571  0.26426  0.83200  Biso   1.000  C
  H384     1.0000 0.87420  0.27830  0.83760  Biso   1.000  H
  N381     1.0000 0.82760  0.21670  0.73590  Biso   1.000  N
  N382     1.0000 0.80850  0.23930  0.75810  Biso   1.000  N
  N383     1.0000 0.82980  0.25060  0.78550  Biso   1.000  N
  N384     1.0000 0.86280  0.21530  0.74930  Biso   1.000  N
  Cu1      1.0000 0.94043  0.44043  0.05957  Biso   1.000  Cu
  Cu2      1.0000 0.44043  0.94043  0.55957  Biso   1.000  Cu
  Cu3      1.0000 0.55957  0.55957  0.55957  Biso   1.000  Cu
  Cu4      1.0000 0.05957  0.05957  0.05957  Biso   1.000  Cu
  Cu5      1.0000 0.05957  0.94043  0.44043  Biso   1.000  Cu
  Cu6      1.0000 0.55957  0.44043  0.94043  Biso   1.000  Cu
  Cu7      1.0000 0.44043  0.05957  0.94043  Biso   1.000  Cu
  Cu8      1.0000 0.94043  0.55957  0.44043  Biso   1.000  Cu
  Cu9      1.0000 0.19043  0.19043  0.19043  Biso   1.000  Cu
  Cu10     1.0000 0.69043  0.69043  0.69043  Biso   1.000  Cu
  Cu11     1.0000 0.30957  0.80957  0.69043  Biso   1.000  Cu
  Cu12     1.0000 0.80957  0.30957  0.19043  Biso   1.000  Cu
  Cu13     1.0000 0.69043  0.30957  0.80957  Biso   1.000  Cu
  Cu14     1.0000 0.19043  0.80957  0.30957  Biso   1.000  Cu
  Cu15     1.0000 0.80957  0.69043  0.30957  Biso   1.000  Cu
  Cu16     1.0000 0.30957  0.19043  0.80957  Biso   1.000  Cu
  Cu17     1.0000 0.05957  0.55957  0.94043  Biso   1.000  Cu
  Cu18     1.0000 0.55957  0.05957  0.44043  Biso   1.000  Cu
  Cu19     1.0000 0.44043  0.44043  0.44043  Biso   1.000  Cu
  Cu20     1.0000 0.94043  0.94043  0.94043  Biso   1.000  Cu
  Cu21     1.0000 0.94043  0.05957  0.55957  Biso   1.000  Cu
  Cu22     1.0000 0.44043  0.55957  0.05957  Biso   1.000  Cu
  Cu23     1.0000 0.55957  0.94043  0.05957  Biso   1.000  Cu
  Cu24     1.0000 0.05957  0.44043  0.55957  Biso   1.000  Cu
  Cu25     1.0000 0.80957  0.80957  0.80957  Biso   1.000  Cu
  Cu26     1.0000 0.30957  0.30957  0.30957  Biso   1.000  Cu
  Cu27     1.0000 0.69043  0.19043  0.30957  Biso   1.000  Cu
  Cu28     1.0000 0.19043  0.69043  0.80957  Biso   1.000  Cu
  Cu29     1.0000 0.30957  0.69043  0.19043  Biso   1.000  Cu
  Cu30     1.0000 0.80957  0.19043  0.69043  Biso   1.000  Cu
  Cu31     1.0000 0.19043  0.30957  0.69043  Biso   1.000  Cu
  Cu32     1.0000 0.69043  0.80957  0.19043  Biso   1.000  Cu
  Cu33     1.0000 0.00000  0.50000  0.00000  Biso   1.000  Cu
  Cu34     1.0000 0.50000  0.00000  0.50000  Biso   1.000  Cu
  Cu35     1.0000 0.50000  0.50000  0.50000  Biso   1.000  Cu
  Cu36     1.0000 0.00000  0.00000  0.00000  Biso   1.000  Cu
  Cu37     1.0000 0.00000  0.00000  0.50000  Biso   1.000  Cu
  Cu38     1.0000 0.50000  0.50000  0.00000  Biso   1.000  Cu
  Cu39     1.0000 0.50000  0.00000  0.00000  Biso   1.000  Cu
  Cu40     1.0000 0.00000  0.50000  0.50000  Biso   1.000  Cu
  Cu41     1.0000 0.25000  0.25000  0.25000  Biso   1.000  Cu
  Cu42     1.0000 0.25000  0.75000  0.75000  Biso   1.000  Cu
  Cu43     1.0000 0.75000  0.25000  0.75000  Biso   1.000  Cu
  Cu44     1.0000 0.75000  0.75000  0.25000  Biso   1.000  Cu
  Cu45     1.0000 0.75000  0.75000  0.75000  Biso   1.000  Cu
  Cu46     1.0000 0.75000  0.25000  0.25000  Biso   1.000  Cu
  Cu47     1.0000 0.25000  0.75000  0.25000  Biso   1.000  Cu
  Cu48     1.0000 0.25000  0.25000  0.75000  Biso   1.000  Cu
  Si1      1.0000 0.12500  0.50000  0.25000  Biso   1.000  Si
  Si2      1.0000 0.37500  0.50000  0.75000  Biso   1.000  Si
  Si3      1.0000 0.87500  0.00000  0.25000  Biso   1.000  Si
  Si4      1.0000 0.62500  0.00000  0.75000  Biso   1.000  Si
  Si5      1.0000 0.25000  0.12500  0.50000  Biso   1.000  Si
  Si6      1.0000 0.75000  0.37500  0.50000  Biso   1.000  Si
  Si7      1.0000 0.25000  0.87500  0.00000  Biso   1.000  Si
  Si8      1.0000 0.75000  0.62500  0.00000  Biso   1.000  Si
  Si9      1.0000 0.50000  0.25000  0.12500  Biso   1.000  Si
  Si10     1.0000 0.50000  0.75000  0.37500  Biso   1.000  Si
  Si11     1.0000 0.00000  0.25000  0.87500  Biso   1.000  Si
  Si12     1.0000 0.00000  0.75000  0.62500  Biso   1.000  Si
  Si13     1.0000 0.25000  0.37500  0.00000  Biso   1.000  Si
  Si14     1.0000 0.25000  0.62500  0.50000  Biso   1.000  Si
  Si15     1.0000 0.75000  0.12500  0.00000  Biso   1.000  Si
  Si16     1.0000 0.75000  0.87500  0.50000  Biso   1.000  Si
  Si17     1.0000 0.87500  0.50000  0.75000  Biso   1.000  Si
  Si18     1.0000 0.12500  0.00000  0.75000  Biso   1.000  Si
  Si19     1.0000 0.62500  0.50000  0.25000  Biso   1.000  Si
  Si20     1.0000 0.37500  0.00000  0.25000  Biso   1.000  Si
  Si21     1.0000 0.00000  0.75000  0.12500  Biso   1.000  Si
  Si22     1.0000 0.50000  0.75000  0.87500  Biso   1.000  Si
  Si23     1.0000 0.00000  0.25000  0.37500  Biso   1.000  Si
  Si24     1.0000 0.50000  0.25000  0.62500  Biso   1.000  Si
