data_image0
_cell_length_a       41.982
_cell_length_b       21.5588
_cell_length_c       43.755
_cell_angle_alpha    90
_cell_angle_beta     92.635
_cell_angle_gamma    90

_symmetry_space_group_name_H-M    "P 1"
_symmetry_int_tables_number       1

loop_
  _symmetry_equiv_pos_as_xyz
  'x, y, z'

loop_
  _atom_site_label
  _atom_site_occupancy
  _atom_site_fract_x
  _atom_site_fract_y
  _atom_site_fract_z
  _atom_site_thermal_displace_type
  _atom_site_B_iso_or_equiv
  _atom_site_type_symbol
  In1      1.0000 0.70749  0.05183  0.50499  Biso   1.000  In
  In2      1.0000 0.46020  0.74095  0.25595  Biso   1.000  In
  O1       1.0000 0.24700  0.43440  0.04420  Biso   1.000  O
  O2       1.0000 0.67130  0.95350  0.03970  Biso   1.000  O
  N1       1.0000 0.46250  0.73040  0.20950  Biso   1.000  N
  O3       1.0000 0.66790  0.06560  0.46610  Biso   1.000  O
  N2       1.0000 0.46000  0.75390  0.30310  Biso   1.000  N
  C1       1.0000 0.66570  0.89470  0.03960  Biso   1.000  C
  N3       1.0000 0.41440  0.70640  0.25580  Biso   1.000  N
  O4       1.0000 0.24610  0.54480  0.47330  Biso   1.000  O
  O5       1.0000 0.68100  0.85780  0.02600  Biso   1.000  O
  C2       1.0000 0.52380  0.78540  0.22900  Biso   1.000  C
  C3       1.0000 0.24900  0.59920  0.46930  Biso   1.000  C
  C4       1.0000 0.55040  0.82270  0.23950  Biso   1.000  C
  H1       1.0000 0.56510  0.84160  0.22650  Biso   1.000  H
  C5       1.0000 0.39680  0.68420  0.23140  Biso   1.000  C
  C6       1.0000 0.48570  0.74450  0.19030  Biso   1.000  C
  C7       1.0000 0.40440  0.68530  0.20060  Biso   1.000  C
  C8       1.0000 0.62410  0.88220  0.41730  Biso   1.000  C
  H2       1.0000 0.62430  0.83830  0.41580  Biso   1.000  H
  C9       1.0000 0.64508  0.91210  0.43798  Biso   1.000  C
  H3       1.0000 0.65960  0.88860  0.45060  Biso   1.000  H
  C10      1.0000 0.64477  0.97640  0.44021  Biso   1.000  C
  C11      1.0000 0.62350  0.01080  0.42180  Biso   1.000  C
  H4       1.0000 0.62330  0.05480  0.42330  Biso   1.000  H
  C12      1.0000 0.60250  0.98100  0.40115  Biso   1.000  C
  H5       1.0000 0.58800  0.00450  0.38860  Biso   1.000  H
  C13      1.0000 0.60280  0.91670  0.39892  Biso   1.000  C
  C14      1.0000 0.43510  0.70590  0.19060  Biso   1.000  C
  C15      1.0000 0.38200  0.65880  0.17723  Biso   1.000  C
  C16      1.0000 0.35260  0.68660  0.17060  Biso   1.000  C
  H6       1.0000 0.34700  0.72380  0.18070  Biso   1.000  H
  C17      1.0000 0.33130  0.66000  0.14910  Biso   1.000  C
  H7       1.0000 0.31120  0.67900  0.14460  Biso   1.000  H
  C18      1.0000 0.33940  0.60570  0.13428  Biso   1.000  C
  C19      1.0000 0.36880  0.57780  0.14090  Biso   1.000  C
  H8       1.0000 0.37430  0.54070  0.13080  Biso   1.000  H
  C20      1.0000 0.39005  0.60440  0.16240  Biso   1.000  C
  H9       1.0000 0.41010  0.58540  0.16690  Biso   1.000  H
  C21      1.0000 0.31580  0.57610  0.11120  Biso   1.000  C
  C22      1.0000 0.29500  0.61380  0.09390  Biso   1.000  C
  H10      1.0000 0.29590  0.65760  0.09630  Biso   1.000  H
  C23      1.0000 0.27290  0.58750  0.07320  Biso   1.000  C
  H11      1.0000 0.25870  0.61320  0.06130  Biso   1.000  H
  C24      1.0000 0.27160  0.52340  0.06970  Biso   1.000  C
  C25      1.0000 0.29230  0.48570  0.08690  Biso   1.000  C
  H12      1.0000 0.29140  0.44190  0.08460  Biso   1.000  H
  C26      1.0000 0.31450  0.51200  0.10770  Biso   1.000  C
  H13      1.0000 0.32870  0.48630  0.11950  Biso   1.000  H
  O6       1.0000 0.68450  0.97560  0.48110  Biso   1.000  O
  O7       1.0000 0.23110  0.63330  0.47960  Biso   1.000  O
  N4       1.0000 0.50590  0.77250  0.25660  Biso   1.000  N
  C27      1.0000 0.36670  0.66770  0.27200  Biso   1.000  C
  H14      1.0000 0.35020  0.65600  0.28500  Biso   1.000  H
  C28      1.0000 0.48370  0.78380  0.31960  Biso   1.000  C
  C29      1.0000 0.66670  0.01120  0.46380  Biso   1.000  C
  C30      1.0000 0.36640  0.66050  0.24110  Biso   1.000  C
  H15      1.0000 0.34970  0.64330  0.22840  Biso   1.000  H
  C31      1.0000 0.47460  0.77720  0.35170  Biso   1.000  C
  H16      1.0000 0.48710  0.79060  0.36910  Biso   1.000  H
  C32      1.0000 0.51320  0.77170  0.20020  Biso   1.000  C
  C33      1.0000 0.43630  0.73670  0.32210  Biso   1.000  C
  C34      1.0000 0.38190  0.69770  0.33420  Biso   1.000  C
  C35      1.0000 0.35570  0.73470  0.34000  Biso   1.000  C
  H17      1.0000 0.35160  0.77100  0.32820  Biso   1.000  H
  C36      1.0000 0.33560  0.71850  0.36310  Biso   1.000  C
  H18      1.0000 0.31770  0.74380  0.36700  Biso   1.000  H
  C37      1.0000 0.34160  0.66540  0.38040  Biso   1.000  C
  C38      1.0000 0.36780  0.62840  0.37460  Biso   1.000  C
  H19      1.0000 0.37190  0.59210  0.38640  Biso   1.000  H
  C39      1.0000 0.38790  0.64450  0.35150  Biso   1.000  C
  H20      1.0000 0.40580  0.61920  0.34750  Biso   1.000  H
  C40      1.0000 0.40760  0.71140  0.31110  Biso   1.000  C
  C41      1.0000 0.52160  0.79720  0.27880  Biso   1.000  C
  C42      1.0000 0.57630  0.82380  0.13050  Biso   1.000  C
  C43      1.0000 0.55060  0.86190  0.13670  Biso   1.000  C
  H21      1.0000 0.54720  0.89930  0.12560  Biso   1.000  H
  C44      1.0000 0.53000  0.84520  0.15920  Biso   1.000  C
  H22      1.0000 0.51240  0.87120  0.16340  Biso   1.000  H
  C45      1.0000 0.53490  0.79040  0.17550  Biso   1.000  C
  C46      1.0000 0.56050  0.75230  0.16930  Biso   1.000  C
  H23      1.0000 0.56390  0.71490  0.18040  Biso   1.000  H
  C47      1.0000 0.58120  0.76910  0.14680  Biso   1.000  C
  H24      1.0000 0.59870  0.74300  0.14250  Biso   1.000  H
  C48      1.0000 0.55170  0.82720  0.27130  Biso   1.000  C
  H25      1.0000 0.56770  0.84500  0.28460  Biso   1.000  H
  C49      1.0000 0.39730  0.69720  0.28180  Biso   1.000  C
  C50      1.0000 0.44540  0.70930  0.15930  Biso   1.000  C
  H26      1.0000 0.43340  0.69590  0.14160  Biso   1.000  H
  C51      1.0000 0.44530  0.74900  0.35270  Biso   1.000  C
  H27      1.0000 0.43370  0.73980  0.37030  Biso   1.000  H
  C52      1.0000 0.57930  0.88310  0.37647  Biso   1.000  C
  C53      1.0000 0.54940  0.90900  0.37040  Biso   1.000  C
  H28      1.0000 0.54350  0.94600  0.38050  Biso   1.000  H
  C54      1.0000 0.52809  0.88100  0.34940  Biso   1.000  C
  H29      1.0000 0.50760  0.89870  0.34530  Biso   1.000  H
  C55      1.0000 0.53670  0.82690  0.33456  Biso   1.000  C
  C56      1.0000 0.56660  0.80100  0.34070  Biso   1.000  C
  H30      1.0000 0.57250  0.76410  0.33050  Biso   1.000  H
  C57      1.0000 0.58795  0.82910  0.36160  Biso   1.000  C
  H31      1.0000 0.60840  0.81130  0.36580  Biso   1.000  H
  C58      1.0000 0.51470  0.79750  0.31050  Biso   1.000  C
  C59      1.0000 0.62720  0.91990  0.08060  Biso   1.000  C
  H32      1.0000 0.63070  0.96280  0.07700  Biso   1.000  H
  C60      1.0000 0.64380  0.87560  0.06480  Biso   1.000  C
  C61      1.0000 0.63870  0.81290  0.07010  Biso   1.000  C
  H33      1.0000 0.65010  0.78260  0.05920  Biso   1.000  H
  C62      1.0000 0.61690  0.79450  0.09120  Biso   1.000  C
  H34      1.0000 0.61340  0.75170  0.09480  Biso   1.000  H
  C63      1.0000 0.60020  0.83890  0.10710  Biso   1.000  C
  C64      1.0000 0.60530  0.90160  0.10180  Biso   1.000  C
  H35      1.0000 0.59390  0.93190  0.11260  Biso   1.000  H
  C65      1.0000 0.29750  0.69700  0.41650  Biso   1.000  C
  H36      1.0000 0.29850  0.73850  0.40950  Biso   1.000  H
  C66      1.0000 0.31750  0.65220  0.40500  Biso   1.000  C
  C67      1.0000 0.31600  0.59130  0.41530  Biso   1.000  C
  H37      1.0000 0.32970  0.56070  0.40750  Biso   1.000  H
  C68      1.0000 0.29440  0.57520  0.43710  Biso   1.000  C
  H38      1.0000 0.29340  0.53360  0.44420  Biso   1.000  H
  C69      1.0000 0.27440  0.62000  0.44860  Biso   1.000  C
  C70      1.0000 0.27590  0.68090  0.43830  Biso   1.000  C
  H39      1.0000 0.26220  0.71150  0.44620  Biso   1.000  H
  C71      1.0000 0.47410  0.73400  0.15970  Biso   1.000  C
  H40      1.0000 0.48540  0.74340  0.14200  Biso   1.000  H
  C72      1.0000 0.24760  0.49460  0.04770  Biso   1.000  C
  O8       1.0000 0.22970  0.53060  0.03230  Biso   1.000  O
  In3      1.0000 0.20749  0.55183  0.50499  Biso   1.000  In
  In4      1.0000 0.96020  0.24095  0.25595  Biso   1.000  In
  O9       1.0000 0.74700  0.93440  0.04420  Biso   1.000  O
  O10      1.0000 0.17130  0.45350  0.03970  Biso   1.000  O
  N5       1.0000 0.96250  0.23040  0.20950  Biso   1.000  N
  O11      1.0000 0.16790  0.56560  0.46610  Biso   1.000  O
  N6       1.0000 0.96000  0.25390  0.30310  Biso   1.000  N
  C73      1.0000 0.16570  0.39470  0.03960  Biso   1.000  C
  N7       1.0000 0.91440  0.20640  0.25580  Biso   1.000  N
  O12      1.0000 0.74610  0.04480  0.47330  Biso   1.000  O
  O13      1.0000 0.18100  0.35780  0.02600  Biso   1.000  O
  C74      1.0000 0.02380  0.28540  0.22900  Biso   1.000  C
  C75      1.0000 0.74900  0.09920  0.46930  Biso   1.000  C
  C76      1.0000 0.05040  0.32270  0.23950  Biso   1.000  C
  H41      1.0000 0.06510  0.34160  0.22650  Biso   1.000  H
  C77      1.0000 0.89680  0.18420  0.23140  Biso   1.000  C
  C78      1.0000 0.98570  0.24450  0.19030  Biso   1.000  C
  C79      1.0000 0.90440  0.18530  0.20060  Biso   1.000  C
  C80      1.0000 0.12410  0.38220  0.41730  Biso   1.000  C
  H42      1.0000 0.12430  0.33830  0.41580  Biso   1.000  H
  C81      1.0000 0.14508  0.41210  0.43798  Biso   1.000  C
  H43      1.0000 0.15960  0.38860  0.45060  Biso   1.000  H
  C82      1.0000 0.14477  0.47640  0.44021  Biso   1.000  C
  C83      1.0000 0.12350  0.51080  0.42180  Biso   1.000  C
  H44      1.0000 0.12330  0.55480  0.42330  Biso   1.000  H
  C84      1.0000 0.10250  0.48100  0.40115  Biso   1.000  C
  H45      1.0000 0.08800  0.50450  0.38860  Biso   1.000  H
  C85      1.0000 0.10280  0.41670  0.39892  Biso   1.000  C
  C86      1.0000 0.93510  0.20590  0.19060  Biso   1.000  C
  C87      1.0000 0.88200  0.15880  0.17723  Biso   1.000  C
  C88      1.0000 0.85260  0.18660  0.17060  Biso   1.000  C
  H46      1.0000 0.84700  0.22380  0.18070  Biso   1.000  H
  C89      1.0000 0.83130  0.16000  0.14910  Biso   1.000  C
  H47      1.0000 0.81120  0.17900  0.14460  Biso   1.000  H
  C90      1.0000 0.83940  0.10570  0.13428  Biso   1.000  C
  C91      1.0000 0.86880  0.07780  0.14090  Biso   1.000  C
  H48      1.0000 0.87430  0.04070  0.13080  Biso   1.000  H
  C92      1.0000 0.89005  0.10440  0.16240  Biso   1.000  C
  H49      1.0000 0.91010  0.08540  0.16690  Biso   1.000  H
  C93      1.0000 0.81580  0.07610  0.11120  Biso   1.000  C
  C94      1.0000 0.79500  0.11380  0.09390  Biso   1.000  C
  H50      1.0000 0.79590  0.15760  0.09630  Biso   1.000  H
  C95      1.0000 0.77290  0.08750  0.07320  Biso   1.000  C
  H51      1.0000 0.75870  0.11320  0.06130  Biso   1.000  H
  C96      1.0000 0.77160  0.02340  0.06970  Biso   1.000  C
  C97      1.0000 0.79230  0.98570  0.08690  Biso   1.000  C
  H52      1.0000 0.79140  0.94190  0.08460  Biso   1.000  H
  C98      1.0000 0.81450  0.01200  0.10770  Biso   1.000  C
  H53      1.0000 0.82870  0.98630  0.11950  Biso   1.000  H
  O14      1.0000 0.18450  0.47560  0.48110  Biso   1.000  O
  O15      1.0000 0.73110  0.13330  0.47960  Biso   1.000  O
  N8       1.0000 0.00590  0.27250  0.25660  Biso   1.000  N
  C99      1.0000 0.86670  0.16770  0.27200  Biso   1.000  C
  H54      1.0000 0.85020  0.15600  0.28500  Biso   1.000  H
  C100     1.0000 0.98370  0.28380  0.31960  Biso   1.000  C
  C101     1.0000 0.16670  0.51120  0.46380  Biso   1.000  C
  C102     1.0000 0.86640  0.16050  0.24110  Biso   1.000  C
  H55      1.0000 0.84970  0.14330  0.22840  Biso   1.000  H
  C103     1.0000 0.97460  0.27720  0.35170  Biso   1.000  C
  H56      1.0000 0.98710  0.29060  0.36910  Biso   1.000  H
  C104     1.0000 0.01320  0.27170  0.20020  Biso   1.000  C
  C105     1.0000 0.93630  0.23670  0.32210  Biso   1.000  C
  C106     1.0000 0.88190  0.19770  0.33420  Biso   1.000  C
  C107     1.0000 0.85570  0.23470  0.34000  Biso   1.000  C
  H57      1.0000 0.85160  0.27100  0.32820  Biso   1.000  H
  C108     1.0000 0.83560  0.21850  0.36310  Biso   1.000  C
  H58      1.0000 0.81770  0.24380  0.36700  Biso   1.000  H
  C109     1.0000 0.84160  0.16540  0.38040  Biso   1.000  C
  C110     1.0000 0.86780  0.12840  0.37460  Biso   1.000  C
  H59      1.0000 0.87190  0.09210  0.38640  Biso   1.000  H
  C111     1.0000 0.88790  0.14450  0.35150  Biso   1.000  C
  H60      1.0000 0.90580  0.11920  0.34750  Biso   1.000  H
  C112     1.0000 0.90760  0.21140  0.31110  Biso   1.000  C
  C113     1.0000 0.02160  0.29720  0.27880  Biso   1.000  C
  C114     1.0000 0.07630  0.32380  0.13050  Biso   1.000  C
  C115     1.0000 0.05060  0.36190  0.13670  Biso   1.000  C
  H61      1.0000 0.04720  0.39930  0.12560  Biso   1.000  H
  C116     1.0000 0.03000  0.34520  0.15920  Biso   1.000  C
  H62      1.0000 0.01240  0.37120  0.16340  Biso   1.000  H
  C117     1.0000 0.03490  0.29040  0.17550  Biso   1.000  C
  C118     1.0000 0.06050  0.25230  0.16930  Biso   1.000  C
  H63      1.0000 0.06390  0.21490  0.18040  Biso   1.000  H
  C119     1.0000 0.08120  0.26910  0.14680  Biso   1.000  C
  H64      1.0000 0.09870  0.24300  0.14250  Biso   1.000  H
  C120     1.0000 0.05170  0.32720  0.27130  Biso   1.000  C
  H65      1.0000 0.06770  0.34500  0.28460  Biso   1.000  H
  C121     1.0000 0.89730  0.19720  0.28180  Biso   1.000  C
  C122     1.0000 0.94540  0.20930  0.15930  Biso   1.000  C
  H66      1.0000 0.93340  0.19590  0.14160  Biso   1.000  H
  C123     1.0000 0.94530  0.24900  0.35270  Biso   1.000  C
  H67      1.0000 0.93370  0.23980  0.37030  Biso   1.000  H
  C124     1.0000 0.07930  0.38310  0.37647  Biso   1.000  C
  C125     1.0000 0.04940  0.40900  0.37040  Biso   1.000  C
  H68      1.0000 0.04350  0.44600  0.38050  Biso   1.000  H
  C126     1.0000 0.02809  0.38100  0.34940  Biso   1.000  C
  H69      1.0000 0.00760  0.39870  0.34530  Biso   1.000  H
  C127     1.0000 0.03670  0.32690  0.33456  Biso   1.000  C
  C128     1.0000 0.06660  0.30100  0.34070  Biso   1.000  C
  H70      1.0000 0.07250  0.26410  0.33050  Biso   1.000  H
  C129     1.0000 0.08795  0.32910  0.36160  Biso   1.000  C
  H71      1.0000 0.10840  0.31130  0.36580  Biso   1.000  H
  C130     1.0000 0.01470  0.29750  0.31050  Biso   1.000  C
  C131     1.0000 0.12720  0.41990  0.08060  Biso   1.000  C
  H72      1.0000 0.13070  0.46280  0.07700  Biso   1.000  H
  C132     1.0000 0.14380  0.37560  0.06480  Biso   1.000  C
  C133     1.0000 0.13870  0.31290  0.07010  Biso   1.000  C
  H73      1.0000 0.15010  0.28260  0.05920  Biso   1.000  H
  C134     1.0000 0.11690  0.29450  0.09120  Biso   1.000  C
  H74      1.0000 0.11340  0.25170  0.09480  Biso   1.000  H
  C135     1.0000 0.10020  0.33890  0.10710  Biso   1.000  C
  C136     1.0000 0.10530  0.40160  0.10180  Biso   1.000  C
  H75      1.0000 0.09390  0.43190  0.11260  Biso   1.000  H
  C137     1.0000 0.79750  0.19700  0.41650  Biso   1.000  C
  H76      1.0000 0.79850  0.23850  0.40950  Biso   1.000  H
  C138     1.0000 0.81750  0.15220  0.40500  Biso   1.000  C
  C139     1.0000 0.81600  0.09130  0.41530  Biso   1.000  C
  H77      1.0000 0.82970  0.06070  0.40750  Biso   1.000  H
  C140     1.0000 0.79440  0.07520  0.43710  Biso   1.000  C
  H78      1.0000 0.79340  0.03360  0.44420  Biso   1.000  H
  C141     1.0000 0.77440  0.12000  0.44860  Biso   1.000  C
  C142     1.0000 0.77590  0.18090  0.43830  Biso   1.000  C
  H79      1.0000 0.76220  0.21150  0.44620  Biso   1.000  H
  C143     1.0000 0.97410  0.23400  0.15970  Biso   1.000  C
  H80      1.0000 0.98540  0.24340  0.14200  Biso   1.000  H
  C144     1.0000 0.74760  0.99460  0.04770  Biso   1.000  C
  O16      1.0000 0.72970  0.03060  0.03230  Biso   1.000  O
  In5      1.0000 0.70749  0.94817  0.00499  Biso   1.000  In
  In6      1.0000 0.46020  0.25905  0.75595  Biso   1.000  In
  O17      1.0000 0.24700  0.56560  0.54420  Biso   1.000  O
  O18      1.0000 0.67130  0.04650  0.53970  Biso   1.000  O
  N9       1.0000 0.46250  0.26960  0.70950  Biso   1.000  N
  O19      1.0000 0.66790  0.93440  0.96610  Biso   1.000  O
  N10      1.0000 0.46000  0.24610  0.80310  Biso   1.000  N
  C145     1.0000 0.66570  0.10530  0.53960  Biso   1.000  C
  N11      1.0000 0.41440  0.29360  0.75580  Biso   1.000  N
  O20      1.0000 0.24610  0.45520  0.97330  Biso   1.000  O
  O21      1.0000 0.68100  0.14220  0.52600  Biso   1.000  O
  C146     1.0000 0.52380  0.21460  0.72900  Biso   1.000  C
  C147     1.0000 0.24900  0.40080  0.96930  Biso   1.000  C
  C148     1.0000 0.55040  0.17730  0.73950  Biso   1.000  C
  H81      1.0000 0.56510  0.15840  0.72650  Biso   1.000  H
  C149     1.0000 0.39680  0.31580  0.73140  Biso   1.000  C
  C150     1.0000 0.48570  0.25550  0.69030  Biso   1.000  C
  C151     1.0000 0.40440  0.31470  0.70060  Biso   1.000  C
  C152     1.0000 0.62410  0.11780  0.91730  Biso   1.000  C
  H82      1.0000 0.62430  0.16170  0.91580  Biso   1.000  H
  C153     1.0000 0.64508  0.08790  0.93798  Biso   1.000  C
  H83      1.0000 0.65960  0.11140  0.95060  Biso   1.000  H
  C154     1.0000 0.64477  0.02360  0.94021  Biso   1.000  C
  C155     1.0000 0.62350  0.98920  0.92180  Biso   1.000  C
  H84      1.0000 0.62330  0.94520  0.92330  Biso   1.000  H
  C156     1.0000 0.60250  0.01900  0.90115  Biso   1.000  C
  H85      1.0000 0.58800  0.99550  0.88860  Biso   1.000  H
  C157     1.0000 0.60280  0.08330  0.89892  Biso   1.000  C
  C158     1.0000 0.43510  0.29410  0.69060  Biso   1.000  C
  C159     1.0000 0.38200  0.34120  0.67723  Biso   1.000  C
  C160     1.0000 0.35260  0.31340  0.67060  Biso   1.000  C
  H86      1.0000 0.34700  0.27620  0.68070  Biso   1.000  H
  C161     1.0000 0.33130  0.34000  0.64910  Biso   1.000  C
  H87      1.0000 0.31120  0.32100  0.64460  Biso   1.000  H
  C162     1.0000 0.33940  0.39430  0.63428  Biso   1.000  C
  C163     1.0000 0.36880  0.42220  0.64090  Biso   1.000  C
  H88      1.0000 0.37430  0.45930  0.63080  Biso   1.000  H
  C164     1.0000 0.39005  0.39560  0.66240  Biso   1.000  C
  H89      1.0000 0.41010  0.41460  0.66690  Biso   1.000  H
  C165     1.0000 0.31580  0.42390  0.61120  Biso   1.000  C
  C166     1.0000 0.29500  0.38620  0.59390  Biso   1.000  C
  H90      1.0000 0.29590  0.34240  0.59630  Biso   1.000  H
  C167     1.0000 0.27290  0.41250  0.57320  Biso   1.000  C
  H91      1.0000 0.25870  0.38680  0.56130  Biso   1.000  H
  C168     1.0000 0.27160  0.47660  0.56970  Biso   1.000  C
  C169     1.0000 0.29230  0.51430  0.58690  Biso   1.000  C
  H92      1.0000 0.29140  0.55810  0.58460  Biso   1.000  H
  C170     1.0000 0.31450  0.48800  0.60770  Biso   1.000  C
  H93      1.0000 0.32870  0.51370  0.61950  Biso   1.000  H
  O22      1.0000 0.68450  0.02440  0.98110  Biso   1.000  O
  O23      1.0000 0.23110  0.36670  0.97960  Biso   1.000  O
  N12      1.0000 0.50590  0.22750  0.75660  Biso   1.000  N
  C171     1.0000 0.36670  0.33230  0.77200  Biso   1.000  C
  H94      1.0000 0.35020  0.34400  0.78500  Biso   1.000  H
  C172     1.0000 0.48370  0.21620  0.81960  Biso   1.000  C
  C173     1.0000 0.66670  0.98880  0.96380  Biso   1.000  C
  C174     1.0000 0.36640  0.33950  0.74110  Biso   1.000  C
  H95      1.0000 0.34970  0.35670  0.72840  Biso   1.000  H
  C175     1.0000 0.47460  0.22280  0.85170  Biso   1.000  C
  H96      1.0000 0.48710  0.20940  0.86910  Biso   1.000  H
  C176     1.0000 0.51320  0.22830  0.70020  Biso   1.000  C
  C177     1.0000 0.43630  0.26330  0.82210  Biso   1.000  C
  C178     1.0000 0.38190  0.30230  0.83420  Biso   1.000  C
  C179     1.0000 0.35570  0.26530  0.84000  Biso   1.000  C
  H97      1.0000 0.35160  0.22900  0.82820  Biso   1.000  H
  C180     1.0000 0.33560  0.28150  0.86310  Biso   1.000  C
  H98      1.0000 0.31770  0.25620  0.86700  Biso   1.000  H
  C181     1.0000 0.34160  0.33460  0.88040  Biso   1.000  C
  C182     1.0000 0.36780  0.37160  0.87460  Biso   1.000  C
  H99      1.0000 0.37190  0.40790  0.88640  Biso   1.000  H
  C183     1.0000 0.38790  0.35550  0.85150  Biso   1.000  C
  H100     1.0000 0.40580  0.38080  0.84750  Biso   1.000  H
  C184     1.0000 0.40760  0.28860  0.81110  Biso   1.000  C
  C185     1.0000 0.52160  0.20280  0.77880  Biso   1.000  C
  C186     1.0000 0.57630  0.17620  0.63050  Biso   1.000  C
  C187     1.0000 0.55060  0.13810  0.63670  Biso   1.000  C
  H101     1.0000 0.54720  0.10070  0.62560  Biso   1.000  H
  C188     1.0000 0.53000  0.15480  0.65920  Biso   1.000  C
  H102     1.0000 0.51240  0.12880  0.66340  Biso   1.000  H
  C189     1.0000 0.53490  0.20960  0.67550  Biso   1.000  C
  C190     1.0000 0.56050  0.24770  0.66930  Biso   1.000  C
  H103     1.0000 0.56390  0.28510  0.68040  Biso   1.000  H
  C191     1.0000 0.58120  0.23090  0.64680  Biso   1.000  C
  H104     1.0000 0.59870  0.25700  0.64250  Biso   1.000  H
  C192     1.0000 0.55170  0.17280  0.77130  Biso   1.000  C
  H105     1.0000 0.56770  0.15500  0.78460  Biso   1.000  H
  C193     1.0000 0.39730  0.30280  0.78180  Biso   1.000  C
  C194     1.0000 0.44540  0.29070  0.65930  Biso   1.000  C
  H106     1.0000 0.43340  0.30410  0.64160  Biso   1.000  H
  C195     1.0000 0.44530  0.25100  0.85270  Biso   1.000  C
  H107     1.0000 0.43370  0.26020  0.87030  Biso   1.000  H
  C196     1.0000 0.57930  0.11690  0.87647  Biso   1.000  C
  C197     1.0000 0.54940  0.09100  0.87040  Biso   1.000  C
  H108     1.0000 0.54350  0.05400  0.88050  Biso   1.000  H
  C198     1.0000 0.52809  0.11900  0.84940  Biso   1.000  C
  H109     1.0000 0.50760  0.10130  0.84530  Biso   1.000  H
  C199     1.0000 0.53670  0.17310  0.83456  Biso   1.000  C
  C200     1.0000 0.56660  0.19900  0.84070  Biso   1.000  C
  H110     1.0000 0.57250  0.23590  0.83050  Biso   1.000  H
  C201     1.0000 0.58795  0.17090  0.86160  Biso   1.000  C
  H111     1.0000 0.60840  0.18870  0.86580  Biso   1.000  H
  C202     1.0000 0.51470  0.20250  0.81050  Biso   1.000  C
  C203     1.0000 0.62720  0.08010  0.58060  Biso   1.000  C
  H112     1.0000 0.63070  0.03720  0.57700  Biso   1.000  H
  C204     1.0000 0.64380  0.12440  0.56480  Biso   1.000  C
  C205     1.0000 0.63870  0.18710  0.57010  Biso   1.000  C
  H113     1.0000 0.65010  0.21740  0.55920  Biso   1.000  H
  C206     1.0000 0.61690  0.20550  0.59120  Biso   1.000  C
  H114     1.0000 0.61340  0.24830  0.59480  Biso   1.000  H
  C207     1.0000 0.60020  0.16110  0.60710  Biso   1.000  C
  C208     1.0000 0.60530  0.09840  0.60180  Biso   1.000  C
  H115     1.0000 0.59390  0.06810  0.61260  Biso   1.000  H
  C209     1.0000 0.29750  0.30300  0.91650  Biso   1.000  C
  H116     1.0000 0.29850  0.26150  0.90950  Biso   1.000  H
  C210     1.0000 0.31750  0.34780  0.90500  Biso   1.000  C
  C211     1.0000 0.31600  0.40870  0.91530  Biso   1.000  C
  H117     1.0000 0.32970  0.43930  0.90750  Biso   1.000  H
  C212     1.0000 0.29440  0.42480  0.93710  Biso   1.000  C
  H118     1.0000 0.29340  0.46640  0.94420  Biso   1.000  H
  C213     1.0000 0.27440  0.38000  0.94860  Biso   1.000  C
  C214     1.0000 0.27590  0.31910  0.93830  Biso   1.000  C
  H119     1.0000 0.26220  0.28850  0.94620  Biso   1.000  H
  C215     1.0000 0.47410  0.26600  0.65970  Biso   1.000  C
  H120     1.0000 0.48540  0.25660  0.64200  Biso   1.000  H
  C216     1.0000 0.24760  0.50540  0.54770  Biso   1.000  C
  O24      1.0000 0.22970  0.46940  0.53230  Biso   1.000  O
  In7      1.0000 0.20749  0.44817  0.00499  Biso   1.000  In
  In8      1.0000 0.96020  0.75905  0.75595  Biso   1.000  In
  O25      1.0000 0.74700  0.06560  0.54420  Biso   1.000  O
  O26      1.0000 0.17130  0.54650  0.53970  Biso   1.000  O
  N13      1.0000 0.96250  0.76960  0.70950  Biso   1.000  N
  O27      1.0000 0.16790  0.43440  0.96610  Biso   1.000  O
  N14      1.0000 0.96000  0.74610  0.80310  Biso   1.000  N
  C217     1.0000 0.16570  0.60530  0.53960  Biso   1.000  C
  N15      1.0000 0.91440  0.79360  0.75580  Biso   1.000  N
  O28      1.0000 0.74610  0.95520  0.97330  Biso   1.000  O
  O29      1.0000 0.18100  0.64220  0.52600  Biso   1.000  O
  C218     1.0000 0.02380  0.71460  0.72900  Biso   1.000  C
  C219     1.0000 0.74900  0.90080  0.96930  Biso   1.000  C
  C220     1.0000 0.05040  0.67730  0.73950  Biso   1.000  C
  H121     1.0000 0.06510  0.65840  0.72650  Biso   1.000  H
  C221     1.0000 0.89680  0.81580  0.73140  Biso   1.000  C
  C222     1.0000 0.98570  0.75550  0.69030  Biso   1.000  C
  C223     1.0000 0.90440  0.81470  0.70060  Biso   1.000  C
  C224     1.0000 0.12410  0.61780  0.91730  Biso   1.000  C
  H122     1.0000 0.12430  0.66170  0.91580  Biso   1.000  H
  C225     1.0000 0.14508  0.58790  0.93798  Biso   1.000  C
  H123     1.0000 0.15960  0.61140  0.95060  Biso   1.000  H
  C226     1.0000 0.14477  0.52360  0.94021  Biso   1.000  C
  C227     1.0000 0.12350  0.48920  0.92180  Biso   1.000  C
  H124     1.0000 0.12330  0.44520  0.92330  Biso   1.000  H
  C228     1.0000 0.10250  0.51900  0.90115  Biso   1.000  C
  H125     1.0000 0.08800  0.49550  0.88860  Biso   1.000  H
  C229     1.0000 0.10280  0.58330  0.89892  Biso   1.000  C
  C230     1.0000 0.93510  0.79410  0.69060  Biso   1.000  C
  C231     1.0000 0.88200  0.84120  0.67723  Biso   1.000  C
  C232     1.0000 0.85260  0.81340  0.67060  Biso   1.000  C
  H126     1.0000 0.84700  0.77620  0.68070  Biso   1.000  H
  C233     1.0000 0.83130  0.84000  0.64910  Biso   1.000  C
  H127     1.0000 0.81120  0.82100  0.64460  Biso   1.000  H
  C234     1.0000 0.83940  0.89430  0.63428  Biso   1.000  C
  C235     1.0000 0.86880  0.92220  0.64090  Biso   1.000  C
  H128     1.0000 0.87430  0.95930  0.63080  Biso   1.000  H
  C236     1.0000 0.89005  0.89560  0.66240  Biso   1.000  C
  H129     1.0000 0.91010  0.91460  0.66690  Biso   1.000  H
  C237     1.0000 0.81580  0.92390  0.61120  Biso   1.000  C
  C238     1.0000 0.79500  0.88620  0.59390  Biso   1.000  C
  H130     1.0000 0.79590  0.84240  0.59630  Biso   1.000  H
  C239     1.0000 0.77290  0.91250  0.57320  Biso   1.000  C
  H131     1.0000 0.75870  0.88680  0.56130  Biso   1.000  H
  C240     1.0000 0.77160  0.97660  0.56970  Biso   1.000  C
  C241     1.0000 0.79230  0.01430  0.58690  Biso   1.000  C
  H132     1.0000 0.79140  0.05810  0.58460  Biso   1.000  H
  C242     1.0000 0.81450  0.98800  0.60770  Biso   1.000  C
  H133     1.0000 0.82870  0.01370  0.61950  Biso   1.000  H
  O30      1.0000 0.18450  0.52440  0.98110  Biso   1.000  O
  O31      1.0000 0.73110  0.86670  0.97960  Biso   1.000  O
  N16      1.0000 0.00590  0.72750  0.75660  Biso   1.000  N
  C243     1.0000 0.86670  0.83230  0.77200  Biso   1.000  C
  H134     1.0000 0.85020  0.84400  0.78500  Biso   1.000  H
  C244     1.0000 0.98370  0.71620  0.81960  Biso   1.000  C
  C245     1.0000 0.16670  0.48880  0.96380  Biso   1.000  C
  C246     1.0000 0.86640  0.83950  0.74110  Biso   1.000  C
  H135     1.0000 0.84970  0.85670  0.72840  Biso   1.000  H
  C247     1.0000 0.97460  0.72280  0.85170  Biso   1.000  C
  H136     1.0000 0.98710  0.70940  0.86910  Biso   1.000  H
  C248     1.0000 0.01320  0.72830  0.70020  Biso   1.000  C
  C249     1.0000 0.93630  0.76330  0.82210  Biso   1.000  C
  C250     1.0000 0.88190  0.80230  0.83420  Biso   1.000  C
  C251     1.0000 0.85570  0.76530  0.84000  Biso   1.000  C
  H137     1.0000 0.85160  0.72900  0.82820  Biso   1.000  H
  C252     1.0000 0.83560  0.78150  0.86310  Biso   1.000  C
  H138     1.0000 0.81770  0.75620  0.86700  Biso   1.000  H
  C253     1.0000 0.84160  0.83460  0.88040  Biso   1.000  C
  C254     1.0000 0.86780  0.87160  0.87460  Biso   1.000  C
  H139     1.0000 0.87190  0.90790  0.88640  Biso   1.000  H
  C255     1.0000 0.88790  0.85550  0.85150  Biso   1.000  C
  H140     1.0000 0.90580  0.88080  0.84750  Biso   1.000  H
  C256     1.0000 0.90760  0.78860  0.81110  Biso   1.000  C
  C257     1.0000 0.02160  0.70280  0.77880  Biso   1.000  C
  C258     1.0000 0.07630  0.67620  0.63050  Biso   1.000  C
  C259     1.0000 0.05060  0.63810  0.63670  Biso   1.000  C
  H141     1.0000 0.04720  0.60070  0.62560  Biso   1.000  H
  C260     1.0000 0.03000  0.65480  0.65920  Biso   1.000  C
  H142     1.0000 0.01240  0.62880  0.66340  Biso   1.000  H
  C261     1.0000 0.03490  0.70960  0.67550  Biso   1.000  C
  C262     1.0000 0.06050  0.74770  0.66930  Biso   1.000  C
  H143     1.0000 0.06390  0.78510  0.68040  Biso   1.000  H
  C263     1.0000 0.08120  0.73090  0.64680  Biso   1.000  C
  H144     1.0000 0.09870  0.75700  0.64250  Biso   1.000  H
  C264     1.0000 0.05170  0.67280  0.77130  Biso   1.000  C
  H145     1.0000 0.06770  0.65500  0.78460  Biso   1.000  H
  C265     1.0000 0.89730  0.80280  0.78180  Biso   1.000  C
  C266     1.0000 0.94540  0.79070  0.65930  Biso   1.000  C
  H146     1.0000 0.93340  0.80410  0.64160  Biso   1.000  H
  C267     1.0000 0.94530  0.75100  0.85270  Biso   1.000  C
  H147     1.0000 0.93370  0.76020  0.87030  Biso   1.000  H
  C268     1.0000 0.07930  0.61690  0.87647  Biso   1.000  C
  C269     1.0000 0.04940  0.59100  0.87040  Biso   1.000  C
  H148     1.0000 0.04350  0.55400  0.88050  Biso   1.000  H
  C270     1.0000 0.02809  0.61900  0.84940  Biso   1.000  C
  H149     1.0000 0.00760  0.60130  0.84530  Biso   1.000  H
  C271     1.0000 0.03670  0.67310  0.83456  Biso   1.000  C
  C272     1.0000 0.06660  0.69900  0.84070  Biso   1.000  C
  H150     1.0000 0.07250  0.73590  0.83050  Biso   1.000  H
  C273     1.0000 0.08795  0.67090  0.86160  Biso   1.000  C
  H151     1.0000 0.10840  0.68870  0.86580  Biso   1.000  H
  C274     1.0000 0.01470  0.70250  0.81050  Biso   1.000  C
  C275     1.0000 0.12720  0.58010  0.58060  Biso   1.000  C
  H152     1.0000 0.13070  0.53720  0.57700  Biso   1.000  H
  C276     1.0000 0.14380  0.62440  0.56480  Biso   1.000  C
  C277     1.0000 0.13870  0.68710  0.57010  Biso   1.000  C
  H153     1.0000 0.15010  0.71740  0.55920  Biso   1.000  H
  C278     1.0000 0.11690  0.70550  0.59120  Biso   1.000  C
  H154     1.0000 0.11340  0.74830  0.59480  Biso   1.000  H
  C279     1.0000 0.10020  0.66110  0.60710  Biso   1.000  C
  C280     1.0000 0.10530  0.59840  0.60180  Biso   1.000  C
  H155     1.0000 0.09390  0.56810  0.61260  Biso   1.000  H
  C281     1.0000 0.79750  0.80300  0.91650  Biso   1.000  C
  H156     1.0000 0.79850  0.76150  0.90950  Biso   1.000  H
  C282     1.0000 0.81750  0.84780  0.90500  Biso   1.000  C
  C283     1.0000 0.81600  0.90870  0.91530  Biso   1.000  C
  H157     1.0000 0.82970  0.93930  0.90750  Biso   1.000  H
  C284     1.0000 0.79440  0.92480  0.93710  Biso   1.000  C
  H158     1.0000 0.79340  0.96640  0.94420  Biso   1.000  H
  C285     1.0000 0.77440  0.88000  0.94860  Biso   1.000  C
  C286     1.0000 0.77590  0.81910  0.93830  Biso   1.000  C
  H159     1.0000 0.76220  0.78850  0.94620  Biso   1.000  H
  C287     1.0000 0.97410  0.76600  0.65970  Biso   1.000  C
  H160     1.0000 0.98540  0.75660  0.64200  Biso   1.000  H
  C288     1.0000 0.74760  0.00540  0.54770  Biso   1.000  C
  O32      1.0000 0.72970  0.96940  0.53230  Biso   1.000  O
  In9      1.0000 0.45741  0.54375  0.63047  Biso   1.000  In
  In10     1.0000 0.20736  0.24726  0.38160  Biso   1.000  In
  O33      1.0000 0.41810  0.55960  0.59130  Biso   1.000  O
  N17      1.0000 0.16100  0.21600  0.38270  Biso   1.000  N
  O34      1.0000 0.99760  0.03040  0.59790  Biso   1.000  O
  O35      1.0000 0.41860  0.47040  0.16230  Biso   1.000  O
  C289     1.0000 0.22690  0.30510  0.44570  Biso   1.000  C
  O36      1.0000 0.97830  0.04400  0.15690  Biso   1.000  O
  O37      1.0000 0.43380  0.46890  0.60380  Biso   1.000  O
  C290     1.0000 0.23000  0.26070  0.31520  Biso   1.000  C
  O38      1.0000 0.98230  0.12370  0.60760  Biso   1.000  O
  C291     1.0000 0.12875  0.21030  0.46121  Biso   1.000  C
  C292     1.0000 0.13888  0.17690  0.48710  Biso   1.000  C
  H161     1.0000 0.16050  0.16430  0.48970  Biso   1.000  H
  C293     1.0000 0.11730  0.16200  0.50909  Biso   1.000  C
  H162     1.0000 0.12430  0.13920  0.52680  Biso   1.000  H
  C294     1.0000 0.08570  0.18030  0.50528  Biso   1.000  C
  C295     1.0000 0.07554  0.21370  0.47940  Biso   1.000  C
  H163     1.0000 0.05390  0.22630  0.47680  Biso   1.000  H
  C296     1.0000 0.09710  0.22860  0.45740  Biso   1.000  C
  H164     1.0000 0.09020  0.25140  0.43970  Biso   1.000  H
  N18      1.0000 0.20550  0.27400  0.42910  Biso   1.000  N
  C297     1.0000 0.18020  0.25760  0.44690  Biso   1.000  C
  N19      1.0000 0.24820  0.29900  0.38060  Biso   1.000  N
  N20      1.0000 0.20540  0.24570  0.33400  Biso   1.000  N
  O39      1.0000 0.99430  0.95170  0.16890  Biso   1.000  O
  O40      1.0000 0.43420  0.37060  0.15900  Biso   1.000  O
  C298     1.0000 0.99530  0.01010  0.17210  Biso   1.000  C
  C299     1.0000 0.15120  0.22670  0.43690  Biso   1.000  C
  C300     1.0000 0.26690  0.32500  0.40510  Biso   1.000  C
  C301     1.0000 0.29390  0.35030  0.36380  Biso   1.000  C
  H165     1.0000 0.30970  0.36450  0.35060  Biso   1.000  H
  C302     1.0000 0.29360  0.35900  0.39450  Biso   1.000  C
  H166     1.0000 0.30820  0.38320  0.40660  Biso   1.000  H
  C303     1.0000 0.14240  0.20220  0.40710  Biso   1.000  C
  C304     1.0000 0.26590  0.31550  0.35490  Biso   1.000  C
  C305     1.0000 0.37350  0.51720  0.54780  Biso   1.000  C
  H167     1.0000 0.37630  0.56080  0.54960  Biso   1.000  H
  C306     1.0000 0.35090  0.49330  0.52680  Biso   1.000  C
  H168     1.0000 0.33830  0.52050  0.51420  Biso   1.000  H
  C307     1.0000 0.34680  0.42950  0.52413  Biso   1.000  C
  C308     1.0000 0.36530  0.38960  0.54260  Biso   1.000  C
  H169     1.0000 0.36250  0.34600  0.54080  Biso   1.000  H
  C309     1.0000 0.38780  0.41350  0.56363  Biso   1.000  C
  H170     1.0000 0.40040  0.38630  0.57620  Biso   1.000  H
  C310     1.0000 0.39193  0.47730  0.56627  Biso   1.000  C
  C311     1.0000 0.11520  0.16040  0.36820  Biso   1.000  C
  H171     1.0000 0.09930  0.14000  0.35570  Biso   1.000  H
  C312     1.0000 0.25620  0.32400  0.43530  Biso   1.000  C
  C313     1.0000 0.14380  0.18820  0.35710  Biso   1.000  C
  C314     1.0000 0.21570  0.31240  0.47670  Biso   1.000  C
  H172     1.0000 0.22680  0.33070  0.49380  Biso   1.000  H
  C315     1.0000 0.18610  0.28730  0.47560  Biso   1.000  C
  H173     1.0000 0.17160  0.28930  0.49160  Biso   1.000  H
  C316     1.0000 0.06450  0.01900  0.23010  Biso   1.000  C
  H174     1.0000 0.08060  0.99340  0.23930  Biso   1.000  H
  C317     1.0000 0.06340  0.08180  0.23720  Biso   1.000  C
  C318     1.0000 0.03970  0.11920  0.22370  Biso   1.000  C
  H175     1.0000 0.03900  0.16210  0.22860  Biso   1.000  H
  C319     1.0000 0.01720  0.09400  0.20310  Biso   1.000  C
  H176     1.0000 0.00110  0.11960  0.19380  Biso   1.000  H
  C320     1.0000 0.01830  0.03120  0.19590  Biso   1.000  C
  C321     1.0000 0.04190  0.99370  0.20940  Biso   1.000  C
  H177     1.0000 0.04270  0.95090  0.20450  Biso   1.000  H
  C322     1.0000 0.06550  0.15640  0.52981  Biso   1.000  C
  C323     1.0000 0.04230  0.19610  0.54040  Biso   1.000  C
  H178     1.0000 0.04120  0.23780  0.53350  Biso   1.000  H
  C324     1.0000 0.02084  0.17470  0.56130  Biso   1.000  C
  H179     1.0000 0.00500  0.20180  0.56850  Biso   1.000  H
  C325     1.0000 0.02250  0.11370  0.57144  Biso   1.000  C
  C326     1.0000 0.04560  0.07400  0.56080  Biso   1.000  C
  H180     1.0000 0.04670  0.03230  0.56780  Biso   1.000  H
  C327     1.0000 0.06710  0.09540  0.54000  Biso   1.000  C
  H181     1.0000 0.08290  0.06830  0.53270  Biso   1.000  H
  C328     1.0000 0.18150  0.21840  0.31530  Biso   1.000  C
  C329     1.0000 0.25840  0.29020  0.32380  Biso   1.000  C
  C330     1.0000 0.32388  0.40290  0.50116  Biso   1.000  C
  C331     1.0000 0.29550  0.43440  0.49434  Biso   1.000  C
  H182     1.0000 0.29150  0.47280  0.50410  Biso   1.000  H
  C332     1.0000 0.27320  0.40970  0.47329  Biso   1.000  C
  H183     1.0000 0.25380  0.43120  0.46860  Biso   1.000  H
  C333     1.0000 0.27919  0.35350  0.45907  Biso   1.000  C
  C334     1.0000 0.30750  0.32200  0.46589  Biso   1.000  C
  H184     1.0000 0.31160  0.28360  0.45620  Biso   1.000  H
  C335     1.0000 0.32987  0.34670  0.48690  Biso   1.000  C
  H185     1.0000 0.34920  0.32520  0.49160  Biso   1.000  H
  C336     1.0000 0.33245  0.29950  0.27870  Biso   1.000  C
  H186     1.0000 0.35310  0.28160  0.27940  Biso   1.000  H
  C337     1.0000 0.31080  0.28340  0.30042  Biso   1.000  C
  H187     1.0000 0.31670  0.25450  0.31600  Biso   1.000  H
  C338     1.0000 0.28050  0.30960  0.29933  Biso   1.000  C
  C339     1.0000 0.27190  0.35200  0.27650  Biso   1.000  C
  H188     1.0000 0.25120  0.36990  0.27570  Biso   1.000  H
  C340     1.0000 0.29350  0.36810  0.25472  Biso   1.000  C
  H189     1.0000 0.28760  0.39710  0.23910  Biso   1.000  H
  C341     1.0000 0.32380  0.34190  0.25580  Biso   1.000  C
  C342     1.0000 0.11420  0.16750  0.39850  Biso   1.000  C
  H190     1.0000 0.09830  0.15290  0.41150  Biso   1.000  H
  C343     1.0000 0.15400  0.18570  0.32560  Biso   1.000  C
  C344     1.0000 0.19060  0.21870  0.28450  Biso   1.000  C
  H191     1.0000 0.17850  0.20400  0.26710  Biso   1.000  H
  C345     1.0000 0.34850  0.36280  0.23507  Biso   1.000  C
  C346     1.0000 0.37330  0.32300  0.22850  Biso   1.000  C
  H192     1.0000 0.37500  0.28360  0.23820  Biso   1.000  H
  C347     1.0000 0.39570  0.34070  0.20780  Biso   1.000  C
  H193     1.0000 0.41270  0.31350  0.20330  Biso   1.000  H
  C348     1.0000 0.39330  0.39830  0.19359  Biso   1.000  C
  C349     1.0000 0.36840  0.43810  0.20010  Biso   1.000  C
  H194     1.0000 0.36680  0.47750  0.19040  Biso   1.000  H
  C350     1.0000 0.34610  0.42040  0.22090  Biso   1.000  C
  H195     1.0000 0.32910  0.44760  0.22530  Biso   1.000  H
  C351     1.0000 0.13060  0.15490  0.30400  Biso   1.000  C
  C352     1.0000 0.12430  0.09170  0.30310  Biso   1.000  C
  H196     1.0000 0.13440  0.06470  0.31770  Biso   1.000  H
  C353     1.0000 0.10310  0.06780  0.28080  Biso   1.000  C
  H197     1.0000 0.09870  0.02450  0.28010  Biso   1.000  H
  C354     1.0000 0.08820  0.10710  0.25938  Biso   1.000  C
  C355     1.0000 0.09460  0.17040  0.26030  Biso   1.000  C
  H198     1.0000 0.08440  0.19730  0.24570  Biso   1.000  H
  C356     1.0000 0.11580  0.19430  0.28260  Biso   1.000  C
  H199     1.0000 0.12010  0.23750  0.28330  Biso   1.000  H
  C357     1.0000 0.22040  0.24430  0.28510  Biso   1.000  C
  H200     1.0000 0.23280  0.25020  0.26770  Biso   1.000  H
  C358     1.0000 0.41700  0.41760  0.16930  Biso   1.000  C
  C359     1.0000 0.41650  0.50310  0.58720  Biso   1.000  C
  C360     1.0000 0.00010  0.08480  0.59430  Biso   1.000  C
  In11     1.0000 0.95741  0.04375  0.63047  Biso   1.000  In
  In12     1.0000 0.70736  0.74726  0.38160  Biso   1.000  In
  O41      1.0000 0.91810  0.05960  0.59130  Biso   1.000  O
  N21      1.0000 0.66100  0.71600  0.38270  Biso   1.000  N
  O42      1.0000 0.49760  0.53040  0.59790  Biso   1.000  O
  O43      1.0000 0.91860  0.97040  0.16230  Biso   1.000  O
  C361     1.0000 0.72690  0.80510  0.44570  Biso   1.000  C
  O44      1.0000 0.47830  0.54400  0.15690  Biso   1.000  O
  O45      1.0000 0.93380  0.96890  0.60380  Biso   1.000  O
  C362     1.0000 0.73000  0.76070  0.31520  Biso   1.000  C
  O46      1.0000 0.48230  0.62370  0.60760  Biso   1.000  O
  C363     1.0000 0.62875  0.71030  0.46121  Biso   1.000  C
  C364     1.0000 0.63888  0.67690  0.48710  Biso   1.000  C
  H201     1.0000 0.66050  0.66430  0.48970  Biso   1.000  H
  C365     1.0000 0.61730  0.66200  0.50909  Biso   1.000  C
  H202     1.0000 0.62430  0.63920  0.52680  Biso   1.000  H
  C366     1.0000 0.58570  0.68030  0.50528  Biso   1.000  C
  C367     1.0000 0.57554  0.71370  0.47940  Biso   1.000  C
  H203     1.0000 0.55390  0.72630  0.47680  Biso   1.000  H
  C368     1.0000 0.59710  0.72860  0.45740  Biso   1.000  C
  H204     1.0000 0.59020  0.75140  0.43970  Biso   1.000  H
  N22      1.0000 0.70550  0.77400  0.42910  Biso   1.000  N
  C369     1.0000 0.68020  0.75760  0.44690  Biso   1.000  C
  N23      1.0000 0.74820  0.79900  0.38060  Biso   1.000  N
  N24      1.0000 0.70540  0.74570  0.33400  Biso   1.000  N
  O47      1.0000 0.49430  0.45170  0.16890  Biso   1.000  O
  O48      1.0000 0.93420  0.87060  0.15900  Biso   1.000  O
  C370     1.0000 0.49530  0.51010  0.17210  Biso   1.000  C
  C371     1.0000 0.65120  0.72670  0.43690  Biso   1.000  C
  C372     1.0000 0.76690  0.82500  0.40510  Biso   1.000  C
  C373     1.0000 0.79390  0.85030  0.36380  Biso   1.000  C
  H205     1.0000 0.80970  0.86450  0.35060  Biso   1.000  H
  C374     1.0000 0.79360  0.85900  0.39450  Biso   1.000  C
  H206     1.0000 0.80820  0.88320  0.40660  Biso   1.000  H
  C375     1.0000 0.64240  0.70220  0.40710  Biso   1.000  C
  C376     1.0000 0.76590  0.81550  0.35490  Biso   1.000  C
  C377     1.0000 0.87350  0.01720  0.54780  Biso   1.000  C
  H207     1.0000 0.87630  0.06080  0.54960  Biso   1.000  H
  C378     1.0000 0.85090  0.99330  0.52680  Biso   1.000  C
  H208     1.0000 0.83830  0.02050  0.51420  Biso   1.000  H
  C379     1.0000 0.84680  0.92950  0.52413  Biso   1.000  C
  C380     1.0000 0.86530  0.88960  0.54260  Biso   1.000  C
  H209     1.0000 0.86250  0.84600  0.54080  Biso   1.000  H
  C381     1.0000 0.88780  0.91350  0.56363  Biso   1.000  C
  H210     1.0000 0.90040  0.88630  0.57620  Biso   1.000  H
  C382     1.0000 0.89193  0.97730  0.56627  Biso   1.000  C
  C383     1.0000 0.61520  0.66040  0.36820  Biso   1.000  C
  H211     1.0000 0.59930  0.64000  0.35570  Biso   1.000  H
  C384     1.0000 0.75620  0.82400  0.43530  Biso   1.000  C
  C385     1.0000 0.64380  0.68820  0.35710  Biso   1.000  C
  C386     1.0000 0.71570  0.81240  0.47670  Biso   1.000  C
  H212     1.0000 0.72680  0.83070  0.49380  Biso   1.000  H
  C387     1.0000 0.68610  0.78730  0.47560  Biso   1.000  C
  H213     1.0000 0.67160  0.78930  0.49160  Biso   1.000  H
  C388     1.0000 0.56450  0.51900  0.23010  Biso   1.000  C
  H214     1.0000 0.58060  0.49340  0.23930  Biso   1.000  H
  C389     1.0000 0.56340  0.58180  0.23720  Biso   1.000  C
  C390     1.0000 0.53970  0.61920  0.22370  Biso   1.000  C
  H215     1.0000 0.53900  0.66210  0.22860  Biso   1.000  H
  C391     1.0000 0.51720  0.59400  0.20310  Biso   1.000  C
  H216     1.0000 0.50110  0.61960  0.19380  Biso   1.000  H
  C392     1.0000 0.51830  0.53120  0.19590  Biso   1.000  C
  C393     1.0000 0.54190  0.49370  0.20940  Biso   1.000  C
  H217     1.0000 0.54270  0.45090  0.20450  Biso   1.000  H
  C394     1.0000 0.56550  0.65640  0.52981  Biso   1.000  C
  C395     1.0000 0.54230  0.69610  0.54040  Biso   1.000  C
  H218     1.0000 0.54120  0.73780  0.53350  Biso   1.000  H
  C396     1.0000 0.52084  0.67470  0.56130  Biso   1.000  C
  H219     1.0000 0.50500  0.70180  0.56850  Biso   1.000  H
  C397     1.0000 0.52250  0.61370  0.57144  Biso   1.000  C
  C398     1.0000 0.54560  0.57400  0.56080  Biso   1.000  C
  H220     1.0000 0.54670  0.53230  0.56780  Biso   1.000  H
  C399     1.0000 0.56710  0.59540  0.54000  Biso   1.000  C
  H221     1.0000 0.58290  0.56830  0.53270  Biso   1.000  H
  C400     1.0000 0.68150  0.71840  0.31530  Biso   1.000  C
  C401     1.0000 0.75840  0.79020  0.32380  Biso   1.000  C
  C402     1.0000 0.82388  0.90290  0.50116  Biso   1.000  C
  C403     1.0000 0.79550  0.93440  0.49434  Biso   1.000  C
  H222     1.0000 0.79150  0.97280  0.50410  Biso   1.000  H
  C404     1.0000 0.77320  0.90970  0.47329  Biso   1.000  C
  H223     1.0000 0.75380  0.93120  0.46860  Biso   1.000  H
  C405     1.0000 0.77919  0.85350  0.45907  Biso   1.000  C
  C406     1.0000 0.80750  0.82200  0.46589  Biso   1.000  C
  H224     1.0000 0.81160  0.78360  0.45620  Biso   1.000  H
  C407     1.0000 0.82987  0.84670  0.48690  Biso   1.000  C
  H225     1.0000 0.84920  0.82520  0.49160  Biso   1.000  H
  C408     1.0000 0.83245  0.79950  0.27870  Biso   1.000  C
  H226     1.0000 0.85310  0.78160  0.27940  Biso   1.000  H
  C409     1.0000 0.81080  0.78340  0.30042  Biso   1.000  C
  H227     1.0000 0.81670  0.75450  0.31600  Biso   1.000  H
  C410     1.0000 0.78050  0.80960  0.29933  Biso   1.000  C
  C411     1.0000 0.77190  0.85200  0.27650  Biso   1.000  C
  H228     1.0000 0.75120  0.86990  0.27570  Biso   1.000  H
  C412     1.0000 0.79350  0.86810  0.25472  Biso   1.000  C
  H229     1.0000 0.78760  0.89710  0.23910  Biso   1.000  H
  C413     1.0000 0.82380  0.84190  0.25580  Biso   1.000  C
  C414     1.0000 0.61420  0.66750  0.39850  Biso   1.000  C
  H230     1.0000 0.59830  0.65290  0.41150  Biso   1.000  H
  C415     1.0000 0.65400  0.68570  0.32560  Biso   1.000  C
  C416     1.0000 0.69060  0.71870  0.28450  Biso   1.000  C
  H231     1.0000 0.67850  0.70400  0.26710  Biso   1.000  H
  C417     1.0000 0.84850  0.86280  0.23507  Biso   1.000  C
  C418     1.0000 0.87330  0.82300  0.22850  Biso   1.000  C
  H232     1.0000 0.87500  0.78360  0.23820  Biso   1.000  H
  C419     1.0000 0.89570  0.84070  0.20780  Biso   1.000  C
  H233     1.0000 0.91270  0.81350  0.20330  Biso   1.000  H
  C420     1.0000 0.89330  0.89830  0.19359  Biso   1.000  C
  C421     1.0000 0.86840  0.93810  0.20010  Biso   1.000  C
  H234     1.0000 0.86680  0.97750  0.19040  Biso   1.000  H
  C422     1.0000 0.84610  0.92040  0.22090  Biso   1.000  C
  H235     1.0000 0.82910  0.94760  0.22530  Biso   1.000  H
  C423     1.0000 0.63060  0.65490  0.30400  Biso   1.000  C
  C424     1.0000 0.62430  0.59170  0.30310  Biso   1.000  C
  H236     1.0000 0.63440  0.56470  0.31770  Biso   1.000  H
  C425     1.0000 0.60310  0.56780  0.28080  Biso   1.000  C
  H237     1.0000 0.59870  0.52450  0.28010  Biso   1.000  H
  C426     1.0000 0.58820  0.60710  0.25938  Biso   1.000  C
  C427     1.0000 0.59460  0.67040  0.26030  Biso   1.000  C
  H238     1.0000 0.58440  0.69730  0.24570  Biso   1.000  H
  C428     1.0000 0.61580  0.69430  0.28260  Biso   1.000  C
  H239     1.0000 0.62010  0.73750  0.28330  Biso   1.000  H
  C429     1.0000 0.72040  0.74430  0.28510  Biso   1.000  C
  H240     1.0000 0.73280  0.75020  0.26770  Biso   1.000  H
  C430     1.0000 0.91700  0.91760  0.16930  Biso   1.000  C
  C431     1.0000 0.91650  0.00310  0.58720  Biso   1.000  C
  C432     1.0000 0.50010  0.58480  0.59430  Biso   1.000  C
  In13     1.0000 0.45741  0.45625  0.13047  Biso   1.000  In
  In14     1.0000 0.20736  0.75274  0.88160  Biso   1.000  In
  O49      1.0000 0.41810  0.44040  0.09130  Biso   1.000  O
  N25      1.0000 0.16100  0.78400  0.88270  Biso   1.000  N
  O50      1.0000 0.99760  0.96960  0.09790  Biso   1.000  O
  O51      1.0000 0.41860  0.52960  0.66230  Biso   1.000  O
  C433     1.0000 0.22690  0.69490  0.94570  Biso   1.000  C
  O52      1.0000 0.97830  0.95600  0.65690  Biso   1.000  O
  O53      1.0000 0.43380  0.53110  0.10380  Biso   1.000  O
  C434     1.0000 0.23000  0.73930  0.81520  Biso   1.000  C
  O54      1.0000 0.98230  0.87630  0.10760  Biso   1.000  O
  C435     1.0000 0.12875  0.78970  0.96121  Biso   1.000  C
  C436     1.0000 0.13888  0.82310  0.98710  Biso   1.000  C
  H241     1.0000 0.16050  0.83570  0.98970  Biso   1.000  H
  C437     1.0000 0.11730  0.83800  0.00909  Biso   1.000  C
  H242     1.0000 0.12430  0.86080  0.02680  Biso   1.000  H
  C438     1.0000 0.08570  0.81970  0.00528  Biso   1.000  C
  C439     1.0000 0.07554  0.78630  0.97940  Biso   1.000  C
  H243     1.0000 0.05390  0.77370  0.97680  Biso   1.000  H
  C440     1.0000 0.09710  0.77140  0.95740  Biso   1.000  C
  H244     1.0000 0.09020  0.74860  0.93970  Biso   1.000  H
  N26      1.0000 0.20550  0.72600  0.92910  Biso   1.000  N
  C441     1.0000 0.18020  0.74240  0.94690  Biso   1.000  C
  N27      1.0000 0.24820  0.70100  0.88060  Biso   1.000  N
  N28      1.0000 0.20540  0.75430  0.83400  Biso   1.000  N
  O55      1.0000 0.99430  0.04830  0.66890  Biso   1.000  O
  O56      1.0000 0.43420  0.62940  0.65900  Biso   1.000  O
  C442     1.0000 0.99530  0.98990  0.67210  Biso   1.000  C
  C443     1.0000 0.15120  0.77330  0.93690  Biso   1.000  C
  C444     1.0000 0.26690  0.67500  0.90510  Biso   1.000  C
  C445     1.0000 0.29390  0.64970  0.86380  Biso   1.000  C
  H245     1.0000 0.30970  0.63550  0.85060  Biso   1.000  H
  C446     1.0000 0.29360  0.64100  0.89450  Biso   1.000  C
  H246     1.0000 0.30820  0.61680  0.90660  Biso   1.000  H
  C447     1.0000 0.14240  0.79780  0.90710  Biso   1.000  C
  C448     1.0000 0.26590  0.68450  0.85490  Biso   1.000  C
  C449     1.0000 0.37350  0.48280  0.04780  Biso   1.000  C
  H247     1.0000 0.37630  0.43920  0.04960  Biso   1.000  H
  C450     1.0000 0.35090  0.50670  0.02680  Biso   1.000  C
  H248     1.0000 0.33830  0.47950  0.01420  Biso   1.000  H
  C451     1.0000 0.34680  0.57050  0.02413  Biso   1.000  C
  C452     1.0000 0.36530  0.61040  0.04260  Biso   1.000  C
  H249     1.0000 0.36250  0.65400  0.04080  Biso   1.000  H
  C453     1.0000 0.38780  0.58650  0.06363  Biso   1.000  C
  H250     1.0000 0.40040  0.61370  0.07620  Biso   1.000  H
  C454     1.0000 0.39193  0.52270  0.06627  Biso   1.000  C
  C455     1.0000 0.11520  0.83960  0.86820  Biso   1.000  C
  H251     1.0000 0.09930  0.86000  0.85570  Biso   1.000  H
  C456     1.0000 0.25620  0.67600  0.93530  Biso   1.000  C
  C457     1.0000 0.14380  0.81180  0.85710  Biso   1.000  C
  C458     1.0000 0.21570  0.68760  0.97670  Biso   1.000  C
  H252     1.0000 0.22680  0.66930  0.99380  Biso   1.000  H
  C459     1.0000 0.18610  0.71270  0.97560  Biso   1.000  C
  H253     1.0000 0.17160  0.71070  0.99160  Biso   1.000  H
  C460     1.0000 0.06450  0.98100  0.73010  Biso   1.000  C
  H254     1.0000 0.08060  0.00660  0.73930  Biso   1.000  H
  C461     1.0000 0.06340  0.91820  0.73720  Biso   1.000  C
  C462     1.0000 0.03970  0.88080  0.72370  Biso   1.000  C
  H255     1.0000 0.03900  0.83790  0.72860  Biso   1.000  H
  C463     1.0000 0.01720  0.90600  0.70310  Biso   1.000  C
  H256     1.0000 0.00110  0.88040  0.69380  Biso   1.000  H
  C464     1.0000 0.01830  0.96880  0.69590  Biso   1.000  C
  C465     1.0000 0.04190  0.00630  0.70940  Biso   1.000  C
  H257     1.0000 0.04270  0.04910  0.70450  Biso   1.000  H
  C466     1.0000 0.06550  0.84360  0.02981  Biso   1.000  C
  C467     1.0000 0.04230  0.80390  0.04040  Biso   1.000  C
  H258     1.0000 0.04120  0.76220  0.03350  Biso   1.000  H
  C468     1.0000 0.02084  0.82530  0.06130  Biso   1.000  C
  H259     1.0000 0.00500  0.79820  0.06850  Biso   1.000  H
  C469     1.0000 0.02250  0.88630  0.07144  Biso   1.000  C
  C470     1.0000 0.04560  0.92600  0.06080  Biso   1.000  C
  H260     1.0000 0.04670  0.96770  0.06780  Biso   1.000  H
  C471     1.0000 0.06710  0.90460  0.04000  Biso   1.000  C
  H261     1.0000 0.08290  0.93170  0.03270  Biso   1.000  H
  C472     1.0000 0.18150  0.78160  0.81530  Biso   1.000  C
  C473     1.0000 0.25840  0.70980  0.82380  Biso   1.000  C
  C474     1.0000 0.32388  0.59710  0.00116  Biso   1.000  C
  C475     1.0000 0.29550  0.56560  0.99434  Biso   1.000  C
  H262     1.0000 0.29150  0.52720  0.00410  Biso   1.000  H
  C476     1.0000 0.27320  0.59030  0.97329  Biso   1.000  C
  H263     1.0000 0.25380  0.56880  0.96860  Biso   1.000  H
  C477     1.0000 0.27919  0.64650  0.95907  Biso   1.000  C
  C478     1.0000 0.30750  0.67800  0.96589  Biso   1.000  C
  H264     1.0000 0.31160  0.71640  0.95620  Biso   1.000  H
  C479     1.0000 0.32987  0.65330  0.98690  Biso   1.000  C
  H265     1.0000 0.34920  0.67480  0.99160  Biso   1.000  H
  C480     1.0000 0.33245  0.70050  0.77870  Biso   1.000  C
  H266     1.0000 0.35310  0.71840  0.77940  Biso   1.000  H
  C481     1.0000 0.31080  0.71660  0.80042  Biso   1.000  C
  H267     1.0000 0.31670  0.74550  0.81600  Biso   1.000  H
  C482     1.0000 0.28050  0.69040  0.79933  Biso   1.000  C
  C483     1.0000 0.27190  0.64800  0.77650  Biso   1.000  C
  H268     1.0000 0.25120  0.63010  0.77570  Biso   1.000  H
  C484     1.0000 0.29350  0.63190  0.75472  Biso   1.000  C
  H269     1.0000 0.28760  0.60290  0.73910  Biso   1.000  H
  C485     1.0000 0.32380  0.65810  0.75580  Biso   1.000  C
  C486     1.0000 0.11420  0.83250  0.89850  Biso   1.000  C
  H270     1.0000 0.09830  0.84710  0.91150  Biso   1.000  H
  C487     1.0000 0.15400  0.81430  0.82560  Biso   1.000  C
  C488     1.0000 0.19060  0.78130  0.78450  Biso   1.000  C
  H271     1.0000 0.17850  0.79600  0.76710  Biso   1.000  H
  C489     1.0000 0.34850  0.63720  0.73507  Biso   1.000  C
  C490     1.0000 0.37330  0.67700  0.72850  Biso   1.000  C
  H272     1.0000 0.37500  0.71640  0.73820  Biso   1.000  H
  C491     1.0000 0.39570  0.65930  0.70780  Biso   1.000  C
  H273     1.0000 0.41270  0.68650  0.70330  Biso   1.000  H
  C492     1.0000 0.39330  0.60170  0.69359  Biso   1.000  C
  C493     1.0000 0.36840  0.56190  0.70010  Biso   1.000  C
  H274     1.0000 0.36680  0.52250  0.69040  Biso   1.000  H
  C494     1.0000 0.34610  0.57960  0.72090  Biso   1.000  C
  H275     1.0000 0.32910  0.55240  0.72530  Biso   1.000  H
  C495     1.0000 0.13060  0.84510  0.80400  Biso   1.000  C
  C496     1.0000 0.12430  0.90830  0.80310  Biso   1.000  C
  H276     1.0000 0.13440  0.93530  0.81770  Biso   1.000  H
  C497     1.0000 0.10310  0.93220  0.78080  Biso   1.000  C
  H277     1.0000 0.09870  0.97550  0.78010  Biso   1.000  H
  C498     1.0000 0.08820  0.89290  0.75938  Biso   1.000  C
  C499     1.0000 0.09460  0.82960  0.76030  Biso   1.000  C
  H278     1.0000 0.08440  0.80270  0.74570  Biso   1.000  H
  C500     1.0000 0.11580  0.80570  0.78260  Biso   1.000  C
  H279     1.0000 0.12010  0.76250  0.78330  Biso   1.000  H
  C501     1.0000 0.22040  0.75570  0.78510  Biso   1.000  C
  H280     1.0000 0.23280  0.74980  0.76770  Biso   1.000  H
  C502     1.0000 0.41700  0.58240  0.66930  Biso   1.000  C
  C503     1.0000 0.41650  0.49690  0.08720  Biso   1.000  C
  C504     1.0000 0.00010  0.91520  0.09430  Biso   1.000  C
  In15     1.0000 0.95741  0.95625  0.13047  Biso   1.000  In
  In16     1.0000 0.70736  0.25274  0.88160  Biso   1.000  In
  O57      1.0000 0.91810  0.94040  0.09130  Biso   1.000  O
  N29      1.0000 0.66100  0.28400  0.88270  Biso   1.000  N
  O58      1.0000 0.49760  0.46960  0.09790  Biso   1.000  O
  O59      1.0000 0.91860  0.02960  0.66230  Biso   1.000  O
  C505     1.0000 0.72690  0.19490  0.94570  Biso   1.000  C
  O60      1.0000 0.47830  0.45600  0.65690  Biso   1.000  O
  O61      1.0000 0.93380  0.03110  0.10380  Biso   1.000  O
  C506     1.0000 0.73000  0.23930  0.81520  Biso   1.000  C
  O62      1.0000 0.48230  0.37630  0.10760  Biso   1.000  O
  C507     1.0000 0.62875  0.28970  0.96121  Biso   1.000  C
  C508     1.0000 0.63888  0.32310  0.98710  Biso   1.000  C
  H281     1.0000 0.66050  0.33570  0.98970  Biso   1.000  H
  C509     1.0000 0.61730  0.33800  0.00909  Biso   1.000  C
  H282     1.0000 0.62430  0.36080  0.02680  Biso   1.000  H
  C510     1.0000 0.58570  0.31970  0.00528  Biso   1.000  C
  C511     1.0000 0.57554  0.28630  0.97940  Biso   1.000  C
  H283     1.0000 0.55390  0.27370  0.97680  Biso   1.000  H
  C512     1.0000 0.59710  0.27140  0.95740  Biso   1.000  C
  H284     1.0000 0.59020  0.24860  0.93970  Biso   1.000  H
  N30      1.0000 0.70550  0.22600  0.92910  Biso   1.000  N
  C513     1.0000 0.68020  0.24240  0.94690  Biso   1.000  C
  N31      1.0000 0.74820  0.20100  0.88060  Biso   1.000  N
  N32      1.0000 0.70540  0.25430  0.83400  Biso   1.000  N
  O63      1.0000 0.49430  0.54830  0.66890  Biso   1.000  O
  O64      1.0000 0.93420  0.12940  0.65900  Biso   1.000  O
  C514     1.0000 0.49530  0.48990  0.67210  Biso   1.000  C
  C515     1.0000 0.65120  0.27330  0.93690  Biso   1.000  C
  C516     1.0000 0.76690  0.17500  0.90510  Biso   1.000  C
  C517     1.0000 0.79390  0.14970  0.86380  Biso   1.000  C
  H285     1.0000 0.80970  0.13550  0.85060  Biso   1.000  H
  C518     1.0000 0.79360  0.14100  0.89450  Biso   1.000  C
  H286     1.0000 0.80820  0.11680  0.90660  Biso   1.000  H
  C519     1.0000 0.64240  0.29780  0.90710  Biso   1.000  C
  C520     1.0000 0.76590  0.18450  0.85490  Biso   1.000  C
  C521     1.0000 0.87350  0.98280  0.04780  Biso   1.000  C
  H287     1.0000 0.87630  0.93920  0.04960  Biso   1.000  H
  C522     1.0000 0.85090  0.00670  0.02680  Biso   1.000  C
  H288     1.0000 0.83830  0.97950  0.01420  Biso   1.000  H
  C523     1.0000 0.84680  0.07050  0.02413  Biso   1.000  C
  C524     1.0000 0.86530  0.11040  0.04260  Biso   1.000  C
  H289     1.0000 0.86250  0.15400  0.04080  Biso   1.000  H
  C525     1.0000 0.88780  0.08650  0.06363  Biso   1.000  C
  H290     1.0000 0.90040  0.11370  0.07620  Biso   1.000  H
  C526     1.0000 0.89193  0.02270  0.06627  Biso   1.000  C
  C527     1.0000 0.61520  0.33960  0.86820  Biso   1.000  C
  H291     1.0000 0.59930  0.36000  0.85570  Biso   1.000  H
  C528     1.0000 0.75620  0.17600  0.93530  Biso   1.000  C
  C529     1.0000 0.64380  0.31180  0.85710  Biso   1.000  C
  C530     1.0000 0.71570  0.18760  0.97670  Biso   1.000  C
  H292     1.0000 0.72680  0.16930  0.99380  Biso   1.000  H
  C531     1.0000 0.68610  0.21270  0.97560  Biso   1.000  C
  H293     1.0000 0.67160  0.21070  0.99160  Biso   1.000  H
  C532     1.0000 0.56450  0.48100  0.73010  Biso   1.000  C
  H294     1.0000 0.58060  0.50660  0.73930  Biso   1.000  H
  C533     1.0000 0.56340  0.41820  0.73720  Biso   1.000  C
  C534     1.0000 0.53970  0.38080  0.72370  Biso   1.000  C
  H295     1.0000 0.53900  0.33790  0.72860  Biso   1.000  H
  C535     1.0000 0.51720  0.40600  0.70310  Biso   1.000  C
  H296     1.0000 0.50110  0.38040  0.69380  Biso   1.000  H
  C536     1.0000 0.51830  0.46880  0.69590  Biso   1.000  C
  C537     1.0000 0.54190  0.50630  0.70940  Biso   1.000  C
  H297     1.0000 0.54270  0.54910  0.70450  Biso   1.000  H
  C538     1.0000 0.56550  0.34360  0.02981  Biso   1.000  C
  C539     1.0000 0.54230  0.30390  0.04040  Biso   1.000  C
  H298     1.0000 0.54120  0.26220  0.03350  Biso   1.000  H
  C540     1.0000 0.52084  0.32530  0.06130  Biso   1.000  C
  H299     1.0000 0.50500  0.29820  0.06850  Biso   1.000  H
  C541     1.0000 0.52250  0.38630  0.07144  Biso   1.000  C
  C542     1.0000 0.54560  0.42600  0.06080  Biso   1.000  C
  H300     1.0000 0.54670  0.46770  0.06780  Biso   1.000  H
  C543     1.0000 0.56710  0.40460  0.04000  Biso   1.000  C
  H301     1.0000 0.58290  0.43170  0.03270  Biso   1.000  H
  C544     1.0000 0.68150  0.28160  0.81530  Biso   1.000  C
  C545     1.0000 0.75840  0.20980  0.82380  Biso   1.000  C
  C546     1.0000 0.82388  0.09710  0.00116  Biso   1.000  C
  C547     1.0000 0.79550  0.06560  0.99434  Biso   1.000  C
  H302     1.0000 0.79150  0.02720  0.00410  Biso   1.000  H
  C548     1.0000 0.77320  0.09030  0.97329  Biso   1.000  C
  H303     1.0000 0.75380  0.06880  0.96860  Biso   1.000  H
  C549     1.0000 0.77919  0.14650  0.95907  Biso   1.000  C
  C550     1.0000 0.80750  0.17800  0.96589  Biso   1.000  C
  H304     1.0000 0.81160  0.21640  0.95620  Biso   1.000  H
  C551     1.0000 0.82987  0.15330  0.98690  Biso   1.000  C
  H305     1.0000 0.84920  0.17480  0.99160  Biso   1.000  H
  C552     1.0000 0.83245  0.20050  0.77870  Biso   1.000  C
  H306     1.0000 0.85310  0.21840  0.77940  Biso   1.000  H
  C553     1.0000 0.81080  0.21660  0.80042  Biso   1.000  C
  H307     1.0000 0.81670  0.24550  0.81600  Biso   1.000  H
  C554     1.0000 0.78050  0.19040  0.79933  Biso   1.000  C
  C555     1.0000 0.77190  0.14800  0.77650  Biso   1.000  C
  H308     1.0000 0.75120  0.13010  0.77570  Biso   1.000  H
  C556     1.0000 0.79350  0.13190  0.75472  Biso   1.000  C
  H309     1.0000 0.78760  0.10290  0.73910  Biso   1.000  H
  C557     1.0000 0.82380  0.15810  0.75580  Biso   1.000  C
  C558     1.0000 0.61420  0.33250  0.89850  Biso   1.000  C
  H310     1.0000 0.59830  0.34710  0.91150  Biso   1.000  H
  C559     1.0000 0.65400  0.31430  0.82560  Biso   1.000  C
  C560     1.0000 0.69060  0.28130  0.78450  Biso   1.000  C
  H311     1.0000 0.67850  0.29600  0.76710  Biso   1.000  H
  C561     1.0000 0.84850  0.13720  0.73507  Biso   1.000  C
  C562     1.0000 0.87330  0.17700  0.72850  Biso   1.000  C
  H312     1.0000 0.87500  0.21640  0.73820  Biso   1.000  H
  C563     1.0000 0.89570  0.15930  0.70780  Biso   1.000  C
  H313     1.0000 0.91270  0.18650  0.70330  Biso   1.000  H
  C564     1.0000 0.89330  0.10170  0.69359  Biso   1.000  C
  C565     1.0000 0.86840  0.06190  0.70010  Biso   1.000  C
  H314     1.0000 0.86680  0.02250  0.69040  Biso   1.000  H
  C566     1.0000 0.84610  0.07960  0.72090  Biso   1.000  C
  H315     1.0000 0.82910  0.05240  0.72530  Biso   1.000  H
  C567     1.0000 0.63060  0.34510  0.80400  Biso   1.000  C
  C568     1.0000 0.62430  0.40830  0.80310  Biso   1.000  C
  H316     1.0000 0.63440  0.43530  0.81770  Biso   1.000  H
  C569     1.0000 0.60310  0.43220  0.78080  Biso   1.000  C
  H317     1.0000 0.59870  0.47550  0.78010  Biso   1.000  H
  C570     1.0000 0.58820  0.39290  0.75938  Biso   1.000  C
  C571     1.0000 0.59460  0.32960  0.76030  Biso   1.000  C
  H318     1.0000 0.58440  0.30270  0.74570  Biso   1.000  H
  C572     1.0000 0.61580  0.30570  0.78260  Biso   1.000  C
  H319     1.0000 0.62010  0.26250  0.78330  Biso   1.000  H
  C573     1.0000 0.72040  0.25570  0.78510  Biso   1.000  C
  H320     1.0000 0.73280  0.24980  0.76770  Biso   1.000  H
  C574     1.0000 0.91700  0.08240  0.66930  Biso   1.000  C
  C575     1.0000 0.91650  0.99690  0.08720  Biso   1.000  C
  C576     1.0000 0.50010  0.41520  0.09430  Biso   1.000  C
  In17     1.0000 0.18052  0.95588  0.06147  Biso   1.000  In
  In18     1.0000 0.93470  0.73104  0.31204  Biso   1.000  In
  C577     1.0000 0.98710  0.76600  0.25410  Biso   1.000  C
  C578     1.0000 0.91310  0.71630  0.37920  Biso   1.000  C
  N33      1.0000 0.93850  0.71410  0.26440  Biso   1.000  N
  O65      1.0000 0.70400  0.53270  0.08810  Biso   1.000  O
  C579     1.0000 0.96100  0.73190  0.24610  Biso   1.000  C
  N34      1.0000 0.93710  0.73580  0.35950  Biso   1.000  N
  O66      1.0000 0.14150  0.96400  0.09560  Biso   1.000  O
  N35      1.0000 0.98040  0.76900  0.31090  Biso   1.000  N
  C580     1.0000 0.13920  0.90620  0.10040  Biso   1.000  C
  O67      1.0000 0.15480  0.87990  0.08160  Biso   1.000  O
  C581     1.0000 0.99810  0.78010  0.28510  Biso   1.000  C
  C582     1.0000 0.91630  0.67570  0.24820  Biso   1.000  C
  C583     1.0000 0.84460  0.64290  0.32840  Biso   1.000  C
  H321     1.0000 0.82830  0.62770  0.34070  Biso   1.000  H
  C584     1.0000 0.84640  0.63880  0.29800  Biso   1.000  C
  H322     1.0000 0.82910  0.62260  0.28580  Biso   1.000  H
  C585     1.0000 0.72400  0.49530  0.09980  Biso   1.000  C
  C586     1.0000 0.02490  0.81530  0.29380  Biso   1.000  C
  H323     1.0000 0.04290  0.82460  0.28220  Biso   1.000  H
  C587     1.0000 0.07130  0.83930  0.16150  Biso   1.000  C
  C588     1.0000 0.06710  0.89750  0.14830  Biso   1.000  C
  H324     1.0000 0.04920  0.92200  0.15300  Biso   1.000  H
  C589     1.0000 0.08920  0.92000  0.12830  Biso   1.000  C
  H325     1.0000 0.08630  0.95980  0.11930  Biso   1.000  H
  C590     1.0000 0.11540  0.88420  0.12150  Biso   1.000  C
  C591     1.0000 0.11970  0.82590  0.13470  Biso   1.000  C
  H326     1.0000 0.13760  0.80150  0.13000  Biso   1.000  H
  C592     1.0000 0.09760  0.80350  0.15470  Biso   1.000  C
  H327     1.0000 0.10050  0.76370  0.16370  Biso   1.000  H
  C593     1.0000 0.99470  0.80010  0.33730  Biso   1.000  C
  C594     1.0000 0.88370  0.68870  0.36800  Biso   1.000  C
  C595     1.0000 0.95980  0.76090  0.37800  Biso   1.000  C
  C596     1.0000 0.86650  0.62850  0.22940  Biso   1.000  C
  C597     1.0000 0.85350  0.66780  0.20690  Biso   1.000  C
  H328     1.0000 0.85990  0.71000  0.20640  Biso   1.000  H
  C598     1.0000 0.83120  0.64520  0.18530  Biso   1.000  C
  H329     1.0000 0.82230  0.67200  0.16990  Biso   1.000  H
  C599     1.0000 0.82190  0.58330  0.18610  Biso   1.000  C
  C600     1.0000 0.83490  0.54410  0.20860  Biso   1.000  C
  H330     1.0000 0.82860  0.50180  0.20910  Biso   1.000  H
  C601     1.0000 0.85720  0.56670  0.23020  Biso   1.000  C
  H331     1.0000 0.86610  0.53990  0.24560  Biso   1.000  H
  C602     1.0000 0.93010  0.67600  0.21870  Biso   1.000  C
  H332     1.0000 0.92010  0.65630  0.20140  Biso   1.000  H
  O68      1.0000 0.72140  0.43640  0.09580  Biso   1.000  O
  C603     1.0000 0.87390  0.65860  0.28480  Biso   1.000  C
  N36      1.0000 0.88900  0.68330  0.31140  Biso   1.000  N
  C604     1.0000 0.95750  0.70540  0.21730  Biso   1.000  C
  H333     1.0000 0.97130  0.70780  0.20080  Biso   1.000  H
  C605     1.0000 0.94700  0.76620  0.40730  Biso   1.000  C
  H334     1.0000 0.95600  0.79180  0.42310  Biso   1.000  H
  C606     1.0000 0.88530  0.65540  0.25570  Biso   1.000  C
  C607     1.0000 0.06280  0.77950  0.21010  Biso   1.000  C
  H335     1.0000 0.08480  0.76910  0.21220  Biso   1.000  H
  C608     1.0000 0.05130  0.81260  0.18470  Biso   1.000  C
  C609     1.0000 0.01910  0.82780  0.18160  Biso   1.000  C
  H336     1.0000 0.01120  0.85050  0.16430  Biso   1.000  H
  C610     1.0000 0.99850  0.80990  0.20400  Biso   1.000  C
  H337     1.0000 0.97650  0.82030  0.20190  Biso   1.000  H
  C611     1.0000 0.01010  0.77670  0.22940  Biso   1.000  C
  C612     1.0000 0.04220  0.76150  0.23240  Biso   1.000  C
  H338     1.0000 0.05010  0.73890  0.24980  Biso   1.000  H
  C613     1.0000 0.92160  0.73220  0.41020  Biso   1.000  C
  H339     1.0000 0.91140  0.72100  0.42830  Biso   1.000  H
  C614     1.0000 0.98450  0.79410  0.36690  Biso   1.000  C
  C615     1.0000 0.86090  0.67000  0.39210  Biso   1.000  C
  C616     1.0000 0.83100  0.69760  0.39210  Biso   1.000  C
  H340     1.0000 0.82510  0.72800  0.37720  Biso   1.000  H
  C617     1.0000 0.80960  0.68060  0.41390  Biso   1.000  C
  H341     1.0000 0.78920  0.69950  0.41400  Biso   1.000  H
  C618     1.0000 0.81820  0.63610  0.43580  Biso   1.000  C
  C619     1.0000 0.84810  0.60850  0.43580  Biso   1.000  C
  H342     1.0000 0.85390  0.57810  0.45070  Biso   1.000  H
  C620     1.0000 0.86940  0.62540  0.41390  Biso   1.000  C
  H343     1.0000 0.88990  0.60660  0.41390  Biso   1.000  H
  C621     1.0000 0.74690  0.57770  0.13500  Biso   1.000  C
  H344     1.0000 0.72960  0.60370  0.12840  Biso   1.000  H
  C622     1.0000 0.77010  0.59980  0.15590  Biso   1.000  C
  H345     1.0000 0.76870  0.64080  0.16360  Biso   1.000  H
  C623     1.0000 0.79540  0.56170  0.16550  Biso   1.000  C
  C624     1.0000 0.79730  0.50160  0.15420  Biso   1.000  C
  H346     1.0000 0.81460  0.47560  0.16080  Biso   1.000  H
  C625     1.0000 0.77410  0.47960  0.13330  Biso   1.000  C
  H347     1.0000 0.77550  0.43850  0.12560  Biso   1.000  H
  C626     1.0000 0.74890  0.51760  0.12370  Biso   1.000  C
  C627     1.0000 0.87280  0.67530  0.33790  Biso   1.000  C
  C628     1.0000 0.05130  0.87680  0.43310  Biso   1.000  C
  C629     1.0000 0.03050  0.91310  0.41510  Biso   1.000  C
  H348     1.0000 0.03080  0.95700  0.41730  Biso   1.000  H
  C630     1.0000 0.00930  0.88530  0.39390  Biso   1.000  C
  H349     1.0000 0.99510  0.91010  0.38160  Biso   1.000  H
  C631     1.0000 0.00890  0.82120  0.39080  Biso   1.000  C
  C632     1.0000 0.02970  0.78480  0.40880  Biso   1.000  C
  H350     1.0000 0.02950  0.74100  0.40660  Biso   1.000  H
  C633     1.0000 0.05090  0.81270  0.42990  Biso   1.000  C
  H351     1.0000 0.06510  0.78780  0.44220  Biso   1.000  H
  C634     1.0000 0.79560  0.61960  0.45960  Biso   1.000  C
  C635     1.0000 0.77390  0.66470  0.46760  Biso   1.000  C
  H352     1.0000 0.77500  0.70520  0.45910  Biso   1.000  H
  C636     1.0000 0.75070  0.65070  0.48820  Biso   1.000  C
  H353     1.0000 0.73590  0.68160  0.49370  Biso   1.000  H
  C637     1.0000 0.74920  0.59160  0.50070  Biso   1.000  C
  C638     1.0000 0.77090  0.54640  0.49260  Biso   1.000  C
  H354     1.0000 0.76980  0.50600  0.50110  Biso   1.000  H
  C639     1.0000 0.79410  0.56040  0.47200  Biso   1.000  C
  H355     1.0000 0.80890  0.52960  0.46650  Biso   1.000  H
  O69      1.0000 0.14470  0.04180  0.52330  Biso   1.000  O
  C640     1.0000 0.13770  0.98780  0.52160  Biso   1.000  C
  O70      1.0000 0.72230  0.51370  0.53060  Biso   1.000  O
  O71      1.0000 0.15080  0.96300  0.54190  Biso   1.000  O
  O72      1.0000 0.70340  0.61030  0.53220  Biso   1.000  O
  C641     1.0000 0.72490  0.57170  0.52300  Biso   1.000  C
  C642     1.0000 0.10380  0.89970  0.50300  Biso   1.000  C
  H356     1.0000 0.11140  0.87490  0.51970  Biso   1.000  H
  C643     1.0000 0.11390  0.96090  0.50060  Biso   1.000  C
  C644     1.0000 0.10290  0.99720  0.47610  Biso   1.000  C
  H357     1.0000 0.10980  0.03890  0.47440  Biso   1.000  H
  C645     1.0000 0.08180  0.97230  0.45400  Biso   1.000  C
  H358     1.0000 0.07420  0.99710  0.43720  Biso   1.000  H
  C646     1.0000 0.07170  0.91120  0.45640  Biso   1.000  C
  C647     1.0000 0.08270  0.87490  0.48090  Biso   1.000  C
  H359     1.0000 0.07580  0.83310  0.48250  Biso   1.000  H
  C648     1.0000 0.01930  0.83270  0.32230  Biso   1.000  C
  H360     1.0000 0.03110  0.86520  0.33210  Biso   1.000  H
  In19     1.0000 0.68052  0.45588  0.06147  Biso   1.000  In
  In20     1.0000 0.43470  0.23104  0.31204  Biso   1.000  In
  C649     1.0000 0.48710  0.26600  0.25410  Biso   1.000  C
  C650     1.0000 0.41310  0.21630  0.37920  Biso   1.000  C
  N37      1.0000 0.43850  0.21410  0.26440  Biso   1.000  N
  O73      1.0000 0.20400  0.03270  0.08810  Biso   1.000  O
  C651     1.0000 0.46100  0.23190  0.24610  Biso   1.000  C
  N38      1.0000 0.43710  0.23580  0.35950  Biso   1.000  N
  O74      1.0000 0.64150  0.46400  0.09560  Biso   1.000  O
  N39      1.0000 0.48040  0.26900  0.31090  Biso   1.000  N
  C652     1.0000 0.63920  0.40620  0.10040  Biso   1.000  C
  O75      1.0000 0.65480  0.37990  0.08160  Biso   1.000  O
  C653     1.0000 0.49810  0.28010  0.28510  Biso   1.000  C
  C654     1.0000 0.41630  0.17570  0.24820  Biso   1.000  C
  C655     1.0000 0.34460  0.14290  0.32840  Biso   1.000  C
  H361     1.0000 0.32830  0.12770  0.34070  Biso   1.000  H
  C656     1.0000 0.34640  0.13880  0.29800  Biso   1.000  C
  H362     1.0000 0.32910  0.12260  0.28580  Biso   1.000  H
  C657     1.0000 0.22400  0.99530  0.09980  Biso   1.000  C
  C658     1.0000 0.52490  0.31530  0.29380  Biso   1.000  C
  H363     1.0000 0.54290  0.32460  0.28220  Biso   1.000  H
  C659     1.0000 0.57130  0.33930  0.16150  Biso   1.000  C
  C660     1.0000 0.56710  0.39750  0.14830  Biso   1.000  C
  H364     1.0000 0.54920  0.42200  0.15300  Biso   1.000  H
  C661     1.0000 0.58920  0.42000  0.12830  Biso   1.000  C
  H365     1.0000 0.58630  0.45980  0.11930  Biso   1.000  H
  C662     1.0000 0.61540  0.38420  0.12150  Biso   1.000  C
  C663     1.0000 0.61970  0.32590  0.13470  Biso   1.000  C
  H366     1.0000 0.63760  0.30150  0.13000  Biso   1.000  H
  C664     1.0000 0.59760  0.30350  0.15470  Biso   1.000  C
  H367     1.0000 0.60050  0.26370  0.16370  Biso   1.000  H
  C665     1.0000 0.49470  0.30010  0.33730  Biso   1.000  C
  C666     1.0000 0.38370  0.18870  0.36800  Biso   1.000  C
  C667     1.0000 0.45980  0.26090  0.37800  Biso   1.000  C
  C668     1.0000 0.36650  0.12850  0.22940  Biso   1.000  C
  C669     1.0000 0.35350  0.16780  0.20690  Biso   1.000  C
  H368     1.0000 0.35990  0.21000  0.20640  Biso   1.000  H
  C670     1.0000 0.33120  0.14520  0.18530  Biso   1.000  C
  H369     1.0000 0.32230  0.17200  0.16990  Biso   1.000  H
  C671     1.0000 0.32190  0.08330  0.18610  Biso   1.000  C
  C672     1.0000 0.33490  0.04410  0.20860  Biso   1.000  C
  H370     1.0000 0.32860  0.00180  0.20910  Biso   1.000  H
  C673     1.0000 0.35720  0.06670  0.23020  Biso   1.000  C
  H371     1.0000 0.36610  0.03990  0.24560  Biso   1.000  H
  C674     1.0000 0.43010  0.17600  0.21870  Biso   1.000  C
  H372     1.0000 0.42010  0.15630  0.20140  Biso   1.000  H
  O76      1.0000 0.22140  0.93640  0.09580  Biso   1.000  O
  C675     1.0000 0.37390  0.15860  0.28480  Biso   1.000  C
  N40      1.0000 0.38900  0.18330  0.31140  Biso   1.000  N
  C676     1.0000 0.45750  0.20540  0.21730  Biso   1.000  C
  H373     1.0000 0.47130  0.20780  0.20080  Biso   1.000  H
  C677     1.0000 0.44700  0.26620  0.40730  Biso   1.000  C
  H374     1.0000 0.45600  0.29180  0.42310  Biso   1.000  H
  C678     1.0000 0.38530  0.15540  0.25570  Biso   1.000  C
  C679     1.0000 0.56280  0.27950  0.21010  Biso   1.000  C
  H375     1.0000 0.58480  0.26910  0.21220  Biso   1.000  H
  C680     1.0000 0.55130  0.31260  0.18470  Biso   1.000  C
  C681     1.0000 0.51910  0.32780  0.18160  Biso   1.000  C
  H376     1.0000 0.51120  0.35050  0.16430  Biso   1.000  H
  C682     1.0000 0.49850  0.30990  0.20400  Biso   1.000  C
  H377     1.0000 0.47650  0.32030  0.20190  Biso   1.000  H
  C683     1.0000 0.51010  0.27670  0.22940  Biso   1.000  C
  C684     1.0000 0.54220  0.26150  0.23240  Biso   1.000  C
  H378     1.0000 0.55010  0.23890  0.24980  Biso   1.000  H
  C685     1.0000 0.42160  0.23220  0.41020  Biso   1.000  C
  H379     1.0000 0.41140  0.22100  0.42830  Biso   1.000  H
  C686     1.0000 0.48450  0.29410  0.36690  Biso   1.000  C
  C687     1.0000 0.36090  0.17000  0.39210  Biso   1.000  C
  C688     1.0000 0.33100  0.19760  0.39210  Biso   1.000  C
  H380     1.0000 0.32510  0.22800  0.37720  Biso   1.000  H
  C689     1.0000 0.30960  0.18060  0.41390  Biso   1.000  C
  H381     1.0000 0.28920  0.19950  0.41400  Biso   1.000  H
  C690     1.0000 0.31820  0.13610  0.43580  Biso   1.000  C
  C691     1.0000 0.34810  0.10850  0.43580  Biso   1.000  C
  H382     1.0000 0.35390  0.07810  0.45070  Biso   1.000  H
  C692     1.0000 0.36940  0.12540  0.41390  Biso   1.000  C
  H383     1.0000 0.38990  0.10660  0.41390  Biso   1.000  H
  C693     1.0000 0.24690  0.07770  0.13500  Biso   1.000  C
  H384     1.0000 0.22960  0.10370  0.12840  Biso   1.000  H
  C694     1.0000 0.27010  0.09980  0.15590  Biso   1.000  C
  H385     1.0000 0.26870  0.14080  0.16360  Biso   1.000  H
  C695     1.0000 0.29540  0.06170  0.16550  Biso   1.000  C
  C696     1.0000 0.29730  0.00160  0.15420  Biso   1.000  C
  H386     1.0000 0.31460  0.97560  0.16080  Biso   1.000  H
  C697     1.0000 0.27410  0.97960  0.13330  Biso   1.000  C
  H387     1.0000 0.27550  0.93850  0.12560  Biso   1.000  H
  C698     1.0000 0.24890  0.01760  0.12370  Biso   1.000  C
  C699     1.0000 0.37280  0.17530  0.33790  Biso   1.000  C
  C700     1.0000 0.55130  0.37680  0.43310  Biso   1.000  C
  C701     1.0000 0.53050  0.41310  0.41510  Biso   1.000  C
  H388     1.0000 0.53080  0.45700  0.41730  Biso   1.000  H
  C702     1.0000 0.50930  0.38530  0.39390  Biso   1.000  C
  H389     1.0000 0.49510  0.41010  0.38160  Biso   1.000  H
  C703     1.0000 0.50890  0.32120  0.39080  Biso   1.000  C
  C704     1.0000 0.52970  0.28480  0.40880  Biso   1.000  C
  H390     1.0000 0.52950  0.24100  0.40660  Biso   1.000  H
  C705     1.0000 0.55090  0.31270  0.42990  Biso   1.000  C
  H391     1.0000 0.56510  0.28780  0.44220  Biso   1.000  H
  C706     1.0000 0.29560  0.11960  0.45960  Biso   1.000  C
  C707     1.0000 0.27390  0.16470  0.46760  Biso   1.000  C
  H392     1.0000 0.27500  0.20520  0.45910  Biso   1.000  H
  C708     1.0000 0.25070  0.15070  0.48820  Biso   1.000  C
  H393     1.0000 0.23590  0.18160  0.49370  Biso   1.000  H
  C709     1.0000 0.24920  0.09160  0.50070  Biso   1.000  C
  C710     1.0000 0.27090  0.04640  0.49260  Biso   1.000  C
  H394     1.0000 0.26980  0.00600  0.50110  Biso   1.000  H
  C711     1.0000 0.29410  0.06040  0.47200  Biso   1.000  C
  H395     1.0000 0.30890  0.02960  0.46650  Biso   1.000  H
  O77      1.0000 0.64470  0.54180  0.52330  Biso   1.000  O
  C712     1.0000 0.63770  0.48780  0.52160  Biso   1.000  C
  O78      1.0000 0.22230  0.01370  0.53060  Biso   1.000  O
  O79      1.0000 0.65080  0.46300  0.54190  Biso   1.000  O
  O80      1.0000 0.20340  0.11030  0.53220  Biso   1.000  O
  C713     1.0000 0.22490  0.07170  0.52300  Biso   1.000  C
  C714     1.0000 0.60380  0.39970  0.50300  Biso   1.000  C
  H396     1.0000 0.61140  0.37490  0.51970  Biso   1.000  H
  C715     1.0000 0.61390  0.46090  0.50060  Biso   1.000  C
  C716     1.0000 0.60290  0.49720  0.47610  Biso   1.000  C
  H397     1.0000 0.60980  0.53890  0.47440  Biso   1.000  H
  C717     1.0000 0.58180  0.47230  0.45400  Biso   1.000  C
  H398     1.0000 0.57420  0.49710  0.43720  Biso   1.000  H
  C718     1.0000 0.57170  0.41120  0.45640  Biso   1.000  C
  C719     1.0000 0.58270  0.37490  0.48090  Biso   1.000  C
  H399     1.0000 0.57580  0.33310  0.48250  Biso   1.000  H
  C720     1.0000 0.51930  0.33270  0.32230  Biso   1.000  C
  H400     1.0000 0.53110  0.36520  0.33210  Biso   1.000  H
  In21     1.0000 0.18052  0.04412  0.56147  Biso   1.000  In
  In22     1.0000 0.93470  0.26896  0.81204  Biso   1.000  In
  C721     1.0000 0.98710  0.23400  0.75410  Biso   1.000  C
  C722     1.0000 0.91310  0.28370  0.87920  Biso   1.000  C
  N41      1.0000 0.93850  0.28590  0.76440  Biso   1.000  N
  O81      1.0000 0.70400  0.46730  0.58810  Biso   1.000  O
  C723     1.0000 0.96100  0.26810  0.74610  Biso   1.000  C
  N42      1.0000 0.93710  0.26420  0.85950  Biso   1.000  N
  O82      1.0000 0.14150  0.03600  0.59560  Biso   1.000  O
  N43      1.0000 0.98040  0.23100  0.81090  Biso   1.000  N
  C724     1.0000 0.13920  0.09380  0.60040  Biso   1.000  C
  O83      1.0000 0.15480  0.12010  0.58160  Biso   1.000  O
  C725     1.0000 0.99810  0.21990  0.78510  Biso   1.000  C
  C726     1.0000 0.91630  0.32430  0.74820  Biso   1.000  C
  C727     1.0000 0.84460  0.35710  0.82840  Biso   1.000  C
  H401     1.0000 0.82830  0.37230  0.84070  Biso   1.000  H
  C728     1.0000 0.84640  0.36120  0.79800  Biso   1.000  C
  H402     1.0000 0.82910  0.37740  0.78580  Biso   1.000  H
  C729     1.0000 0.72400  0.50470  0.59980  Biso   1.000  C
  C730     1.0000 0.02490  0.18470  0.79380  Biso   1.000  C
  H403     1.0000 0.04290  0.17540  0.78220  Biso   1.000  H
  C731     1.0000 0.07130  0.16070  0.66150  Biso   1.000  C
  C732     1.0000 0.06710  0.10250  0.64830  Biso   1.000  C
  H404     1.0000 0.04920  0.07800  0.65300  Biso   1.000  H
  C733     1.0000 0.08920  0.08000  0.62830  Biso   1.000  C
  H405     1.0000 0.08630  0.04020  0.61930  Biso   1.000  H
  C734     1.0000 0.11540  0.11580  0.62150  Biso   1.000  C
  C735     1.0000 0.11970  0.17410  0.63470  Biso   1.000  C
  H406     1.0000 0.13760  0.19850  0.63000  Biso   1.000  H
  C736     1.0000 0.09760  0.19650  0.65470  Biso   1.000  C
  H407     1.0000 0.10050  0.23630  0.66370  Biso   1.000  H
  C737     1.0000 0.99470  0.19990  0.83730  Biso   1.000  C
  C738     1.0000 0.88370  0.31130  0.86800  Biso   1.000  C
  C739     1.0000 0.95980  0.23910  0.87800  Biso   1.000  C
  C740     1.0000 0.86650  0.37150  0.72940  Biso   1.000  C
  C741     1.0000 0.85350  0.33220  0.70690  Biso   1.000  C
  H408     1.0000 0.85990  0.29000  0.70640  Biso   1.000  H
  C742     1.0000 0.83120  0.35480  0.68530  Biso   1.000  C
  H409     1.0000 0.82230  0.32800  0.66990  Biso   1.000  H
  C743     1.0000 0.82190  0.41670  0.68610  Biso   1.000  C
  C744     1.0000 0.83490  0.45590  0.70860  Biso   1.000  C
  H410     1.0000 0.82860  0.49820  0.70910  Biso   1.000  H
  C745     1.0000 0.85720  0.43330  0.73020  Biso   1.000  C
  H411     1.0000 0.86610  0.46010  0.74560  Biso   1.000  H
  C746     1.0000 0.93010  0.32400  0.71870  Biso   1.000  C
  H412     1.0000 0.92010  0.34370  0.70140  Biso   1.000  H
  O84      1.0000 0.72140  0.56360  0.59580  Biso   1.000  O
  C747     1.0000 0.87390  0.34140  0.78480  Biso   1.000  C
  N44      1.0000 0.88900  0.31670  0.81140  Biso   1.000  N
  C748     1.0000 0.95750  0.29460  0.71730  Biso   1.000  C
  H413     1.0000 0.97130  0.29220  0.70080  Biso   1.000  H
  C749     1.0000 0.94700  0.23380  0.90730  Biso   1.000  C
  H414     1.0000 0.95600  0.20820  0.92310  Biso   1.000  H
  C750     1.0000 0.88530  0.34460  0.75570  Biso   1.000  C
  C751     1.0000 0.06280  0.22050  0.71010  Biso   1.000  C
  H415     1.0000 0.08480  0.23090  0.71220  Biso   1.000  H
  C752     1.0000 0.05130  0.18740  0.68470  Biso   1.000  C
  C753     1.0000 0.01910  0.17220  0.68160  Biso   1.000  C
  H416     1.0000 0.01120  0.14950  0.66430  Biso   1.000  H
  C754     1.0000 0.99850  0.19010  0.70400  Biso   1.000  C
  H417     1.0000 0.97650  0.17970  0.70190  Biso   1.000  H
  C755     1.0000 0.01010  0.22330  0.72940  Biso   1.000  C
  C756     1.0000 0.04220  0.23850  0.73240  Biso   1.000  C
  H418     1.0000 0.05010  0.26110  0.74980  Biso   1.000  H
  C757     1.0000 0.92160  0.26780  0.91020  Biso   1.000  C
  H419     1.0000 0.91140  0.27900  0.92830  Biso   1.000  H
  C758     1.0000 0.98450  0.20590  0.86690  Biso   1.000  C
  C759     1.0000 0.86090  0.33000  0.89210  Biso   1.000  C
  C760     1.0000 0.83100  0.30240  0.89210  Biso   1.000  C
  H420     1.0000 0.82510  0.27200  0.87720  Biso   1.000  H
  C761     1.0000 0.80960  0.31940  0.91390  Biso   1.000  C
  H421     1.0000 0.78920  0.30050  0.91400  Biso   1.000  H
  C762     1.0000 0.81820  0.36390  0.93580  Biso   1.000  C
  C763     1.0000 0.84810  0.39150  0.93580  Biso   1.000  C
  H422     1.0000 0.85390  0.42190  0.95070  Biso   1.000  H
  C764     1.0000 0.86940  0.37460  0.91390  Biso   1.000  C
  H423     1.0000 0.88990  0.39340  0.91390  Biso   1.000  H
  C765     1.0000 0.74690  0.42230  0.63500  Biso   1.000  C
  H424     1.0000 0.72960  0.39630  0.62840  Biso   1.000  H
  C766     1.0000 0.77010  0.40020  0.65590  Biso   1.000  C
  H425     1.0000 0.76870  0.35920  0.66360  Biso   1.000  H
  C767     1.0000 0.79540  0.43830  0.66550  Biso   1.000  C
  C768     1.0000 0.79730  0.49840  0.65420  Biso   1.000  C
  H426     1.0000 0.81460  0.52440  0.66080  Biso   1.000  H
  C769     1.0000 0.77410  0.52040  0.63330  Biso   1.000  C
  H427     1.0000 0.77550  0.56150  0.62560  Biso   1.000  H
  C770     1.0000 0.74890  0.48240  0.62370  Biso   1.000  C
  C771     1.0000 0.87280  0.32470  0.83790  Biso   1.000  C
  C772     1.0000 0.05130  0.12320  0.93310  Biso   1.000  C
  C773     1.0000 0.03050  0.08690  0.91510  Biso   1.000  C
  H428     1.0000 0.03080  0.04300  0.91730  Biso   1.000  H
  C774     1.0000 0.00930  0.11470  0.89390  Biso   1.000  C
  H429     1.0000 0.99510  0.08990  0.88160  Biso   1.000  H
  C775     1.0000 0.00890  0.17880  0.89080  Biso   1.000  C
  C776     1.0000 0.02970  0.21520  0.90880  Biso   1.000  C
  H430     1.0000 0.02950  0.25900  0.90660  Biso   1.000  H
  C777     1.0000 0.05090  0.18730  0.92990  Biso   1.000  C
  H431     1.0000 0.06510  0.21220  0.94220  Biso   1.000  H
  C778     1.0000 0.79560  0.38040  0.95960  Biso   1.000  C
  C779     1.0000 0.77390  0.33530  0.96760  Biso   1.000  C
  H432     1.0000 0.77500  0.29480  0.95910  Biso   1.000  H
  C780     1.0000 0.75070  0.34930  0.98820  Biso   1.000  C
  H433     1.0000 0.73590  0.31840  0.99370  Biso   1.000  H
  C781     1.0000 0.74920  0.40840  0.00070  Biso   1.000  C
  C782     1.0000 0.77090  0.45360  0.99260  Biso   1.000  C
  H434     1.0000 0.76980  0.49400  0.00110  Biso   1.000  H
  C783     1.0000 0.79410  0.43960  0.97200  Biso   1.000  C
  H435     1.0000 0.80890  0.47040  0.96650  Biso   1.000  H
  O85      1.0000 0.14470  0.95820  0.02330  Biso   1.000  O
  C784     1.0000 0.13770  0.01220  0.02160  Biso   1.000  C
  O86      1.0000 0.72230  0.48630  0.03060  Biso   1.000  O
  O87      1.0000 0.15080  0.03700  0.04190  Biso   1.000  O
  O88      1.0000 0.70340  0.38970  0.03220  Biso   1.000  O
  C785     1.0000 0.72490  0.42830  0.02300  Biso   1.000  C
  C786     1.0000 0.10380  0.10030  0.00300  Biso   1.000  C
  H436     1.0000 0.11140  0.12510  0.01970  Biso   1.000  H
  C787     1.0000 0.11390  0.03910  0.00060  Biso   1.000  C
  C788     1.0000 0.10290  0.00280  0.97610  Biso   1.000  C
  H437     1.0000 0.10980  0.96110  0.97440  Biso   1.000  H
  C789     1.0000 0.08180  0.02770  0.95400  Biso   1.000  C
  H438     1.0000 0.07420  0.00290  0.93720  Biso   1.000  H
  C790     1.0000 0.07170  0.08880  0.95640  Biso   1.000  C
  C791     1.0000 0.08270  0.12510  0.98090  Biso   1.000  C
  H439     1.0000 0.07580  0.16690  0.98250  Biso   1.000  H
  C792     1.0000 0.01930  0.16730  0.82230  Biso   1.000  C
  H440     1.0000 0.03110  0.13480  0.83210  Biso   1.000  H
  In23     1.0000 0.68052  0.54412  0.56147  Biso   1.000  In
  In24     1.0000 0.43470  0.76896  0.81204  Biso   1.000  In
  C793     1.0000 0.48710  0.73400  0.75410  Biso   1.000  C
  C794     1.0000 0.41310  0.78370  0.87920  Biso   1.000  C
  N45      1.0000 0.43850  0.78590  0.76440  Biso   1.000  N
  O89      1.0000 0.20400  0.96730  0.58810  Biso   1.000  O
  C795     1.0000 0.46100  0.76810  0.74610  Biso   1.000  C
  N46      1.0000 0.43710  0.76420  0.85950  Biso   1.000  N
  O90      1.0000 0.64150  0.53600  0.59560  Biso   1.000  O
  N47      1.0000 0.48040  0.73100  0.81090  Biso   1.000  N
  C796     1.0000 0.63920  0.59380  0.60040  Biso   1.000  C
  O91      1.0000 0.65480  0.62010  0.58160  Biso   1.000  O
  C797     1.0000 0.49810  0.71990  0.78510  Biso   1.000  C
  C798     1.0000 0.41630  0.82430  0.74820  Biso   1.000  C
  C799     1.0000 0.34460  0.85710  0.82840  Biso   1.000  C
  H441     1.0000 0.32830  0.87230  0.84070  Biso   1.000  H
  C800     1.0000 0.34640  0.86120  0.79800  Biso   1.000  C
  H442     1.0000 0.32910  0.87740  0.78580  Biso   1.000  H
  C801     1.0000 0.22400  0.00470  0.59980  Biso   1.000  C
  C802     1.0000 0.52490  0.68470  0.79380  Biso   1.000  C
  H443     1.0000 0.54290  0.67540  0.78220  Biso   1.000  H
  C803     1.0000 0.57130  0.66070  0.66150  Biso   1.000  C
  C804     1.0000 0.56710  0.60250  0.64830  Biso   1.000  C
  H444     1.0000 0.54920  0.57800  0.65300  Biso   1.000  H
  C805     1.0000 0.58920  0.58000  0.62830  Biso   1.000  C
  H445     1.0000 0.58630  0.54020  0.61930  Biso   1.000  H
  C806     1.0000 0.61540  0.61580  0.62150  Biso   1.000  C
  C807     1.0000 0.61970  0.67410  0.63470  Biso   1.000  C
  H446     1.0000 0.63760  0.69850  0.63000  Biso   1.000  H
  C808     1.0000 0.59760  0.69650  0.65470  Biso   1.000  C
  H447     1.0000 0.60050  0.73630  0.66370  Biso   1.000  H
  C809     1.0000 0.49470  0.69990  0.83730  Biso   1.000  C
  C810     1.0000 0.38370  0.81130  0.86800  Biso   1.000  C
  C811     1.0000 0.45980  0.73910  0.87800  Biso   1.000  C
  C812     1.0000 0.36650  0.87150  0.72940  Biso   1.000  C
  C813     1.0000 0.35350  0.83220  0.70690  Biso   1.000  C
  H448     1.0000 0.35990  0.79000  0.70640  Biso   1.000  H
  C814     1.0000 0.33120  0.85480  0.68530  Biso   1.000  C
  H449     1.0000 0.32230  0.82800  0.66990  Biso   1.000  H
  C815     1.0000 0.32190  0.91670  0.68610  Biso   1.000  C
  C816     1.0000 0.33490  0.95590  0.70860  Biso   1.000  C
  H450     1.0000 0.32860  0.99820  0.70910  Biso   1.000  H
  C817     1.0000 0.35720  0.93330  0.73020  Biso   1.000  C
  H451     1.0000 0.36610  0.96010  0.74560  Biso   1.000  H
  C818     1.0000 0.43010  0.82400  0.71870  Biso   1.000  C
  H452     1.0000 0.42010  0.84370  0.70140  Biso   1.000  H
  O92      1.0000 0.22140  0.06360  0.59580  Biso   1.000  O
  C819     1.0000 0.37390  0.84140  0.78480  Biso   1.000  C
  N48      1.0000 0.38900  0.81670  0.81140  Biso   1.000  N
  C820     1.0000 0.45750  0.79460  0.71730  Biso   1.000  C
  H453     1.0000 0.47130  0.79220  0.70080  Biso   1.000  H
  C821     1.0000 0.44700  0.73380  0.90730  Biso   1.000  C
  H454     1.0000 0.45600  0.70820  0.92310  Biso   1.000  H
  C822     1.0000 0.38530  0.84460  0.75570  Biso   1.000  C
  C823     1.0000 0.56280  0.72050  0.71010  Biso   1.000  C
  H455     1.0000 0.58480  0.73090  0.71220  Biso   1.000  H
  C824     1.0000 0.55130  0.68740  0.68470  Biso   1.000  C
  C825     1.0000 0.51910  0.67220  0.68160  Biso   1.000  C
  H456     1.0000 0.51120  0.64950  0.66430  Biso   1.000  H
  C826     1.0000 0.49850  0.69010  0.70400  Biso   1.000  C
  H457     1.0000 0.47650  0.67970  0.70190  Biso   1.000  H
  C827     1.0000 0.51010  0.72330  0.72940  Biso   1.000  C
  C828     1.0000 0.54220  0.73850  0.73240  Biso   1.000  C
  H458     1.0000 0.55010  0.76110  0.74980  Biso   1.000  H
  C829     1.0000 0.42160  0.76780  0.91020  Biso   1.000  C
  H459     1.0000 0.41140  0.77900  0.92830  Biso   1.000  H
  C830     1.0000 0.48450  0.70590  0.86690  Biso   1.000  C
  C831     1.0000 0.36090  0.83000  0.89210  Biso   1.000  C
  C832     1.0000 0.33100  0.80240  0.89210  Biso   1.000  C
  H460     1.0000 0.32510  0.77200  0.87720  Biso   1.000  H
  C833     1.0000 0.30960  0.81940  0.91390  Biso   1.000  C
  H461     1.0000 0.28920  0.80050  0.91400  Biso   1.000  H
  C834     1.0000 0.31820  0.86390  0.93580  Biso   1.000  C
  C835     1.0000 0.34810  0.89150  0.93580  Biso   1.000  C
  H462     1.0000 0.35390  0.92190  0.95070  Biso   1.000  H
  C836     1.0000 0.36940  0.87460  0.91390  Biso   1.000  C
  H463     1.0000 0.38990  0.89340  0.91390  Biso   1.000  H
  C837     1.0000 0.24690  0.92230  0.63500  Biso   1.000  C
  H464     1.0000 0.22960  0.89630  0.62840  Biso   1.000  H
  C838     1.0000 0.27010  0.90020  0.65590  Biso   1.000  C
  H465     1.0000 0.26870  0.85920  0.66360  Biso   1.000  H
  C839     1.0000 0.29540  0.93830  0.66550  Biso   1.000  C
  C840     1.0000 0.29730  0.99840  0.65420  Biso   1.000  C
  H466     1.0000 0.31460  0.02440  0.66080  Biso   1.000  H
  C841     1.0000 0.27410  0.02040  0.63330  Biso   1.000  C
  H467     1.0000 0.27550  0.06150  0.62560  Biso   1.000  H
  C842     1.0000 0.24890  0.98240  0.62370  Biso   1.000  C
  C843     1.0000 0.37280  0.82470  0.83790  Biso   1.000  C
  C844     1.0000 0.55130  0.62320  0.93310  Biso   1.000  C
  C845     1.0000 0.53050  0.58690  0.91510  Biso   1.000  C
  H468     1.0000 0.53080  0.54300  0.91730  Biso   1.000  H
  C846     1.0000 0.50930  0.61470  0.89390  Biso   1.000  C
  H469     1.0000 0.49510  0.58990  0.88160  Biso   1.000  H
  C847     1.0000 0.50890  0.67880  0.89080  Biso   1.000  C
  C848     1.0000 0.52970  0.71520  0.90880  Biso   1.000  C
  H470     1.0000 0.52950  0.75900  0.90660  Biso   1.000  H
  C849     1.0000 0.55090  0.68730  0.92990  Biso   1.000  C
  H471     1.0000 0.56510  0.71220  0.94220  Biso   1.000  H
  C850     1.0000 0.29560  0.88040  0.95960  Biso   1.000  C
  C851     1.0000 0.27390  0.83530  0.96760  Biso   1.000  C
  H472     1.0000 0.27500  0.79480  0.95910  Biso   1.000  H
  C852     1.0000 0.25070  0.84930  0.98820  Biso   1.000  C
  H473     1.0000 0.23590  0.81840  0.99370  Biso   1.000  H
  C853     1.0000 0.24920  0.90840  0.00070  Biso   1.000  C
  C854     1.0000 0.27090  0.95360  0.99260  Biso   1.000  C
  H474     1.0000 0.26980  0.99400  0.00110  Biso   1.000  H
  C855     1.0000 0.29410  0.93960  0.97200  Biso   1.000  C
  H475     1.0000 0.30890  0.97040  0.96650  Biso   1.000  H
  O93      1.0000 0.64470  0.45820  0.02330  Biso   1.000  O
  C856     1.0000 0.63770  0.51220  0.02160  Biso   1.000  C
  O94      1.0000 0.22230  0.98630  0.03060  Biso   1.000  O
  O95      1.0000 0.65080  0.53700  0.04190  Biso   1.000  O
  O96      1.0000 0.20340  0.88970  0.03220  Biso   1.000  O
  C857     1.0000 0.22490  0.92830  0.02300  Biso   1.000  C
  C858     1.0000 0.60380  0.60030  0.00300  Biso   1.000  C
  H476     1.0000 0.61140  0.62510  0.01970  Biso   1.000  H
  C859     1.0000 0.61390  0.53910  0.00060  Biso   1.000  C
  C860     1.0000 0.60290  0.50280  0.97610  Biso   1.000  C
  H477     1.0000 0.60980  0.46110  0.97440  Biso   1.000  H
  C861     1.0000 0.58180  0.52770  0.95400  Biso   1.000  C
  H478     1.0000 0.57420  0.50290  0.93720  Biso   1.000  H
  C862     1.0000 0.57170  0.58880  0.95640  Biso   1.000  C
  C863     1.0000 0.58270  0.62510  0.98090  Biso   1.000  C
  H479     1.0000 0.57580  0.66690  0.98250  Biso   1.000  H
  C864     1.0000 0.51930  0.66730  0.82230  Biso   1.000  C
  H480     1.0000 0.53110  0.63480  0.83210  Biso   1.000  H
  In25     1.0000 0.73933  0.27178  0.15932  Biso   1.000  In
  In26     1.0000 0.99522  0.44839  0.91132  Biso   1.000  In
  O97      1.0000 0.53750  0.94380  0.94720  Biso   1.000  O
  O98      1.0000 0.97060  0.46970  0.38530  Biso   1.000  O
  O99      1.0000 0.51810  0.13780  0.38850  Biso   1.000  O
  N49      1.0000 0.74130  0.25910  0.11250  Biso   1.000  N
  O100     1.0000 0.97310  0.37320  0.94030  Biso   1.000  O
  N50      1.0000 0.78630  0.31030  0.16000  Biso   1.000  N
  O101     1.0000 0.95640  0.47020  0.94450  Biso   1.000  O
  N51      1.0000 0.69470  0.23380  0.15970  Biso   1.000  N
  O102     1.0000 0.51930  0.03740  0.93260  Biso   1.000  O
  C865     1.0000 0.71350  0.27740  0.22460  Biso   1.000  C
  C866     1.0000 0.92761  0.48360  0.34832  Biso   1.000  C
  C867     1.0000 0.92752  0.42020  0.34239  Biso   1.000  C
  H481     1.0000 0.94290  0.39410  0.35240  Biso   1.000  H
  C868     1.0000 0.90490  0.39510  0.32170  Biso   1.000  C
  H482     1.0000 0.90490  0.35180  0.31770  Biso   1.000  H
  C869     1.0000 0.88238  0.43330  0.30702  Biso   1.000  C
  C870     1.0000 0.88250  0.49670  0.31300  Biso   1.000  C
  H483     1.0000 0.86710  0.52280  0.30290  Biso   1.000  H
  C871     1.0000 0.90510  0.52180  0.33360  Biso   1.000  C
  H484     1.0000 0.90510  0.56510  0.33770  Biso   1.000  H
  N52      1.0000 0.73870  0.29070  0.20830  Biso   1.000  N
  C872     1.0000 0.53730  0.00120  0.94890  Biso   1.000  C
  C873     1.0000 0.71880  0.23510  0.09480  Biso   1.000  C
  C874     1.0000 0.83090  0.35870  0.17670  Biso   1.000  C
  H485     1.0000 0.84580  0.38120  0.18940  Biso   1.000  H
  C875     1.0000 0.76520  0.27310  0.09410  Biso   1.000  C
  C876     1.0000 0.76180  0.31140  0.22560  Biso   1.000  C
  C877     1.0000 0.65000  0.18390  0.17460  Biso   1.000  C
  H486     1.0000 0.63490  0.16680  0.18780  Biso   1.000  H
  C878     1.0000 0.60220  0.09270  0.01394  Biso   1.000  C
  C879     1.0000 0.58100  0.12760  0.99560  Biso   1.000  C
  H487     1.0000 0.58070  0.17150  0.99750  Biso   1.000  H
  C880     1.0000 0.56030  0.09830  0.97450  Biso   1.000  C
  H488     1.0000 0.54590  0.12210  0.96200  Biso   1.000  H
  C881     1.0000 0.56080  0.03410  0.97170  Biso   1.000  C
  C882     1.0000 0.58200  0.99920  0.99010  Biso   1.000  C
  H489     1.0000 0.58230  0.95530  0.98820  Biso   1.000  H
  C883     1.0000 0.60260  0.02850  0.01117  Biso   1.000  C
  H490     1.0000 0.61710  0.00470  0.02370  Biso   1.000  H
  C884     1.0000 0.95710  0.41360  0.95200  Biso   1.000  C
  C885     1.0000 0.85882  0.40700  0.28244  Biso   1.000  C
  C886     1.0000 0.86541  0.35210  0.26728  Biso   1.000  C
  H491     1.0000 0.88510  0.33130  0.27150  Biso   1.000  H
  C887     1.0000 0.84320  0.32770  0.24597  Biso   1.000  C
  H492     1.0000 0.84780  0.29020  0.23560  Biso   1.000  H
  C888     1.0000 0.81449  0.35820  0.23981  Biso   1.000  C
  C889     1.0000 0.80789  0.41310  0.25500  Biso   1.000  C
  H493     1.0000 0.78820  0.43390  0.25080  Biso   1.000  H
  C890     1.0000 0.83010  0.43740  0.27628  Biso   1.000  C
  H494     1.0000 0.82560  0.47490  0.28660  Biso   1.000  H
  C891     1.0000 0.93306  0.39620  0.97520  Biso   1.000  C
  C892     1.0000 0.91270  0.43990  0.98710  Biso   1.000  C
  H495     1.0000 0.91380  0.48200  0.98070  Biso   1.000  H
  C893     1.0000 0.89070  0.42220  0.00820  Biso   1.000  C
  H496     1.0000 0.87680  0.45210  0.01630  Biso   1.000  H
  C894     1.0000 0.88911  0.36060  0.01749  Biso   1.000  C
  C895     1.0000 0.90950  0.31690  0.00560  Biso   1.000  C
  H497     1.0000 0.90840  0.27480  0.01190  Biso   1.000  H
  C896     1.0000 0.93140  0.33460  0.98450  Biso   1.000  C
  H498     1.0000 0.94530  0.30470  0.97630  Biso   1.000  H
  C897     1.0000 0.86369  0.33880  0.03818  Biso   1.000  C
  C898     1.0000 0.87048  0.29460  0.06064  Biso   1.000  C
  H499     1.0000 0.89040  0.27380  0.06140  Biso   1.000  H
  C899     1.0000 0.84810  0.28080  0.08204  Biso   1.000  C
  H500     1.0000 0.85270  0.25050  0.09740  Biso   1.000  H
  C900     1.0000 0.81885  0.31120  0.08097  Biso   1.000  C
  C901     1.0000 0.81206  0.35550  0.05850  Biso   1.000  C
  H501     1.0000 0.79210  0.37630  0.05780  Biso   1.000  H
  C902     1.0000 0.83450  0.36930  0.03711  Biso   1.000  C
  H502     1.0000 0.82980  0.39950  0.02180  Biso   1.000  H
  C903     1.0000 0.80230  0.33130  0.18440  Biso   1.000  C
  C904     1.0000 0.67780  0.21830  0.18430  Biso   1.000  C
  C905     1.0000 0.75740  0.25500  0.06250  Biso   1.000  C
  H503     1.0000 0.77120  0.25530  0.04580  Biso   1.000  H
  C906     1.0000 0.83200  0.34520  0.14640  Biso   1.000  C
  H504     1.0000 0.84960  0.35440  0.13430  Biso   1.000  H
  C907     1.0000 0.79080  0.33150  0.21550  Biso   1.000  C
  C908     1.0000 0.72600  0.23730  0.06200  Biso   1.000  C
  H505     1.0000 0.71210  0.22860  0.04470  Biso   1.000  H
  C909     1.0000 0.68720  0.21680  0.10260  Biso   1.000  C
  C910     1.0000 0.80400  0.31630  0.13540  Biso   1.000  C
  C911     1.0000 0.67770  0.20870  0.13460  Biso   1.000  C
  C912     1.0000 0.79550  0.29780  0.10470  Biso   1.000  C
  C913     1.0000 0.72320  0.28750  0.25690  Biso   1.000  C
  H506     1.0000 0.71110  0.27860  0.27420  Biso   1.000  H
  C914     1.0000 0.59880  0.16460  0.30680  Biso   1.000  C
  C915     1.0000 0.59810  0.10230  0.31490  Biso   1.000  C
  H507     1.0000 0.61160  0.07340  0.30540  Biso   1.000  H
  C916     1.0000 0.57750  0.08220  0.33688  Biso   1.000  C
  H508     1.0000 0.57700  0.03960  0.34240  Biso   1.000  H
  C917     1.0000 0.55770  0.12440  0.35070  Biso   1.000  C
  C918     1.0000 0.55850  0.18670  0.34260  Biso   1.000  C
  H509     1.0000 0.54500  0.21560  0.35210  Biso   1.000  H
  C919     1.0000 0.57910  0.20680  0.32070  Biso   1.000  C
  H510     1.0000 0.57960  0.24940  0.31510  Biso   1.000  H
  C920     1.0000 0.75230  0.31160  0.25700  Biso   1.000  C
  H511     1.0000 0.76460  0.32610  0.27430  Biso   1.000  H
  C921     1.0000 0.68470  0.24530  0.21290  Biso   1.000  C
  O103     1.0000 0.95350  0.56530  0.37567  Biso   1.000  O
  C922     1.0000 0.95090  0.51110  0.37020  Biso   1.000  C
  C923     1.0000 0.64850  0.17950  0.14310  Biso   1.000  C
  H512     1.0000 0.63220  0.16160  0.13020  Biso   1.000  H
  O104     1.0000 0.53030  0.04650  0.37530  Biso   1.000  O
  C924     1.0000 0.53410  0.10300  0.37430  Biso   1.000  C
  C925     1.0000 0.66045  0.22650  0.23635  Biso   1.000  C
  C926     1.0000 0.64580  0.26970  0.25460  Biso   1.000  C
  H513     1.0000 0.64900  0.31280  0.25140  Biso   1.000  H
  C927     1.0000 0.62630  0.25000  0.27753  Biso   1.000  C
  H514     1.0000 0.61630  0.27960  0.29000  Biso   1.000  H
  C928     1.0000 0.62150  0.18700  0.28225  Biso   1.000  C
  C929     1.0000 0.63620  0.14370  0.26400  Biso   1.000  C
  H515     1.0000 0.63290  0.10070  0.26720  Biso   1.000  H
  C930     1.0000 0.65570  0.16350  0.24107  Biso   1.000  C
  H516     1.0000 0.66570  0.13390  0.22860  Biso   1.000  H
  C931     1.0000 0.66650  0.18200  0.07795  Biso   1.000  C
  C932     1.0000 0.67578  0.12720  0.06420  Biso   1.000  C
  H517     1.0000 0.69590  0.10920  0.06970  Biso   1.000  H
  C933     1.0000 0.65570  0.09880  0.04220  Biso   1.000  C
  H518     1.0000 0.66200  0.06140  0.03280  Biso   1.000  H
  C934     1.0000 0.62630  0.12520  0.03408  Biso   1.000  C
  C935     1.0000 0.61702  0.18000  0.04790  Biso   1.000  C
  H519     1.0000 0.59690  0.19810  0.04230  Biso   1.000  H
  C936     1.0000 0.63710  0.20840  0.06980  Biso   1.000  C
  H520     1.0000 0.63080  0.24580  0.07920  Biso   1.000  H
  In27     1.0000 0.23933  0.77178  0.15932  Biso   1.000  In
  In28     1.0000 0.49522  0.94839  0.91132  Biso   1.000  In
  O105     1.0000 0.03750  0.44380  0.94720  Biso   1.000  O
  O106     1.0000 0.47060  0.96970  0.38530  Biso   1.000  O
  O107     1.0000 0.01810  0.63780  0.38850  Biso   1.000  O
  N53      1.0000 0.24130  0.75910  0.11250  Biso   1.000  N
  O108     1.0000 0.47310  0.87320  0.94030  Biso   1.000  O
  N54      1.0000 0.28630  0.81030  0.16000  Biso   1.000  N
  O109     1.0000 0.45640  0.97020  0.94450  Biso   1.000  O
  N55      1.0000 0.19470  0.73380  0.15970  Biso   1.000  N
  O110     1.0000 0.01930  0.53740  0.93260  Biso   1.000  O
  C937     1.0000 0.21350  0.77740  0.22460  Biso   1.000  C
  C938     1.0000 0.42761  0.98360  0.34832  Biso   1.000  C
  C939     1.0000 0.42752  0.92020  0.34239  Biso   1.000  C
  H521     1.0000 0.44290  0.89410  0.35240  Biso   1.000  H
  C940     1.0000 0.40490  0.89510  0.32170  Biso   1.000  C
  H522     1.0000 0.40490  0.85180  0.31770  Biso   1.000  H
  C941     1.0000 0.38238  0.93330  0.30702  Biso   1.000  C
  C942     1.0000 0.38250  0.99670  0.31300  Biso   1.000  C
  H523     1.0000 0.36710  0.02280  0.30290  Biso   1.000  H
  C943     1.0000 0.40510  0.02180  0.33360  Biso   1.000  C
  H524     1.0000 0.40510  0.06510  0.33770  Biso   1.000  H
  N56      1.0000 0.23870  0.79070  0.20830  Biso   1.000  N
  C944     1.0000 0.03730  0.50120  0.94890  Biso   1.000  C
  C945     1.0000 0.21880  0.73510  0.09480  Biso   1.000  C
  C946     1.0000 0.33090  0.85870  0.17670  Biso   1.000  C
  H525     1.0000 0.34580  0.88120  0.18940  Biso   1.000  H
  C947     1.0000 0.26520  0.77310  0.09410  Biso   1.000  C
  C948     1.0000 0.26180  0.81140  0.22560  Biso   1.000  C
  C949     1.0000 0.15000  0.68390  0.17460  Biso   1.000  C
  H526     1.0000 0.13490  0.66680  0.18780  Biso   1.000  H
  C950     1.0000 0.10220  0.59270  0.01394  Biso   1.000  C
  C951     1.0000 0.08100  0.62760  0.99560  Biso   1.000  C
  H527     1.0000 0.08070  0.67150  0.99750  Biso   1.000  H
  C952     1.0000 0.06030  0.59830  0.97450  Biso   1.000  C
  H528     1.0000 0.04590  0.62210  0.96200  Biso   1.000  H
  C953     1.0000 0.06080  0.53410  0.97170  Biso   1.000  C
  C954     1.0000 0.08200  0.49920  0.99010  Biso   1.000  C
  H529     1.0000 0.08230  0.45530  0.98820  Biso   1.000  H
  C955     1.0000 0.10260  0.52850  0.01117  Biso   1.000  C
  H530     1.0000 0.11710  0.50470  0.02370  Biso   1.000  H
  C956     1.0000 0.45710  0.91360  0.95200  Biso   1.000  C
  C957     1.0000 0.35882  0.90700  0.28244  Biso   1.000  C
  C958     1.0000 0.36541  0.85210  0.26728  Biso   1.000  C
  H531     1.0000 0.38510  0.83130  0.27150  Biso   1.000  H
  C959     1.0000 0.34320  0.82770  0.24597  Biso   1.000  C
  H532     1.0000 0.34780  0.79020  0.23560  Biso   1.000  H
  C960     1.0000 0.31449  0.85820  0.23981  Biso   1.000  C
  C961     1.0000 0.30789  0.91310  0.25500  Biso   1.000  C
  H533     1.0000 0.28820  0.93390  0.25080  Biso   1.000  H
  C962     1.0000 0.33010  0.93740  0.27628  Biso   1.000  C
  H534     1.0000 0.32560  0.97490  0.28660  Biso   1.000  H
  C963     1.0000 0.43306  0.89620  0.97520  Biso   1.000  C
  C964     1.0000 0.41270  0.93990  0.98710  Biso   1.000  C
  H535     1.0000 0.41380  0.98200  0.98070  Biso   1.000  H
  C965     1.0000 0.39070  0.92220  0.00820  Biso   1.000  C
  H536     1.0000 0.37680  0.95210  0.01630  Biso   1.000  H
  C966     1.0000 0.38911  0.86060  0.01749  Biso   1.000  C
  C967     1.0000 0.40950  0.81690  0.00560  Biso   1.000  C
  H537     1.0000 0.40840  0.77480  0.01190  Biso   1.000  H
  C968     1.0000 0.43140  0.83460  0.98450  Biso   1.000  C
  H538     1.0000 0.44530  0.80470  0.97630  Biso   1.000  H
  C969     1.0000 0.36369  0.83880  0.03818  Biso   1.000  C
  C970     1.0000 0.37048  0.79460  0.06064  Biso   1.000  C
  H539     1.0000 0.39040  0.77380  0.06140  Biso   1.000  H
  C971     1.0000 0.34810  0.78080  0.08204  Biso   1.000  C
  H540     1.0000 0.35270  0.75050  0.09740  Biso   1.000  H
  C972     1.0000 0.31885  0.81120  0.08097  Biso   1.000  C
  C973     1.0000 0.31206  0.85550  0.05850  Biso   1.000  C
  H541     1.0000 0.29210  0.87630  0.05780  Biso   1.000  H
  C974     1.0000 0.33450  0.86930  0.03711  Biso   1.000  C
  H542     1.0000 0.32980  0.89950  0.02180  Biso   1.000  H
  C975     1.0000 0.30230  0.83130  0.18440  Biso   1.000  C
  C976     1.0000 0.17780  0.71830  0.18430  Biso   1.000  C
  C977     1.0000 0.25740  0.75500  0.06250  Biso   1.000  C
  H543     1.0000 0.27120  0.75530  0.04580  Biso   1.000  H
  C978     1.0000 0.33200  0.84520  0.14640  Biso   1.000  C
  H544     1.0000 0.34960  0.85440  0.13430  Biso   1.000  H
  C979     1.0000 0.29080  0.83150  0.21550  Biso   1.000  C
  C980     1.0000 0.22600  0.73730  0.06200  Biso   1.000  C
  H545     1.0000 0.21210  0.72860  0.04470  Biso   1.000  H
  C981     1.0000 0.18720  0.71680  0.10260  Biso   1.000  C
  C982     1.0000 0.30400  0.81630  0.13540  Biso   1.000  C
  C983     1.0000 0.17770  0.70870  0.13460  Biso   1.000  C
  C984     1.0000 0.29550  0.79780  0.10470  Biso   1.000  C
  C985     1.0000 0.22320  0.78750  0.25690  Biso   1.000  C
  H546     1.0000 0.21110  0.77860  0.27420  Biso   1.000  H
  C986     1.0000 0.09880  0.66460  0.30680  Biso   1.000  C
  C987     1.0000 0.09810  0.60230  0.31490  Biso   1.000  C
  H547     1.0000 0.11160  0.57340  0.30540  Biso   1.000  H
  C988     1.0000 0.07750  0.58220  0.33688  Biso   1.000  C
  H548     1.0000 0.07700  0.53960  0.34240  Biso   1.000  H
  C989     1.0000 0.05770  0.62440  0.35070  Biso   1.000  C
  C990     1.0000 0.05850  0.68670  0.34260  Biso   1.000  C
  H549     1.0000 0.04500  0.71560  0.35210  Biso   1.000  H
  C991     1.0000 0.07910  0.70680  0.32070  Biso   1.000  C
  H550     1.0000 0.07960  0.74940  0.31510  Biso   1.000  H
  C992     1.0000 0.25230  0.81160  0.25700  Biso   1.000  C
  H551     1.0000 0.26460  0.82610  0.27430  Biso   1.000  H
  C993     1.0000 0.18470  0.74530  0.21290  Biso   1.000  C
  O111     1.0000 0.45350  0.06530  0.37567  Biso   1.000  O
  C994     1.0000 0.45090  0.01110  0.37020  Biso   1.000  C
  C995     1.0000 0.14850  0.67950  0.14310  Biso   1.000  C
  H552     1.0000 0.13220  0.66160  0.13020  Biso   1.000  H
  O112     1.0000 0.03030  0.54650  0.37530  Biso   1.000  O
  C996     1.0000 0.03410  0.60300  0.37430  Biso   1.000  C
  C997     1.0000 0.16045  0.72650  0.23635  Biso   1.000  C
  C998     1.0000 0.14580  0.76970  0.25460  Biso   1.000  C
  H553     1.0000 0.14900  0.81280  0.25140  Biso   1.000  H
  C999     1.0000 0.12630  0.75000  0.27753  Biso   1.000  C
  H554     1.0000 0.11630  0.77960  0.29000  Biso   1.000  H
  C1000    1.0000 0.12150  0.68700  0.28225  Biso   1.000  C
  C1001    1.0000 0.13620  0.64370  0.26400  Biso   1.000  C
  H555     1.0000 0.13290  0.60070  0.26720  Biso   1.000  H
  C1002    1.0000 0.15570  0.66350  0.24107  Biso   1.000  C
  H556     1.0000 0.16570  0.63390  0.22860  Biso   1.000  H
  C1003    1.0000 0.16650  0.68200  0.07795  Biso   1.000  C
  C1004    1.0000 0.17578  0.62720  0.06420  Biso   1.000  C
  H557     1.0000 0.19590  0.60920  0.06970  Biso   1.000  H
  C1005    1.0000 0.15570  0.59880  0.04220  Biso   1.000  C
  H558     1.0000 0.16200  0.56140  0.03280  Biso   1.000  H
  C1006    1.0000 0.12630  0.62520  0.03408  Biso   1.000  C
  C1007    1.0000 0.11702  0.68000  0.04790  Biso   1.000  C
  H559     1.0000 0.09690  0.69810  0.04230  Biso   1.000  H
  C1008    1.0000 0.13710  0.70840  0.06980  Biso   1.000  C
  H560     1.0000 0.13080  0.74580  0.07920  Biso   1.000  H
  In29     1.0000 0.73933  0.72822  0.65932  Biso   1.000  In
  In30     1.0000 0.99522  0.55161  0.41132  Biso   1.000  In
  O113     1.0000 0.53750  0.05620  0.44720  Biso   1.000  O
  O114     1.0000 0.97060  0.53030  0.88530  Biso   1.000  O
  O115     1.0000 0.51810  0.86220  0.88850  Biso   1.000  O
  N57      1.0000 0.74130  0.74090  0.61250  Biso   1.000  N
  O116     1.0000 0.97310  0.62680  0.44030  Biso   1.000  O
  N58      1.0000 0.78630  0.68970  0.66000  Biso   1.000  N
  O117     1.0000 0.95640  0.52980  0.44450  Biso   1.000  O
  N59      1.0000 0.69470  0.76620  0.65970  Biso   1.000  N
  O118     1.0000 0.51930  0.96260  0.43260  Biso   1.000  O
  C1009    1.0000 0.71350  0.72260  0.72460  Biso   1.000  C
  C1010    1.0000 0.92761  0.51640  0.84832  Biso   1.000  C
  C1011    1.0000 0.92752  0.57980  0.84239  Biso   1.000  C
  H561     1.0000 0.94290  0.60590  0.85240  Biso   1.000  H
  C1012    1.0000 0.90490  0.60490  0.82170  Biso   1.000  C
  H562     1.0000 0.90490  0.64820  0.81770  Biso   1.000  H
  C1013    1.0000 0.88238  0.56670  0.80702  Biso   1.000  C
  C1014    1.0000 0.88250  0.50330  0.81300  Biso   1.000  C
  H563     1.0000 0.86710  0.47720  0.80290  Biso   1.000  H
  C1015    1.0000 0.90510  0.47820  0.83360  Biso   1.000  C
  H564     1.0000 0.90510  0.43490  0.83770  Biso   1.000  H
  N60      1.0000 0.73870  0.70930  0.70830  Biso   1.000  N
  C1016    1.0000 0.53730  0.99880  0.44890  Biso   1.000  C
  C1017    1.0000 0.71880  0.76490  0.59480  Biso   1.000  C
  C1018    1.0000 0.83090  0.64130  0.67670  Biso   1.000  C
  H565     1.0000 0.84580  0.61880  0.68940  Biso   1.000  H
  C1019    1.0000 0.76520  0.72690  0.59410  Biso   1.000  C
  C1020    1.0000 0.76180  0.68860  0.72560  Biso   1.000  C
  C1021    1.0000 0.65000  0.81610  0.67460  Biso   1.000  C
  H566     1.0000 0.63490  0.83320  0.68780  Biso   1.000  H
  C1022    1.0000 0.60220  0.90730  0.51394  Biso   1.000  C
  C1023    1.0000 0.58100  0.87240  0.49560  Biso   1.000  C
  H567     1.0000 0.58070  0.82850  0.49750  Biso   1.000  H
  C1024    1.0000 0.56030  0.90170  0.47450  Biso   1.000  C
  H568     1.0000 0.54590  0.87790  0.46200  Biso   1.000  H
  C1025    1.0000 0.56080  0.96590  0.47170  Biso   1.000  C
  C1026    1.0000 0.58200  0.00080  0.49010  Biso   1.000  C
  H569     1.0000 0.58230  0.04470  0.48820  Biso   1.000  H
  C1027    1.0000 0.60260  0.97150  0.51117  Biso   1.000  C
  H570     1.0000 0.61710  0.99530  0.52370  Biso   1.000  H
  C1028    1.0000 0.95710  0.58640  0.45200  Biso   1.000  C
  C1029    1.0000 0.85882  0.59300  0.78244  Biso   1.000  C
  C1030    1.0000 0.86541  0.64790  0.76728  Biso   1.000  C
  H571     1.0000 0.88510  0.66870  0.77150  Biso   1.000  H
  C1031    1.0000 0.84320  0.67230  0.74597  Biso   1.000  C
  H572     1.0000 0.84780  0.70980  0.73560  Biso   1.000  H
  C1032    1.0000 0.81449  0.64180  0.73981  Biso   1.000  C
  C1033    1.0000 0.80789  0.58690  0.75500  Biso   1.000  C
  H573     1.0000 0.78820  0.56610  0.75080  Biso   1.000  H
  C1034    1.0000 0.83010  0.56260  0.77628  Biso   1.000  C
  H574     1.0000 0.82560  0.52510  0.78660  Biso   1.000  H
  C1035    1.0000 0.93306  0.60380  0.47520  Biso   1.000  C
  C1036    1.0000 0.91270  0.56010  0.48710  Biso   1.000  C
  H575     1.0000 0.91380  0.51800  0.48070  Biso   1.000  H
  C1037    1.0000 0.89070  0.57780  0.50820  Biso   1.000  C
  H576     1.0000 0.87680  0.54790  0.51630  Biso   1.000  H
  C1038    1.0000 0.88911  0.63940  0.51749  Biso   1.000  C
  C1039    1.0000 0.90950  0.68310  0.50560  Biso   1.000  C
  H577     1.0000 0.90840  0.72520  0.51190  Biso   1.000  H
  C1040    1.0000 0.93140  0.66540  0.48450  Biso   1.000  C
  H578     1.0000 0.94530  0.69530  0.47630  Biso   1.000  H
  C1041    1.0000 0.86369  0.66120  0.53818  Biso   1.000  C
  C1042    1.0000 0.87048  0.70540  0.56064  Biso   1.000  C
  H579     1.0000 0.89040  0.72620  0.56140  Biso   1.000  H
  C1043    1.0000 0.84810  0.71920  0.58204  Biso   1.000  C
  H580     1.0000 0.85270  0.74950  0.59740  Biso   1.000  H
  C1044    1.0000 0.81885  0.68880  0.58097  Biso   1.000  C
  C1045    1.0000 0.81206  0.64450  0.55850  Biso   1.000  C
  H581     1.0000 0.79210  0.62370  0.55780  Biso   1.000  H
  C1046    1.0000 0.83450  0.63070  0.53711  Biso   1.000  C
  H582     1.0000 0.82980  0.60050  0.52180  Biso   1.000  H
  C1047    1.0000 0.80230  0.66870  0.68440  Biso   1.000  C
  C1048    1.0000 0.67780  0.78170  0.68430  Biso   1.000  C
  C1049    1.0000 0.75740  0.74500  0.56250  Biso   1.000  C
  H583     1.0000 0.77120  0.74470  0.54580  Biso   1.000  H
  C1050    1.0000 0.83200  0.65480  0.64640  Biso   1.000  C
  H584     1.0000 0.84960  0.64560  0.63430  Biso   1.000  H
  C1051    1.0000 0.79080  0.66850  0.71550  Biso   1.000  C
  C1052    1.0000 0.72600  0.76270  0.56200  Biso   1.000  C
  H585     1.0000 0.71210  0.77140  0.54470  Biso   1.000  H
  C1053    1.0000 0.68720  0.78320  0.60260  Biso   1.000  C
  C1054    1.0000 0.80400  0.68370  0.63540  Biso   1.000  C
  C1055    1.0000 0.67770  0.79130  0.63460  Biso   1.000  C
  C1056    1.0000 0.79550  0.70220  0.60470  Biso   1.000  C
  C1057    1.0000 0.72320  0.71250  0.75690  Biso   1.000  C
  H586     1.0000 0.71110  0.72140  0.77420  Biso   1.000  H
  C1058    1.0000 0.59880  0.83540  0.80680  Biso   1.000  C
  C1059    1.0000 0.59810  0.89770  0.81490  Biso   1.000  C
  H587     1.0000 0.61160  0.92660  0.80540  Biso   1.000  H
  C1060    1.0000 0.57750  0.91780  0.83688  Biso   1.000  C
  H588     1.0000 0.57700  0.96040  0.84240  Biso   1.000  H
  C1061    1.0000 0.55770  0.87560  0.85070  Biso   1.000  C
  C1062    1.0000 0.55850  0.81330  0.84260  Biso   1.000  C
  H589     1.0000 0.54500  0.78440  0.85210  Biso   1.000  H
  C1063    1.0000 0.57910  0.79320  0.82070  Biso   1.000  C
  H590     1.0000 0.57960  0.75060  0.81510  Biso   1.000  H
  C1064    1.0000 0.75230  0.68840  0.75700  Biso   1.000  C
  H591     1.0000 0.76460  0.67390  0.77430  Biso   1.000  H
  C1065    1.0000 0.68470  0.75470  0.71290  Biso   1.000  C
  O119     1.0000 0.95350  0.43470  0.87567  Biso   1.000  O
  C1066    1.0000 0.95090  0.48890  0.87020  Biso   1.000  C
  C1067    1.0000 0.64850  0.82050  0.64310  Biso   1.000  C
  H592     1.0000 0.63220  0.83840  0.63020  Biso   1.000  H
  O120     1.0000 0.53030  0.95350  0.87530  Biso   1.000  O
  C1068    1.0000 0.53410  0.89700  0.87430  Biso   1.000  C
  C1069    1.0000 0.66045  0.77350  0.73635  Biso   1.000  C
  C1070    1.0000 0.64580  0.73030  0.75460  Biso   1.000  C
  H593     1.0000 0.64900  0.68720  0.75140  Biso   1.000  H
  C1071    1.0000 0.62630  0.75000  0.77753  Biso   1.000  C
  H594     1.0000 0.61630  0.72040  0.79000  Biso   1.000  H
  C1072    1.0000 0.62150  0.81300  0.78225  Biso   1.000  C
  C1073    1.0000 0.63620  0.85630  0.76400  Biso   1.000  C
  H595     1.0000 0.63290  0.89930  0.76720  Biso   1.000  H
  C1074    1.0000 0.65570  0.83650  0.74107  Biso   1.000  C
  H596     1.0000 0.66570  0.86610  0.72860  Biso   1.000  H
  C1075    1.0000 0.66650  0.81800  0.57795  Biso   1.000  C
  C1076    1.0000 0.67578  0.87280  0.56420  Biso   1.000  C
  H597     1.0000 0.69590  0.89080  0.56970  Biso   1.000  H
  C1077    1.0000 0.65570  0.90120  0.54220  Biso   1.000  C
  H598     1.0000 0.66200  0.93860  0.53280  Biso   1.000  H
  C1078    1.0000 0.62630  0.87480  0.53408  Biso   1.000  C
  C1079    1.0000 0.61702  0.82000  0.54790  Biso   1.000  C
  H599     1.0000 0.59690  0.80190  0.54230  Biso   1.000  H
  C1080    1.0000 0.63710  0.79160  0.56980  Biso   1.000  C
  H600     1.0000 0.63080  0.75420  0.57920  Biso   1.000  H
  In31     1.0000 0.23933  0.22822  0.65932  Biso   1.000  In
  In32     1.0000 0.49522  0.05161  0.41132  Biso   1.000  In
  O121     1.0000 0.03750  0.55620  0.44720  Biso   1.000  O
  O122     1.0000 0.47060  0.03030  0.88530  Biso   1.000  O
  O123     1.0000 0.01810  0.36220  0.88850  Biso   1.000  O
  N61      1.0000 0.24130  0.24090  0.61250  Biso   1.000  N
  O124     1.0000 0.47310  0.12680  0.44030  Biso   1.000  O
  N62      1.0000 0.28630  0.18970  0.66000  Biso   1.000  N
  O125     1.0000 0.45640  0.02980  0.44450  Biso   1.000  O
  N63      1.0000 0.19470  0.26620  0.65970  Biso   1.000  N
  O126     1.0000 0.01930  0.46260  0.43260  Biso   1.000  O
  C1081    1.0000 0.21350  0.22260  0.72460  Biso   1.000  C
  C1082    1.0000 0.42761  0.01640  0.84832  Biso   1.000  C
  C1083    1.0000 0.42752  0.07980  0.84239  Biso   1.000  C
  H601     1.0000 0.44290  0.10590  0.85240  Biso   1.000  H
  C1084    1.0000 0.40490  0.10490  0.82170  Biso   1.000  C
  H602     1.0000 0.40490  0.14820  0.81770  Biso   1.000  H
  C1085    1.0000 0.38238  0.06670  0.80702  Biso   1.000  C
  C1086    1.0000 0.38250  0.00330  0.81300  Biso   1.000  C
  H603     1.0000 0.36710  0.97720  0.80290  Biso   1.000  H
  C1087    1.0000 0.40510  0.97820  0.83360  Biso   1.000  C
  H604     1.0000 0.40510  0.93490  0.83770  Biso   1.000  H
  N64      1.0000 0.23870  0.20930  0.70830  Biso   1.000  N
  C1088    1.0000 0.03730  0.49880  0.44890  Biso   1.000  C
  C1089    1.0000 0.21880  0.26490  0.59480  Biso   1.000  C
  C1090    1.0000 0.33090  0.14130  0.67670  Biso   1.000  C
  H605     1.0000 0.34580  0.11880  0.68940  Biso   1.000  H
  C1091    1.0000 0.26520  0.22690  0.59410  Biso   1.000  C
  C1092    1.0000 0.26180  0.18860  0.72560  Biso   1.000  C
  C1093    1.0000 0.15000  0.31610  0.67460  Biso   1.000  C
  H606     1.0000 0.13490  0.33320  0.68780  Biso   1.000  H
  C1094    1.0000 0.10220  0.40730  0.51394  Biso   1.000  C
  C1095    1.0000 0.08100  0.37240  0.49560  Biso   1.000  C
  H607     1.0000 0.08070  0.32850  0.49750  Biso   1.000  H
  C1096    1.0000 0.06030  0.40170  0.47450  Biso   1.000  C
  H608     1.0000 0.04590  0.37790  0.46200  Biso   1.000  H
  C1097    1.0000 0.06080  0.46590  0.47170  Biso   1.000  C
  C1098    1.0000 0.08200  0.50080  0.49010  Biso   1.000  C
  H609     1.0000 0.08230  0.54470  0.48820  Biso   1.000  H
  C1099    1.0000 0.10260  0.47150  0.51117  Biso   1.000  C
  H610     1.0000 0.11710  0.49530  0.52370  Biso   1.000  H
  C1100    1.0000 0.45710  0.08640  0.45200  Biso   1.000  C
  C1101    1.0000 0.35882  0.09300  0.78244  Biso   1.000  C
  C1102    1.0000 0.36541  0.14790  0.76728  Biso   1.000  C
  H611     1.0000 0.38510  0.16870  0.77150  Biso   1.000  H
  C1103    1.0000 0.34320  0.17230  0.74597  Biso   1.000  C
  H612     1.0000 0.34780  0.20980  0.73560  Biso   1.000  H
  C1104    1.0000 0.31449  0.14180  0.73981  Biso   1.000  C
  C1105    1.0000 0.30789  0.08690  0.75500  Biso   1.000  C
  H613     1.0000 0.28820  0.06610  0.75080  Biso   1.000  H
  C1106    1.0000 0.33010  0.06260  0.77628  Biso   1.000  C
  H614     1.0000 0.32560  0.02510  0.78660  Biso   1.000  H
  C1107    1.0000 0.43306  0.10380  0.47520  Biso   1.000  C
  C1108    1.0000 0.41270  0.06010  0.48710  Biso   1.000  C
  H615     1.0000 0.41380  0.01800  0.48070  Biso   1.000  H
  C1109    1.0000 0.39070  0.07780  0.50820  Biso   1.000  C
  H616     1.0000 0.37680  0.04790  0.51630  Biso   1.000  H
  C1110    1.0000 0.38911  0.13940  0.51749  Biso   1.000  C
  C1111    1.0000 0.40950  0.18310  0.50560  Biso   1.000  C
  H617     1.0000 0.40840  0.22520  0.51190  Biso   1.000  H
  C1112    1.0000 0.43140  0.16540  0.48450  Biso   1.000  C
  H618     1.0000 0.44530  0.19530  0.47630  Biso   1.000  H
  C1113    1.0000 0.36369  0.16120  0.53818  Biso   1.000  C
  C1114    1.0000 0.37048  0.20540  0.56064  Biso   1.000  C
  H619     1.0000 0.39040  0.22620  0.56140  Biso   1.000  H
  C1115    1.0000 0.34810  0.21920  0.58204  Biso   1.000  C
  H620     1.0000 0.35270  0.24950  0.59740  Biso   1.000  H
  C1116    1.0000 0.31885  0.18880  0.58097  Biso   1.000  C
  C1117    1.0000 0.31206  0.14450  0.55850  Biso   1.000  C
  H621     1.0000 0.29210  0.12370  0.55780  Biso   1.000  H
  C1118    1.0000 0.33450  0.13070  0.53711  Biso   1.000  C
  H622     1.0000 0.32980  0.10050  0.52180  Biso   1.000  H
  C1119    1.0000 0.30230  0.16870  0.68440  Biso   1.000  C
  C1120    1.0000 0.17780  0.28170  0.68430  Biso   1.000  C
  C1121    1.0000 0.25740  0.24500  0.56250  Biso   1.000  C
  H623     1.0000 0.27120  0.24470  0.54580  Biso   1.000  H
  C1122    1.0000 0.33200  0.15480  0.64640  Biso   1.000  C
  H624     1.0000 0.34960  0.14560  0.63430  Biso   1.000  H
  C1123    1.0000 0.29080  0.16850  0.71550  Biso   1.000  C
  C1124    1.0000 0.22600  0.26270  0.56200  Biso   1.000  C
  H625     1.0000 0.21210  0.27140  0.54470  Biso   1.000  H
  C1125    1.0000 0.18720  0.28320  0.60260  Biso   1.000  C
  C1126    1.0000 0.30400  0.18370  0.63540  Biso   1.000  C
  C1127    1.0000 0.17770  0.29130  0.63460  Biso   1.000  C
  C1128    1.0000 0.29550  0.20220  0.60470  Biso   1.000  C
  C1129    1.0000 0.22320  0.21250  0.75690  Biso   1.000  C
  H626     1.0000 0.21110  0.22140  0.77420  Biso   1.000  H
  C1130    1.0000 0.09880  0.33540  0.80680  Biso   1.000  C
  C1131    1.0000 0.09810  0.39770  0.81490  Biso   1.000  C
  H627     1.0000 0.11160  0.42660  0.80540  Biso   1.000  H
  C1132    1.0000 0.07750  0.41780  0.83688  Biso   1.000  C
  H628     1.0000 0.07700  0.46040  0.84240  Biso   1.000  H
  C1133    1.0000 0.05770  0.37560  0.85070  Biso   1.000  C
  C1134    1.0000 0.05850  0.31330  0.84260  Biso   1.000  C
  H629     1.0000 0.04500  0.28440  0.85210  Biso   1.000  H
  C1135    1.0000 0.07910  0.29320  0.82070  Biso   1.000  C
  H630     1.0000 0.07960  0.25060  0.81510  Biso   1.000  H
  C1136    1.0000 0.25230  0.18840  0.75700  Biso   1.000  C
  H631     1.0000 0.26460  0.17390  0.77430  Biso   1.000  H
  C1137    1.0000 0.18470  0.25470  0.71290  Biso   1.000  C
  O127     1.0000 0.45350  0.93470  0.87567  Biso   1.000  O
  C1138    1.0000 0.45090  0.98890  0.87020  Biso   1.000  C
  C1139    1.0000 0.14850  0.32050  0.64310  Biso   1.000  C
  H632     1.0000 0.13220  0.33840  0.63020  Biso   1.000  H
  O128     1.0000 0.03030  0.45350  0.87530  Biso   1.000  O
  C1140    1.0000 0.03410  0.39700  0.87430  Biso   1.000  C
  C1141    1.0000 0.16045  0.27350  0.73635  Biso   1.000  C
  C1142    1.0000 0.14580  0.23030  0.75460  Biso   1.000  C
  H633     1.0000 0.14900  0.18720  0.75140  Biso   1.000  H
  C1143    1.0000 0.12630  0.25000  0.77753  Biso   1.000  C
  H634     1.0000 0.11630  0.22040  0.79000  Biso   1.000  H
  C1144    1.0000 0.12150  0.31300  0.78225  Biso   1.000  C
  C1145    1.0000 0.13620  0.35630  0.76400  Biso   1.000  C
  H635     1.0000 0.13290  0.39930  0.76720  Biso   1.000  H
  C1146    1.0000 0.15570  0.33650  0.74107  Biso   1.000  C
  H636     1.0000 0.16570  0.36610  0.72860  Biso   1.000  H
  C1147    1.0000 0.16650  0.31800  0.57795  Biso   1.000  C
  C1148    1.0000 0.17578  0.37280  0.56420  Biso   1.000  C
  H637     1.0000 0.19590  0.39080  0.56970  Biso   1.000  H
  C1149    1.0000 0.15570  0.40120  0.54220  Biso   1.000  C
  H638     1.0000 0.16200  0.43860  0.53280  Biso   1.000  H
  C1150    1.0000 0.12630  0.37480  0.53408  Biso   1.000  C
  C1151    1.0000 0.11702  0.32000  0.54790  Biso   1.000  C
  H639     1.0000 0.09690  0.30190  0.54230  Biso   1.000  H
  C1152    1.0000 0.13710  0.29160  0.56980  Biso   1.000  C
  H640     1.0000 0.13080  0.25420  0.57920  Biso   1.000  H
