data_COPXOV_clean
_audit_creation_date              2014-07-02
_audit_creation_method            'Materials Studio'
_symmetry_space_group_name_H-M    'P1'
_symmetry_Int_Tables_number       1
_symmetry_cell_setting            triclinic
loop_
_symmetry_equiv_pos_as_xyz
  x,y,z
_cell_length_a                    13.3997
_cell_length_b                    13.6699
_cell_length_c                    46.3390
_cell_angle_alpha                 97.6633
_cell_angle_beta                  90.0000
_cell_angle_gamma                 119.3480
loop_
_atom_site_label
_atom_site_type_symbol
_atom_site_fract_x
_atom_site_fract_y
_atom_site_fract_z
_atom_site_U_iso_or_equiv
_atom_site_adp_type
_atom_site_occupancy
Co1    Co    0.35220   0.64284   0.88000   0.01267  Uiso   1.00
Co2    Co    0.31888   0.64344   0.78988   0.01267  Uiso   1.00
Co3    Co    0.01310   0.96410   0.95622   0.01267  Uiso   1.00
Co4    Co    0.70936   0.35716   0.62000   0.01267  Uiso   1.00
Co5    Co    0.67544   0.35656   0.71012   0.01267  Uiso   1.00
Co6    Co    0.04900   0.03590   0.54378   0.01267  Uiso   1.00
Co7    Co    0.64780   0.35716   0.12000   0.01267  Uiso   1.00
Co8    Co    0.68112   0.35656   0.21012   0.01267  Uiso   1.00
Co9    Co    0.98690   0.03590   0.04377   0.01267  Uiso   1.00
Co10   Co    0.29064   0.64284   0.38000   0.01267  Uiso   1.00
Co11   Co    0.32456   0.64344   0.28988   0.01267  Uiso   1.00
Co12   Co    0.95100   0.96410   0.45622   0.01267  Uiso   1.00
H1     H     0.64370   0.77040   0.94730   0.01267  Uiso   1.00
H2     H     0.66720   0.91760   0.02990   0.01267  Uiso   1.00
H3     H     0.36280   0.74380   0.98440   0.01267  Uiso   1.00
H4     H     0.56890   0.91280   0.07160   0.01267  Uiso   1.00
H5     H     0.58970   0.00880   0.05330   0.01267  Uiso   1.00
H6     H     0.49420   0.97240   0.07550   0.01267  Uiso   1.00
H7     H     0.32890   0.76100   0.06490   0.01267  Uiso   1.00
H8     H     0.31820   0.69280   0.03390   0.01267  Uiso   1.00
H9     H     0.41790   0.72060   0.05690   0.01267  Uiso   1.00
H10    H     0.41270   0.96780   0.01920   0.01267  Uiso   1.00
H11    H     0.30630   0.84500   0.01600   0.01267  Uiso   1.00
H12    H     0.34010   0.92580   0.04600   0.01267  Uiso   1.00
H13    H     0.57640   0.54460   0.86560   0.01267  Uiso   1.00
H14    H     0.73940   0.41420   0.81590   0.01267  Uiso   1.00
H15    H     0.50290   0.46620   0.77890   0.01267  Uiso   1.00
H16    H     0.62300   0.31620   0.87710   0.01267  Uiso   1.00
H17    H     0.72460   0.32680   0.85850   0.01267  Uiso   1.00
H18    H     0.74450   0.35940   0.89260   0.01267  Uiso   1.00
H19    H     0.90490   0.54720   0.88590   0.01267  Uiso   1.00
H20    H     0.87960   0.50740   0.85210   0.01267  Uiso   1.00
H21    H     0.88630   0.62180   0.86590   0.01267  Uiso   1.00
H22    H     0.73060   0.60760   0.89970   0.01267  Uiso   1.00
H23    H     0.62650   0.48680   0.90150   0.01267  Uiso   1.00
H24    H     0.74720   0.52340   0.91630   0.01267  Uiso   1.00
H25    H     0.18290   0.84040   0.88960   0.01267  Uiso   1.00
H26    H     0.95180   0.89640   0.85080   0.01267  Uiso   1.00
H27    H     0.09480   0.73700   0.80380   0.01267  Uiso   1.00
H28    H     0.92550   0.91740   0.77290   0.01267  Uiso   1.00
H29    H     0.97470   0.96960   0.80530   0.01267  Uiso   1.00
H30    H     0.05310   0.95440   0.78210   0.01267  Uiso   1.00
H31    H     0.76500   0.74020   0.78500   0.01267  Uiso   1.00
H32    H     0.78710   0.68020   0.80880   0.01267  Uiso   1.00
H33    H     0.80290   0.80220   0.81730   0.01267  Uiso   1.00
H34    H     0.02100   0.76640   0.76240   0.01267  Uiso   1.00
H35    H     0.93220   0.65880   0.77530   0.01267  Uiso   1.00
H36    H     0.88920   0.71320   0.75420   0.01267  Uiso   1.00
H37    H     0.61330   0.75080   0.88610   0.01267  Uiso   1.00
H38    H     0.78120   0.91580   0.88460   0.01267  Uiso   1.00
H39    H     0.59640   0.05720   0.86400   0.01267  Uiso   1.00
H40    H     0.43350   0.88960   0.86680   0.01267  Uiso   1.00
H41    H     0.80000   0.17340   0.86800   0.01267  Uiso   1.00
H42    H     0.93530   0.08880   0.88330   0.01267  Uiso   1.00
H43    H     0.14320   0.21800   0.88140   0.01267  Uiso   1.00
H44    H     0.29490   0.39700   0.88120   0.01267  Uiso   1.00
H45    H     0.08980   0.52100   0.87920   0.01267  Uiso   1.00
H46    H     0.93350   0.34660   0.87860   0.01267  Uiso   1.00
H47    H     0.05760   0.53200   0.78110   0.01267  Uiso   1.00
H48    H     0.88980   0.36580   0.78160   0.01267  Uiso   1.00
H49    H     0.07550   0.23180   0.80720   0.01267  Uiso   1.00
H50    H     0.23770   0.39980   0.80490   0.01267  Uiso   1.00
H51    H     0.87320   0.11060   0.80030   0.01267  Uiso   1.00
H52    H     0.73740   0.19440   0.78460   0.01267  Uiso   1.00
H53    H     0.52990   0.06500   0.78710   0.01267  Uiso   1.00
H54    H     0.37890   0.88660   0.78840   0.01267  Uiso   1.00
H55    H     0.58330   0.76300   0.79030   0.01267  Uiso   1.00
H56    H     0.73960   0.93820   0.79020   0.01267  Uiso   1.00
H57    H     0.84670   0.71700   0.96810   0.01267  Uiso   1.00
H58    H     0.84170   0.54980   0.97120   0.01267  Uiso   1.00
H59    H     0.16800   0.69040   0.95010   0.01267  Uiso   1.00
H60    H     0.16560   0.85500   0.94940   0.01267  Uiso   1.00
H61    H     0.92620   0.43000   0.96580   0.01267  Uiso   1.00
H62    H     0.14920   0.51740   0.95290   0.01267  Uiso   1.00
H63    H     0.88880   0.25840   0.95420   0.01267  Uiso   1.00
H64    H     0.87060   0.08360   0.95420   0.01267  Uiso   1.00
H65    H     0.20150   0.21220   0.95900   0.01267  Uiso   1.00
H66    H     0.22840   0.39020   0.95800   0.01267  Uiso   1.00
H67    H     0.87330   0.22960   0.55270   0.01267  Uiso   1.00
H68    H     0.74960   0.08240   0.47010   0.01267  Uiso   1.00
H69    H     0.61900   0.25620   0.51560   0.01267  Uiso   1.00
H70    H     0.65610   0.08720   0.42840   0.01267  Uiso   1.00
H71    H     0.58090   0.99120   0.44670   0.01267  Uiso   1.00
H72    H     0.52180   0.02760   0.42450   0.01267  Uiso   1.00
H73    H     0.56790   0.23900   0.43510   0.01267  Uiso   1.00
H74    H     0.62540   0.30720   0.46610   0.01267  Uiso   1.00
H75    H     0.69730   0.27940   0.44310   0.01267  Uiso   1.00
H76    H     0.44490   0.03220   0.48080   0.01267  Uiso   1.00
H77    H     0.46130   0.15500   0.48400   0.01267  Uiso   1.00
H78    H     0.41430   0.07420   0.45400   0.01267  Uiso   1.00
H79    H     0.03180   0.45540   0.63440   0.01267  Uiso   1.00
H80    H     0.32520   0.58580   0.68410   0.01267  Uiso   1.00
H81    H     0.03670   0.53380   0.72110   0.01267  Uiso   1.00
H82    H     0.30680   0.68380   0.62290   0.01267  Uiso   1.00
H83    H     0.39780   0.67320   0.64150   0.01267  Uiso   1.00
H84    H     0.38510   0.64060   0.60740   0.01267  Uiso   1.00
H85    H     0.35770   0.45280   0.61410   0.01267  Uiso   1.00
H86    H     0.37220   0.49260   0.64790   0.01267  Uiso   1.00
H87    H     0.26450   0.37820   0.63410   0.01267  Uiso   1.00
H88    H     0.12300   0.39240   0.60030   0.01267  Uiso   1.00
H89    H     0.13970   0.51320   0.59850   0.01267  Uiso   1.00
H90    H     0.22380   0.47660   0.58370   0.01267  Uiso   1.00
H91    H     0.34250   0.15960   0.61040   0.01267  Uiso   1.00
H92    H     0.05540   0.10360   0.64920   0.01267  Uiso   1.00
H93    H     0.35780   0.26300   0.69620   0.01267  Uiso   1.00
H94    H     0.00810   0.08260   0.72710   0.01267  Uiso   1.00
H95    H     0.00510   0.03040   0.69470   0.01267  Uiso   1.00
H96    H     0.09870   0.04560   0.71790   0.01267  Uiso   1.00
H97    H     0.02480   0.25980   0.71500   0.01267  Uiso   1.00
H98    H     0.10690   0.31980   0.69120   0.01267  Uiso   1.00
H99    H     0.00070   0.19780   0.68270   0.01267  Uiso   1.00
H100   H     0.25460   0.23360   0.73760   0.01267  Uiso   1.00
H101   H     0.27340   0.34120   0.72470   0.01267  Uiso   1.00
H102   H     0.17600   0.28680   0.74580   0.01267  Uiso   1.00
H103   H     0.86250   0.24920   0.61390   0.01267  Uiso   1.00
H104   H     0.86540   0.08420   0.61540   0.01267  Uiso   1.00
H105   H     0.53920   0.94280   0.63600   0.01267  Uiso   1.00
H106   H     0.54390   0.11040   0.63320   0.01267  Uiso   1.00
H107   H     0.62660   0.82660   0.63200   0.01267  Uiso   1.00
H108   H     0.84650   0.91120   0.61670   0.01267  Uiso   1.00
H109   H     0.92520   0.78200   0.61860   0.01267  Uiso   1.00
H110   H     0.89790   0.60300   0.61880   0.01267  Uiso   1.00
H111   H     0.56880   0.47900   0.62080   0.01267  Uiso   1.00
H112   H     0.58690   0.65340   0.62140   0.01267  Uiso   1.00
H113   H     0.52560   0.46800   0.71890   0.01267  Uiso   1.00
H114   H     0.52400   0.63420   0.71840   0.01267  Uiso   1.00
H115   H     0.84370   0.76820   0.69280   0.01267  Uiso   1.00
H116   H     0.83790   0.60020   0.69510   0.01267  Uiso   1.00
H117   H     0.76260   0.88940   0.69970   0.01267  Uiso   1.00
H118   H     0.54300   0.80560   0.71540   0.01267  Uiso   1.00
H119   H     0.46490   0.93500   0.71290   0.01267  Uiso   1.00
H120   H     0.49230   0.11340   0.71160   0.01267  Uiso   1.00
H121   H     0.82030   0.23700   0.70970   0.01267  Uiso   1.00
H122   H     0.80140   0.06180   0.70980   0.01267  Uiso   1.00
H123   H     0.12970   0.28300   0.53190   0.01267  Uiso   1.00
H124   H     0.29190   0.45020   0.52880   0.01267  Uiso   1.00
H125   H     0.47760   0.30960   0.54990   0.01267  Uiso   1.00
H126   H     0.31060   0.14500   0.55060   0.01267  Uiso   1.00
H127   H     0.49620   0.57000   0.53420   0.01267  Uiso   1.00
H128   H     0.63180   0.48260   0.54710   0.01267  Uiso   1.00
H129   H     0.63040   0.74160   0.54580   0.01267  Uiso   1.00
H130   H     0.78700   0.91640   0.54580   0.01267  Uiso   1.00
H131   H     0.98930   0.78780   0.54100   0.01267  Uiso   1.00
H132   H     0.83820   0.60980   0.54200   0.01267  Uiso   1.00
H133   H     0.35630   0.22960   0.05270   0.01267  Uiso   1.00
H134   H     0.33280   0.08240   0.97010   0.01267  Uiso   1.00
H135   H     0.63720   0.25620   0.01560   0.01267  Uiso   1.00
H136   H     0.43110   0.08720   0.92840   0.01267  Uiso   1.00
H137   H     0.41030   0.99120   0.94670   0.01267  Uiso   1.00
H138   H     0.50580   0.02760   0.92450   0.01267  Uiso   1.00
H139   H     0.67110   0.23900   0.93510   0.01267  Uiso   1.00
H140   H     0.68180   0.30720   0.96610   0.01267  Uiso   1.00
H141   H     0.58210   0.27940   0.94310   0.01267  Uiso   1.00
H142   H     0.58730   0.03220   0.98080   0.01267  Uiso   1.00
H143   H     0.69370   0.15500   0.98400   0.01267  Uiso   1.00
H144   H     0.65990   0.07420   0.95400   0.01267  Uiso   1.00
H145   H     0.42360   0.45540   0.13440   0.01267  Uiso   1.00
H146   H     0.26060   0.58580   0.18410   0.01267  Uiso   1.00
H147   H     0.49710   0.53380   0.22110   0.01267  Uiso   1.00
H148   H     0.37700   0.68380   0.12290   0.01267  Uiso   1.00
H149   H     0.27540   0.67320   0.14150   0.01267  Uiso   1.00
H150   H     0.25550   0.64060   0.10740   0.01267  Uiso   1.00
H151   H     0.09510   0.45280   0.11410   0.01267  Uiso   1.00
H152   H     0.12040   0.49260   0.14790   0.01267  Uiso   1.00
H153   H     0.11370   0.37820   0.13410   0.01267  Uiso   1.00
H154   H     0.26940   0.39240   0.10030   0.01267  Uiso   1.00
H155   H     0.37350   0.51320   0.09850   0.01267  Uiso   1.00
H156   H     0.25280   0.47660   0.08370   0.01267  Uiso   1.00
H157   H     0.81710   0.15960   0.11040   0.01267  Uiso   1.00
H158   H     0.04820   0.10360   0.14920   0.01267  Uiso   1.00
H159   H     0.90520   0.26300   0.19620   0.01267  Uiso   1.00
H160   H     0.07450   0.08260   0.22710   0.01267  Uiso   1.00
H161   H     0.02530   0.03040   0.19470   0.01267  Uiso   1.00
H162   H     0.94690   0.04560   0.21790   0.01267  Uiso   1.00
H163   H     0.23500   0.25980   0.21500   0.01267  Uiso   1.00
H164   H     0.21290   0.31980   0.19120   0.01267  Uiso   1.00
H165   H     0.19710   0.19780   0.18270   0.01267  Uiso   1.00
H166   H     0.97900   0.23360   0.23760   0.01267  Uiso   1.00
H167   H     0.06780   0.34120   0.22470   0.01267  Uiso   1.00
H168   H     0.11080   0.28680   0.24580   0.01267  Uiso   1.00
H169   H     0.38670   0.24920   0.11390   0.01267  Uiso   1.00
H170   H     0.21880   0.08420   0.11540   0.01267  Uiso   1.00
H171   H     0.40360   0.94280   0.13600   0.01267  Uiso   1.00
H172   H     0.56650   0.11040   0.13320   0.01267  Uiso   1.00
H173   H     0.20000   0.82660   0.13200   0.01267  Uiso   1.00
H174   H     0.06470   0.91120   0.11670   0.01267  Uiso   1.00
H175   H     0.85680   0.78200   0.11860   0.01267  Uiso   1.00
H176   H     0.70510   0.60300   0.11880   0.01267  Uiso   1.00
H177   H     0.91020   0.47900   0.12080   0.01267  Uiso   1.00
H178   H     0.06650   0.65340   0.12140   0.01267  Uiso   1.00
H179   H     0.94240   0.46800   0.21890   0.01267  Uiso   1.00
H180   H     0.11020   0.63420   0.21840   0.01267  Uiso   1.00
H181   H     0.92450   0.76820   0.19280   0.01267  Uiso   1.00
H182   H     0.76230   0.60020   0.19510   0.01267  Uiso   1.00
H183   H     0.12680   0.88940   0.19970   0.01267  Uiso   1.00
H184   H     0.26260   0.80560   0.21540   0.01267  Uiso   1.00
H185   H     0.47010   0.93500   0.21290   0.01267  Uiso   1.00
H186   H     0.62110   0.11340   0.21160   0.01267  Uiso   1.00
H187   H     0.41670   0.23700   0.20970   0.01267  Uiso   1.00
H188   H     0.26040   0.06180   0.20980   0.01267  Uiso   1.00
H189   H     0.15330   0.28300   0.03190   0.01267  Uiso   1.00
H190   H     0.15830   0.45020   0.02880   0.01267  Uiso   1.00
H191   H     0.83200   0.30960   0.04990   0.01267  Uiso   1.00
H192   H     0.83440   0.14500   0.05060   0.01267  Uiso   1.00
H193   H     0.07380   0.57000   0.03420   0.01267  Uiso   1.00
H194   H     0.85080   0.48260   0.04710   0.01267  Uiso   1.00
H195   H     0.11120   0.74160   0.04580   0.01267  Uiso   1.00
H196   H     0.12940   0.91640   0.04580   0.01267  Uiso   1.00
H197   H     0.79850   0.78780   0.04100   0.01267  Uiso   1.00
H198   H     0.77160   0.60980   0.04200   0.01267  Uiso   1.00
H199   H     0.12670   0.77040   0.44730   0.01267  Uiso   1.00
H200   H     0.25040   0.91760   0.52990   0.01267  Uiso   1.00
H201   H     0.38100   0.74380   0.48440   0.01267  Uiso   1.00
H202   H     0.34390   0.91280   0.57160   0.01267  Uiso   1.00
H203   H     0.41910   0.00880   0.55330   0.01267  Uiso   1.00
H204   H     0.47820   0.97240   0.57550   0.01267  Uiso   1.00
H205   H     0.43210   0.76100   0.56490   0.01267  Uiso   1.00
H206   H     0.37460   0.69280   0.53390   0.01267  Uiso   1.00
H207   H     0.30270   0.72060   0.55690   0.01267  Uiso   1.00
H208   H     0.55510   0.96780   0.51920   0.01267  Uiso   1.00
H209   H     0.53870   0.84500   0.51600   0.01267  Uiso   1.00
H210   H     0.58570   0.92580   0.54600   0.01267  Uiso   1.00
H211   H     0.96820   0.54460   0.36560   0.01267  Uiso   1.00
H212   H     0.67480   0.41420   0.31590   0.01267  Uiso   1.00
H213   H     0.96330   0.46620   0.27890   0.01267  Uiso   1.00
H214   H     0.69320   0.31620   0.37710   0.01267  Uiso   1.00
H215   H     0.60220   0.32680   0.35850   0.01267  Uiso   1.00
H216   H     0.61490   0.35940   0.39260   0.01267  Uiso   1.00
H217   H     0.64230   0.54720   0.38590   0.01267  Uiso   1.00
H218   H     0.62780   0.50740   0.35210   0.01267  Uiso   1.00
H219   H     0.73550   0.62180   0.36590   0.01267  Uiso   1.00
H220   H     0.87700   0.60760   0.39970   0.01267  Uiso   1.00
H221   H     0.86030   0.48680   0.40150   0.01267  Uiso   1.00
H222   H     0.77620   0.52340   0.41630   0.01267  Uiso   1.00
H223   H     0.65750   0.84040   0.38960   0.01267  Uiso   1.00
H224   H     0.94460   0.89640   0.35080   0.01267  Uiso   1.00
H225   H     0.64220   0.73700   0.30380   0.01267  Uiso   1.00
H226   H     0.99190   0.91740   0.27290   0.01267  Uiso   1.00
H227   H     0.99490   0.96960   0.30530   0.01267  Uiso   1.00
H228   H     0.90130   0.95440   0.28210   0.01267  Uiso   1.00
H229   H     0.97520   0.74020   0.28500   0.01267  Uiso   1.00
H230   H     0.89310   0.68020   0.30880   0.01267  Uiso   1.00
H231   H     0.99930   0.80220   0.31730   0.01267  Uiso   1.00
H232   H     0.74540   0.76640   0.26240   0.01267  Uiso   1.00
H233   H     0.72660   0.65880   0.27530   0.01267  Uiso   1.00
H234   H     0.82400   0.71320   0.25420   0.01267  Uiso   1.00
H235   H     0.13750   0.75080   0.38610   0.01267  Uiso   1.00
H236   H     0.13460   0.91580   0.38460   0.01267  Uiso   1.00
H237   H     0.46080   0.05720   0.36400   0.01267  Uiso   1.00
H238   H     0.45610   0.88960   0.36680   0.01267  Uiso   1.00
H239   H     0.37340   0.17340   0.36800   0.01267  Uiso   1.00
H240   H     0.15350   0.08880   0.38330   0.01267  Uiso   1.00
H241   H     0.07480   0.21800   0.38140   0.01267  Uiso   1.00
H242   H     0.10210   0.39700   0.38120   0.01267  Uiso   1.00
H243   H     0.43120   0.52100   0.37920   0.01267  Uiso   1.00
H244   H     0.41310   0.34660   0.37860   0.01267  Uiso   1.00
H245   H     0.47440   0.53200   0.28110   0.01267  Uiso   1.00
H246   H     0.47600   0.36580   0.28160   0.01267  Uiso   1.00
H247   H     0.15630   0.23180   0.30720   0.01267  Uiso   1.00
H248   H     0.16210   0.39980   0.30490   0.01267  Uiso   1.00
H249   H     0.23740   0.11060   0.30030   0.01267  Uiso   1.00
H250   H     0.45700   0.19440   0.28460   0.01267  Uiso   1.00
H251   H     0.53510   0.06500   0.28710   0.01267  Uiso   1.00
H252   H     0.50770   0.88660   0.28840   0.01267  Uiso   1.00
H253   H     0.17970   0.76300   0.29030   0.01267  Uiso   1.00
H254   H     0.19860   0.93820   0.29020   0.01267  Uiso   1.00
H255   H     0.87030   0.71700   0.46810   0.01267  Uiso   1.00
H256   H     0.70810   0.54980   0.47120   0.01267  Uiso   1.00
H257   H     0.52240   0.69040   0.45010   0.01267  Uiso   1.00
H258   H     0.68940   0.85500   0.44940   0.01267  Uiso   1.00
H259   H     0.50380   0.43000   0.46580   0.01267  Uiso   1.00
H260   H     0.36820   0.51740   0.45290   0.01267  Uiso   1.00
H261   H     0.36960   0.25840   0.45420   0.01267  Uiso   1.00
H262   H     0.21300   0.08360   0.45420   0.01267  Uiso   1.00
H263   H     0.01070   0.21220   0.45900   0.01267  Uiso   1.00
H264   H     0.16180   0.39020   0.45800   0.01267  Uiso   1.00
C1     C     0.49166   0.74532   0.96164   0.01267  Uiso   1.00
C2     C     0.60930   0.78740   0.96319   0.01267  Uiso   1.00
C3     C     0.67558   0.85496   0.98844   0.01267  Uiso   1.00
C4     C     0.62256   0.87532   0.01270   0.01267  Uiso   1.00
C5     C     0.50489   0.83398   0.01183   0.01267  Uiso   1.00
C6     C     0.44155   0.77050   0.98577   0.01267  Uiso   1.00
C7     C     0.42301   0.68462   0.93310   0.01267  Uiso   1.00
C8     C     0.80435   0.91110   0.98949   0.01267  Uiso   1.00
C9     C     0.44650   0.85820   0.03809   0.01267  Uiso   1.00
C10    C     0.53260   0.94600   0.06177   0.01267  Uiso   1.00
C11    C     0.37100   0.74820   0.04949   0.01267  Uiso   1.00
C12    C     0.36920   0.90340   0.02899   0.01267  Uiso   1.00
C13    C     0.52933   0.51486   0.82249   0.01267  Uiso   1.00
C14    C     0.58966   0.51732   0.84741   0.01267  Uiso   1.00
C15    C     0.66941   0.47942   0.84543   0.01267  Uiso   1.00
C16    C     0.68500   0.43780   0.81782   0.01267  Uiso   1.00
C17    C     0.62241   0.43022   0.79291   0.01267  Uiso   1.00
C18    C     0.54467   0.46994   0.79543   0.01267  Uiso   1.00
C19    C     0.44783   0.56086   0.82541   0.01267  Uiso   1.00
C20    C     0.64111   0.38622   0.76326   0.01267  Uiso   1.00
C21    C     0.73740   0.48340   0.87266   0.01267  Uiso   1.00
C22    C     0.70420   0.35980   0.87548   0.01267  Uiso   1.00
C23    C     0.86330   0.54540   0.86880   0.01267  Uiso   1.00
C24    C     0.70790   0.52940   0.89992   0.01267  Uiso   1.00
C25    C     0.14857   0.77914   0.84661   0.01267  Uiso   1.00
C26    C     0.14012   0.83404   0.87294   0.01267  Uiso   1.00
C27    C     0.06734   0.87988   0.87449   0.01267  Uiso   1.00
C28    C     0.00221   0.86782   0.84946   0.01267  Uiso   1.00
C29    C     0.01018   0.81456   0.82254   0.01267  Uiso   1.00
C30    C     0.08597   0.77154   0.82160   0.01267  Uiso   1.00
C31    C     0.22526   0.72732   0.84478   0.01267  Uiso   1.00
C32    C     0.05235   0.93350   0.90345   0.01267  Uiso   1.00
C33    C     0.93830   0.80440   0.79537   0.01267  Uiso   1.00
C34    C     0.97640   0.92220   0.78827   0.01267  Uiso   1.00
C35    C     0.81140   0.75180   0.80226   0.01267  Uiso   1.00
C36    C     0.94590   0.72880   0.76944   0.01267  Uiso   1.00
C37    C     0.60987   0.81374   0.88183   0.01267  Uiso   1.00
C38    C     0.71152   0.91284   0.88080   0.01267  Uiso   1.00
C39    C     0.70993   0.00806   0.87418   0.01267  Uiso   1.00
C40    C     0.60234   0.99628   0.86875   0.01267  Uiso   1.00
C41    C     0.50426   0.89472   0.87041   0.01267  Uiso   1.00
C42    C     0.81230   0.11660   0.87332   0.01267  Uiso   1.00
C43    C     0.92038   0.14516   0.87903   0.01267  Uiso   1.00
C44    C     0.01883   0.25906   0.87914   0.01267  Uiso   1.00
C45    C     0.12965   0.27810   0.88057   0.01267  Uiso   1.00
C46    C     0.22093   0.38666   0.88079   0.01267  Uiso   1.00
C47    C     0.10101   0.45922   0.87950   0.01267  Uiso   1.00
C48    C     0.00645   0.35430   0.87903   0.01267  Uiso   1.00
C49    C     0.06099   0.46998   0.78606   0.01267  Uiso   1.00
C50    C     0.95957   0.37054   0.78651   0.01267  Uiso   1.00
C51    C     0.96233   0.27766   0.79428   0.01267  Uiso   1.00
C52    C     0.06969   0.29158   0.80146   0.01267  Uiso   1.00
C53    C     0.16690   0.39320   0.80015   0.01267  Uiso   1.00
C54    C     0.86039   0.16718   0.79505   0.01267  Uiso   1.00
C55    C     0.75262   0.13864   0.78918   0.01267  Uiso   1.00
C56    C     0.65489   0.02438   0.78942   0.01267  Uiso   1.00
C57    C     0.54370   0.00520   0.78820   0.01267  Uiso   1.00
C58    C     0.45290   0.89700   0.78859   0.01267  Uiso   1.00
C59    C     0.57199   0.82478   0.78985   0.01267  Uiso   1.00
C60    C     0.66671   0.93042   0.78988   0.01267  Uiso   1.00
C61    C     0.91240   0.71180   0.96461   0.01267  Uiso   1.00
C62    C     0.90845   0.61050   0.96628   0.01267  Uiso   1.00
C63    C     0.00377   0.59854   0.96061   0.01267  Uiso   1.00
C64    C     0.10153   0.69366   0.95405   0.01267  Uiso   1.00
C65    C     0.09883   0.79186   0.95343   0.01267  Uiso   1.00
C66    C     0.99646   0.48772   0.96140   0.01267  Uiso   1.00
C67    C     0.07725   0.46050   0.95658   0.01267  Uiso   1.00
C68    C     0.06138   0.34656   0.95670   0.01267  Uiso   1.00
C69    C     0.95430   0.25140   0.95523   0.01267  Uiso   1.00
C70    C     0.94402   0.14624   0.95525   0.01267  Uiso   1.00
C71    C     0.13727   0.22134   0.95789   0.01267  Uiso   1.00
C72    C     0.15433   0.32926   0.95759   0.01267  Uiso   1.00
C73    C     0.74634   0.25468   0.53836   0.01267  Uiso   1.00
C74    C     0.82190   0.21260   0.53681   0.01267  Uiso   1.00
C75    C     0.82062   0.14504   0.51156   0.01267  Uiso   1.00
C76    C     0.74724   0.12468   0.48730   0.01267  Uiso   1.00
C77    C     0.67091   0.16602   0.48817   0.01267  Uiso   1.00
C78    C     0.67105   0.22950   0.51423   0.01267  Uiso   1.00
C79    C     0.73839   0.31538   0.56690   0.01267  Uiso   1.00
C80    C     0.89325   0.08890   0.51051   0.01267  Uiso   1.00
C81    C     0.58830   0.14180   0.46191   0.01267  Uiso   1.00
C82    C     0.58660   0.05400   0.43823   0.01267  Uiso   1.00
C83    C     0.62280   0.25180   0.45051   0.01267  Uiso   1.00
C84    C     0.46580   0.09660   0.47101   0.01267  Uiso   1.00
C85    C     0.01447   0.48514   0.67751   0.01267  Uiso   1.00
C86    C     0.07234   0.48268   0.65259   0.01267  Uiso   1.00
C87    C     0.18999   0.52058   0.65457   0.01267  Uiso   1.00
C88    C     0.24720   0.56220   0.68218   0.01267  Uiso   1.00
C89    C     0.19219   0.56978   0.70709   0.01267  Uiso   1.00
C90    C     0.07473   0.53006   0.70457   0.01267  Uiso   1.00
C91    C     0.88697   0.43914   0.67459   0.01267  Uiso   1.00
C92    C     0.25489   0.61378   0.73674   0.01267  Uiso   1.00
C93    C     0.25400   0.51660   0.62734   0.01267  Uiso   1.00
C94    C     0.34440   0.64020   0.62452   0.01267  Uiso   1.00
C95    C     0.31790   0.45460   0.63120   0.01267  Uiso   1.00
C96    C     0.17850   0.47060   0.60008   0.01267  Uiso   1.00
C97    C     0.36943   0.22086   0.65339   0.01267  Uiso   1.00
C98    C     0.30608   0.16596   0.62706   0.01267  Uiso   1.00
C99    C     0.18746   0.12012   0.62551   0.01267  Uiso   1.00
C100   C     0.13439   0.13218   0.65054   0.01267  Uiso   1.00
C101   C     0.19562   0.18544   0.67746   0.01267  Uiso   1.00
C102   C     0.31443   0.22846   0.67840   0.01267  Uiso   1.00
C103   C     0.49794   0.27268   0.65522   0.01267  Uiso   1.00
C104   C     0.11885   0.06650   0.59655   0.01267  Uiso   1.00
C105   C     0.13390   0.19560   0.70463   0.01267  Uiso   1.00
C106   C     0.05420   0.07780   0.71173   0.01267  Uiso   1.00
C107   C     0.05960   0.24820   0.69774   0.01267  Uiso   1.00
C108   C     0.21710   0.27120   0.73056   0.01267  Uiso   1.00
C109   C     0.79613   0.18626   0.61817   0.01267  Uiso   1.00
C110   C     0.79868   0.08716   0.61920   0.01267  Uiso   1.00
C111   C     0.70187   0.99194   0.62582   0.01267  Uiso   1.00
C112   C     0.60606   0.00372   0.63125   0.01267  Uiso   1.00
C113   C     0.60954   0.10528   0.62959   0.01267  Uiso   1.00
C114   C     0.69570   0.88340   0.62668   0.01267  Uiso   1.00
C115   C     0.77522   0.85484   0.62097   0.01267  Uiso   1.00
C116   C     0.75977   0.74094   0.62086   0.01267  Uiso   1.00
C117   C     0.85155   0.72190   0.61943   0.01267  Uiso   1.00
C118   C     0.83427   0.61334   0.61921   0.01267  Uiso   1.00
C119   C     0.64179   0.54078   0.62050   0.01267  Uiso   1.00
C120   C     0.65215   0.64570   0.62097   0.01267  Uiso   1.00
C121   C     0.59101   0.53002   0.71394   0.01267  Uiso   1.00
C122   C     0.58903   0.62946   0.71349   0.01267  Uiso   1.00
C123   C     0.68467   0.72234   0.70572   0.01267  Uiso   1.00
C124   C     0.77811   0.70842   0.69854   0.01267  Uiso   1.00
C125   C     0.77370   0.60680   0.69985   0.01267  Uiso   1.00
C126   C     0.69321   0.83282   0.70495   0.01267  Uiso   1.00
C127   C     0.61398   0.86136   0.71082   0.01267  Uiso   1.00
C128   C     0.63051   0.97562   0.71058   0.01267  Uiso   1.00
C129   C     0.53850   0.99480   0.71180   0.01267  Uiso   1.00
C130   C     0.55590   0.10300   0.71141   0.01267  Uiso   1.00
C131   C     0.74721   0.17522   0.71015   0.01267  Uiso   1.00
C132   C     0.73629   0.06958   0.71012   0.01267  Uiso   1.00
C133   C     0.20060   0.28820   0.53539   0.01267  Uiso   1.00
C134   C     0.29795   0.38950   0.53372   0.01267  Uiso   1.00
C135   C     0.40523   0.40146   0.53939   0.01267  Uiso   1.00
C136   C     0.40787   0.30634   0.54595   0.01267  Uiso   1.00
C137   C     0.30697   0.20814   0.54657   0.01267  Uiso   1.00
C138   C     0.50874   0.51228   0.53860   0.01267  Uiso   1.00
C139   C     0.61675   0.53950   0.54342   0.01267  Uiso   1.00
C140   C     0.71482   0.65344   0.54330   0.01267  Uiso   1.00
C141   C     0.70290   0.74860   0.54477   0.01267  Uiso   1.00
C142   C     0.79778   0.85376   0.54475   0.01267  Uiso   1.00
C143   C     0.91593   0.77866   0.54211   0.01267  Uiso   1.00
C144   C     0.82507   0.67074   0.54241   0.01267  Uiso   1.00
C145   C     0.50834   0.25468   0.03836   0.01267  Uiso   1.00
C146   C     0.39070   0.21260   0.03681   0.01267  Uiso   1.00
C147   C     0.32442   0.14504   0.01156   0.01267  Uiso   1.00
C148   C     0.37744   0.12468   0.98730   0.01267  Uiso   1.00
C149   C     0.49511   0.16602   0.98817   0.01267  Uiso   1.00
C150   C     0.55845   0.22950   0.01423   0.01267  Uiso   1.00
C151   C     0.57699   0.31538   0.06690   0.01267  Uiso   1.00
C152   C     0.19565   0.08890   0.01051   0.01267  Uiso   1.00
C153   C     0.55350   0.14180   0.96191   0.01267  Uiso   1.00
C154   C     0.46740   0.05400   0.93823   0.01267  Uiso   1.00
C155   C     0.62900   0.25180   0.95051   0.01267  Uiso   1.00
C156   C     0.63080   0.09660   0.97101   0.01267  Uiso   1.00
C157   C     0.47067   0.48514   0.17751   0.01267  Uiso   1.00
C158   C     0.41034   0.48268   0.15259   0.01267  Uiso   1.00
C159   C     0.33059   0.52058   0.15457   0.01267  Uiso   1.00
C160   C     0.31500   0.56220   0.18218   0.01267  Uiso   1.00
C161   C     0.37759   0.56978   0.20709   0.01267  Uiso   1.00
C162   C     0.45533   0.53006   0.20457   0.01267  Uiso   1.00
C163   C     0.55217   0.43914   0.17459   0.01267  Uiso   1.00
C164   C     0.35889   0.61378   0.23674   0.01267  Uiso   1.00
C165   C     0.26260   0.51660   0.12734   0.01267  Uiso   1.00
C166   C     0.29580   0.64020   0.12452   0.01267  Uiso   1.00
C167   C     0.13670   0.45460   0.13120   0.01267  Uiso   1.00
C168   C     0.29210   0.47060   0.10008   0.01267  Uiso   1.00
C169   C     0.85143   0.22086   0.15339   0.01267  Uiso   1.00
C170   C     0.85988   0.16596   0.12706   0.01267  Uiso   1.00
C171   C     0.93266   0.12012   0.12551   0.01267  Uiso   1.00
C172   C     0.99779   0.13218   0.15054   0.01267  Uiso   1.00
C173   C     0.98982   0.18544   0.17746   0.01267  Uiso   1.00
C174   C     0.91403   0.22846   0.17840   0.01267  Uiso   1.00
C175   C     0.77474   0.27268   0.15522   0.01267  Uiso   1.00
C176   C     0.94765   0.06650   0.09655   0.01267  Uiso   1.00
C177   C     0.06170   0.19560   0.20463   0.01267  Uiso   1.00
C178   C     0.02360   0.07780   0.21173   0.01267  Uiso   1.00
C179   C     0.18860   0.24820   0.19774   0.01267  Uiso   1.00
C180   C     0.05410   0.27120   0.23056   0.01267  Uiso   1.00
C181   C     0.39013   0.18626   0.11817   0.01267  Uiso   1.00
C182   C     0.28848   0.08716   0.11920   0.01267  Uiso   1.00
C183   C     0.29007   0.99194   0.12582   0.01267  Uiso   1.00
C184   C     0.39766   0.00372   0.13125   0.01267  Uiso   1.00
C185   C     0.49574   0.10528   0.12959   0.01267  Uiso   1.00
C186   C     0.18770   0.88340   0.12668   0.01267  Uiso   1.00
C187   C     0.07962   0.85484   0.12097   0.01267  Uiso   1.00
C188   C     0.98117   0.74094   0.12086   0.01267  Uiso   1.00
C189   C     0.87035   0.72190   0.11943   0.01267  Uiso   1.00
C190   C     0.77907   0.61334   0.11921   0.01267  Uiso   1.00
C191   C     0.89899   0.54078   0.12050   0.01267  Uiso   1.00
C192   C     0.99355   0.64570   0.12097   0.01267  Uiso   1.00
C193   C     0.93901   0.53002   0.21394   0.01267  Uiso   1.00
C194   C     0.04043   0.62946   0.21349   0.01267  Uiso   1.00
C195   C     0.03767   0.72234   0.20572   0.01267  Uiso   1.00
C196   C     0.93031   0.70842   0.19854   0.01267  Uiso   1.00
C197   C     0.83310   0.60680   0.19985   0.01267  Uiso   1.00
C198   C     0.13961   0.83282   0.20495   0.01267  Uiso   1.00
C199   C     0.24738   0.86136   0.21082   0.01267  Uiso   1.00
C200   C     0.34511   0.97562   0.21058   0.01267  Uiso   1.00
C201   C     0.45630   0.99480   0.21180   0.01267  Uiso   1.00
C202   C     0.54710   0.10300   0.21141   0.01267  Uiso   1.00
C203   C     0.42801   0.17522   0.21015   0.01267  Uiso   1.00
C204   C     0.33329   0.06958   0.21012   0.01267  Uiso   1.00
C205   C     0.08760   0.28820   0.03539   0.01267  Uiso   1.00
C206   C     0.09155   0.38950   0.03372   0.01267  Uiso   1.00
C207   C     0.99623   0.40146   0.03939   0.01267  Uiso   1.00
C208   C     0.89847   0.30634   0.04595   0.01267  Uiso   1.00
C209   C     0.90117   0.20814   0.04657   0.01267  Uiso   1.00
C210   C     0.00354   0.51228   0.03860   0.01267  Uiso   1.00
C211   C     0.92275   0.53950   0.04342   0.01267  Uiso   1.00
C212   C     0.93862   0.65344   0.04330   0.01267  Uiso   1.00
C213   C     0.04570   0.74860   0.04477   0.01267  Uiso   1.00
C214   C     0.05598   0.85376   0.04475   0.01267  Uiso   1.00
C215   C     0.86273   0.77866   0.04211   0.01267  Uiso   1.00
C216   C     0.84567   0.67074   0.04241   0.01267  Uiso   1.00
C217   C     0.25366   0.74532   0.46164   0.01267  Uiso   1.00
C218   C     0.17810   0.78740   0.46319   0.01267  Uiso   1.00
C219   C     0.17938   0.85496   0.48844   0.01267  Uiso   1.00
C220   C     0.25276   0.87532   0.51270   0.01267  Uiso   1.00
C221   C     0.32909   0.83398   0.51183   0.01267  Uiso   1.00
C222   C     0.32895   0.77050   0.48577   0.01267  Uiso   1.00
C223   C     0.26161   0.68462   0.43310   0.01267  Uiso   1.00
C224   C     0.10675   0.91110   0.48949   0.01267  Uiso   1.00
C225   C     0.41170   0.85820   0.53809   0.01267  Uiso   1.00
C226   C     0.41340   0.94600   0.56177   0.01267  Uiso   1.00
C227   C     0.37720   0.74820   0.54949   0.01267  Uiso   1.00
C228   C     0.53420   0.90340   0.52899   0.01267  Uiso   1.00
C229   C     0.98553   0.51486   0.32249   0.01267  Uiso   1.00
C230   C     0.92766   0.51732   0.34741   0.01267  Uiso   1.00
C231   C     0.81001   0.47942   0.34543   0.01267  Uiso   1.00
C232   C     0.75280   0.43780   0.31782   0.01267  Uiso   1.00
C233   C     0.80781   0.43022   0.29291   0.01267  Uiso   1.00
C234   C     0.92527   0.46994   0.29543   0.01267  Uiso   1.00
C235   C     0.11303   0.56086   0.32541   0.01267  Uiso   1.00
C236   C     0.74511   0.38622   0.26326   0.01267  Uiso   1.00
C237   C     0.74600   0.48340   0.37266   0.01267  Uiso   1.00
C238   C     0.65560   0.35980   0.37548   0.01267  Uiso   1.00
C239   C     0.68210   0.54540   0.36880   0.01267  Uiso   1.00
C240   C     0.82150   0.52940   0.39992   0.01267  Uiso   1.00
C241   C     0.63057   0.77914   0.34661   0.01267  Uiso   1.00
C242   C     0.69392   0.83404   0.37294   0.01267  Uiso   1.00
C243   C     0.81254   0.87988   0.37449   0.01267  Uiso   1.00
C244   C     0.86561   0.86782   0.34946   0.01267  Uiso   1.00
C245   C     0.80438   0.81456   0.32254   0.01267  Uiso   1.00
C246   C     0.68557   0.77154   0.32160   0.01267  Uiso   1.00
C247   C     0.50206   0.72732   0.34478   0.01267  Uiso   1.00
C248   C     0.88115   0.93350   0.40345   0.01267  Uiso   1.00
C249   C     0.86610   0.80440   0.29537   0.01267  Uiso   1.00
C250   C     0.94580   0.92220   0.28827   0.01267  Uiso   1.00
C251   C     0.94040   0.75180   0.30226   0.01267  Uiso   1.00
C252   C     0.78290   0.72880   0.26944   0.01267  Uiso   1.00
C253   C     0.20387   0.81374   0.38183   0.01267  Uiso   1.00
C254   C     0.20132   0.91284   0.38080   0.01267  Uiso   1.00
C255   C     0.29813   0.00806   0.37418   0.01267  Uiso   1.00
C256   C     0.39394   0.99628   0.36875   0.01267  Uiso   1.00
C257   C     0.39046   0.89472   0.37041   0.01267  Uiso   1.00
C258   C     0.30430   0.11660   0.37332   0.01267  Uiso   1.00
C259   C     0.22478   0.14516   0.37903   0.01267  Uiso   1.00
C260   C     0.24023   0.25906   0.37914   0.01267  Uiso   1.00
C261   C     0.14845   0.27810   0.38057   0.01267  Uiso   1.00
C262   C     0.16573   0.38666   0.38079   0.01267  Uiso   1.00
C263   C     0.35821   0.45922   0.37950   0.01267  Uiso   1.00
C264   C     0.34785   0.35430   0.37903   0.01267  Uiso   1.00
C265   C     0.40899   0.46998   0.28606   0.01267  Uiso   1.00
C266   C     0.41097   0.37054   0.28651   0.01267  Uiso   1.00
C267   C     0.31533   0.27766   0.29428   0.01267  Uiso   1.00
C268   C     0.22189   0.29158   0.30146   0.01267  Uiso   1.00
C269   C     0.22630   0.39320   0.30015   0.01267  Uiso   1.00
C270   C     0.30679   0.16718   0.29505   0.01267  Uiso   1.00
C271   C     0.38602   0.13864   0.28918   0.01267  Uiso   1.00
C272   C     0.36949   0.02438   0.28942   0.01267  Uiso   1.00
C273   C     0.46150   0.00520   0.28820   0.01267  Uiso   1.00
C274   C     0.44410   0.89700   0.28859   0.01267  Uiso   1.00
C275   C     0.25279   0.82478   0.28985   0.01267  Uiso   1.00
C276   C     0.26371   0.93042   0.28988   0.01267  Uiso   1.00
C277   C     0.79940   0.71180   0.46461   0.01267  Uiso   1.00
C278   C     0.70205   0.61050   0.46628   0.01267  Uiso   1.00
C279   C     0.59477   0.59854   0.46061   0.01267  Uiso   1.00
C280   C     0.59213   0.69366   0.45405   0.01267  Uiso   1.00
C281   C     0.69303   0.79186   0.45343   0.01267  Uiso   1.00
C282   C     0.49126   0.48772   0.46140   0.01267  Uiso   1.00
C283   C     0.38325   0.46050   0.45658   0.01267  Uiso   1.00
C284   C     0.28518   0.34656   0.45670   0.01267  Uiso   1.00
C285   C     0.29710   0.25140   0.45523   0.01267  Uiso   1.00
C286   C     0.20222   0.14624   0.45525   0.01267  Uiso   1.00
C287   C     0.08407   0.22134   0.45789   0.01267  Uiso   1.00
C288   C     0.17493   0.32926   0.45759   0.01267  Uiso   1.00
N1     N     0.50629   0.80338   0.87697   0.01267  Uiso   1.00
N2     N     0.20814   0.47728   0.88043   0.01267  Uiso   1.00
N3     N     0.16539   0.48258   0.79249   0.01267  Uiso   1.00
N4     N     0.46575   0.80730   0.78922   0.01267  Uiso   1.00
N5     N     0.00582   0.80324   0.95824   0.01267  Uiso   1.00
N6     N     0.03357   0.12914   0.95665   0.01267  Uiso   1.00
N7     N     0.70291   0.19662   0.62303   0.01267  Uiso   1.00
N8     N     0.73086   0.52272   0.61957   0.01267  Uiso   1.00
N9     N     0.68281   0.51742   0.70751   0.01267  Uiso   1.00
N10    N     0.65845   0.19270   0.71078   0.01267  Uiso   1.00
N11    N     0.20258   0.19676   0.54176   0.01267  Uiso   1.00
N12    N     0.90443   0.87086   0.54335   0.01267  Uiso   1.00
N13    N     0.49371   0.19662   0.12303   0.01267  Uiso   1.00
N14    N     0.79186   0.52272   0.11957   0.01267  Uiso   1.00
N15    N     0.83461   0.51742   0.20751   0.01267  Uiso   1.00
N16    N     0.53425   0.19270   0.21078   0.01267  Uiso   1.00
N17    N     0.99418   0.19676   0.04176   0.01267  Uiso   1.00
N18    N     0.96643   0.87086   0.04335   0.01267  Uiso   1.00
N19    N     0.29709   0.80338   0.37697   0.01267  Uiso   1.00
N20    N     0.26914   0.47728   0.38043   0.01267  Uiso   1.00
N21    N     0.31719   0.48258   0.29249   0.01267  Uiso   1.00
N22    N     0.34155   0.80730   0.28922   0.01267  Uiso   1.00
N23    N     0.79742   0.80324   0.45824   0.01267  Uiso   1.00
N24    N     0.09557   0.12914   0.45665   0.01267  Uiso   1.00
O1     O     0.45361   0.62806   0.91536   0.01267  Uiso   1.00
O2     O     0.34029   0.69786   0.92608   0.01267  Uiso   1.00
O3     O     0.84834   0.89554   0.96668   0.01267  Uiso   1.00
O4     O     0.85898   0.97242   0.01260   0.01267  Uiso   1.00
O5     O     0.41188   0.56918   0.84977   0.01267  Uiso   1.00
O6     O     0.42171   0.58628   0.80257   0.01267  Uiso   1.00
O7     O     0.55897   0.33674   0.74406   0.01267  Uiso   1.00
O8     O     0.73959   0.40398   0.75744   0.01267  Uiso   1.00
O9     O     0.26223   0.71736   0.82059   0.01267  Uiso   1.00
O10    O     0.24771   0.70010   0.86761   0.01267  Uiso   1.00
O11    O     0.13652   0.98708   0.92204   0.01267  Uiso   1.00
O12    O     0.95522   0.91804   0.90916   0.01267  Uiso   1.00
O13    O     0.82555   0.37194   0.58464   0.01267  Uiso   1.00
O14    O     0.64243   0.30214   0.57392   0.01267  Uiso   1.00
O15    O     0.95280   0.10446   0.53332   0.01267  Uiso   1.00
O16    O     0.88656   0.02758   0.48740   0.01267  Uiso   1.00
O17    O     0.84270   0.43082   0.65023   0.01267  Uiso   1.00
O18    O     0.83543   0.41372   0.69743   0.01267  Uiso   1.00
O19    O     0.22223   0.66326   0.75594   0.01267  Uiso   1.00
O20    O     0.33561   0.59602   0.74256   0.01267  Uiso   1.00
O21    O     0.54487   0.28264   0.67941   0.01267  Uiso   1.00
O22    O     0.54761   0.29990   0.63239   0.01267  Uiso   1.00
O23    O     0.14944   0.01292   0.57796   0.01267  Uiso   1.00
O24    O     0.03718   0.08196   0.59084   0.01267  Uiso   1.00
O25    O     0.54639   0.37194   0.08464   0.01267  Uiso   1.00
O26    O     0.65971   0.30214   0.07392   0.01267  Uiso   1.00
O27    O     0.15166   0.10446   0.03332   0.01267  Uiso   1.00
O28    O     0.14102   0.02758   0.98740   0.01267  Uiso   1.00
O29    O     0.58812   0.43082   0.15023   0.01267  Uiso   1.00
O30    O     0.57829   0.41372   0.19743   0.01267  Uiso   1.00
O31    O     0.44103   0.66326   0.25594   0.01267  Uiso   1.00
O32    O     0.26041   0.59602   0.24256   0.01267  Uiso   1.00
O33    O     0.73777   0.28264   0.17941   0.01267  Uiso   1.00
O34    O     0.75229   0.29990   0.13239   0.01267  Uiso   1.00
O35    O     0.86348   0.01292   0.07796   0.01267  Uiso   1.00
O36    O     0.04478   0.08196   0.09084   0.01267  Uiso   1.00
O37    O     0.17445   0.62806   0.41536   0.01267  Uiso   1.00
O38    O     0.35757   0.69786   0.42608   0.01267  Uiso   1.00
O39    O     0.04720   0.89554   0.46668   0.01267  Uiso   1.00
O40    O     0.11344   0.97242   0.51260   0.01267  Uiso   1.00
O41    O     0.15730   0.56918   0.34977   0.01267  Uiso   1.00
O42    O     0.16457   0.58628   0.30257   0.01267  Uiso   1.00
O43    O     0.77777   0.33674   0.24406   0.01267  Uiso   1.00
O44    O     0.66439   0.40398   0.25744   0.01267  Uiso   1.00
O45    O     0.45513   0.71736   0.32059   0.01267  Uiso   1.00
O46    O     0.45239   0.70010   0.36761   0.01267  Uiso   1.00
O47    O     0.85056   0.98708   0.42204   0.01267  Uiso   1.00
O48    O     0.96282   0.91804   0.40916   0.01267  Uiso   1.00
