data_image0
_cell_length_a       36.6284
_cell_length_b       36.6284
_cell_length_c       27.5127
_cell_angle_alpha    90
_cell_angle_beta     90
_cell_angle_gamma    120

_symmetry_space_group_name_H-M    "P 1"
_symmetry_int_tables_number       1

loop_
  _symmetry_equiv_pos_as_xyz
  'x, y, z'

loop_
  _atom_site_label
  _atom_site_occupancy
  _atom_site_fract_x
  _atom_site_fract_y
  _atom_site_fract_z
  _atom_site_thermal_displace_type
  _atom_site_B_iso_or_equiv
  _atom_site_type_symbol
  Ag1      1.0000 0.07568  0.20254  0.68607  Biso   1.000  Ag
  P1       1.0000 0.11563  0.25126  0.75162  Biso   1.000  P
  P2       1.0000 0.39632  0.51993  0.76650  Biso   1.000  P
  C1       1.0000 0.30750  0.32750  0.74390  Biso   1.000  C
  C2       1.0000 0.26020  0.30610  0.74990  Biso   1.000  C
  C3       1.0000 0.23600  0.29260  0.70730  Biso   1.000  C
  H1       1.0000 0.24960  0.29480  0.67720  Biso   1.000  H
  C4       1.0000 0.19300  0.27630  0.70780  Biso   1.000  C
  H2       1.0000 0.17750  0.26800  0.67830  Biso   1.000  H
  C5       1.0000 0.17200  0.27170  0.75250  Biso   1.000  C
  C6       1.0000 0.19540  0.28310  0.79380  Biso   1.000  C
  H3       1.0000 0.18220  0.27940  0.82460  Biso   1.000  H
  C7       1.0000 0.23990  0.30070  0.79090  Biso   1.000  C
  H4       1.0000 0.25570  0.30880  0.82020  Biso   1.000  H
  C8       1.0000 0.32870  0.37470  0.74980  Biso   1.000  C
  C9       1.0000 0.34040  0.39940  0.70940  Biso   1.000  C
  H5       1.0000 0.33570  0.38710  0.67800  Biso   1.000  H
  C10      1.0000 0.35970  0.44360  0.71470  Biso   1.000  C
  H6       1.0000 0.36650  0.46030  0.68610  Biso   1.000  H
  C11      1.0000 0.36900  0.46330  0.75830  Biso   1.000  C
  C12      1.0000 0.35620  0.43890  0.79850  Biso   1.000  C
  H7       1.0000 0.36050  0.45180  0.82950  Biso   1.000  H
  C13      1.0000 0.33670  0.39540  0.79530  Biso   1.000  C
  H8       1.0000 0.32870  0.37910  0.82420  Biso   1.000  H
  C14      1.0000 0.11050  0.29750  0.74720  Biso   1.000  C
  C15      1.0000 0.07010  0.29260  0.74710  Biso   1.000  C
  H9       1.0000 0.04600  0.26530  0.75070  Biso   1.000  H
  C16      1.0000 0.06510  0.32770  0.74180  Biso   1.000  C
  H10      1.0000 0.03750  0.32400  0.74010  Biso   1.000  H
  C17      1.0000 0.09870  0.36680  0.73890  Biso   1.000  C
  H11      1.0000 0.09480  0.39050  0.73570  Biso   1.000  H
  C18      1.0000 0.13870  0.37240  0.74050  Biso   1.000  C
  H12      1.0000 0.16240  0.40010  0.73890  Biso   1.000  H
  C19      1.0000 0.14460  0.33880  0.74430  Biso   1.000  C
  H13      1.0000 0.17250  0.34330  0.74510  Biso   1.000  H
  C20      1.0000 0.09900  0.23300  0.81300  Biso   1.000  C
  C21      1.0000 0.09250  0.19250  0.82400  Biso   1.000  C
  H14      1.0000 0.09540  0.17550  0.80010  Biso   1.000  H
  C22      1.0000 0.08120  0.17860  0.87290  Biso   1.000  C
  H15      1.0000 0.07650  0.15150  0.88150  Biso   1.000  H
  C23      1.0000 0.07670  0.20220  0.90770  Biso   1.000  C
  H16      1.0000 0.07010  0.19200  0.94000  Biso   1.000  H
  C24      1.0000 0.08190  0.24100  0.89630  Biso   1.000  C
  H17      1.0000 0.07770  0.25730  0.92020  Biso   1.000  H
  C25      1.0000 0.09360  0.25650  0.84810  Biso   1.000  C
  H18      1.0000 0.09780  0.28360  0.84010  Biso   1.000  H
  C26      1.0000 0.36920  0.53810  0.72550  Biso   1.000  C
  C27      1.0000 0.36970  0.53430  0.67660  Biso   1.000  C
  H19      1.0000 0.38560  0.52340  0.66170  Biso   1.000  H
  C28      1.0000 0.34610  0.54670  0.64870  Biso   1.000  C
  H20      1.0000 0.34550  0.54320  0.61440  Biso   1.000  H
  C29      1.0000 0.32490  0.56290  0.66720  Biso   1.000  C
  H21      1.0000 0.30970  0.57140  0.64650  Biso   1.000  H
  C30      1.0000 0.32420  0.56780  0.71520  Biso   1.000  C
  H22      1.0000 0.30840  0.57950  0.72880  Biso   1.000  H
  C31      1.0000 0.34750  0.55540  0.74600  Biso   1.000  C
  H23      1.0000 0.34790  0.55910  0.78020  Biso   1.000  H
  C32      1.0000 0.44610  0.53960  0.73570  Biso   1.000  C
  C33      1.0000 0.46160  0.51490  0.72120  Biso   1.000  C
  H24      1.0000 0.44520  0.48520  0.72530  Biso   1.000  H
  C34      1.0000 0.50240  0.53280  0.69990  Biso   1.000  C
  H25      1.0000 0.51260  0.51510  0.68840  Biso   1.000  H
  C35      1.0000 0.52660  0.57550  0.69610  Biso   1.000  C
  H26      1.0000 0.55530  0.58810  0.68640  Biso   1.000  H
  C36      1.0000 0.50910  0.60020  0.70640  Biso   1.000  C
  H27      1.0000 0.52380  0.62940  0.69850  Biso   1.000  H
  C37      1.0000 0.46950  0.58210  0.72850  Biso   1.000  C
  H28      1.0000 0.45860  0.59960  0.73870  Biso   1.000  H
  O1       1.0000 0.02480  0.13710  0.72320  Biso   1.000  O
  Ag2      1.0000 0.74235  0.53587  0.01940  Biso   1.000  Ag
  P3       1.0000 0.78230  0.58459  0.08495  Biso   1.000  P
  P4       1.0000 0.06299  0.85326  0.09983  Biso   1.000  P
  C38      1.0000 0.97417  0.66083  0.07723  Biso   1.000  C
  C39      1.0000 0.92687  0.63943  0.08323  Biso   1.000  C
  C40      1.0000 0.90267  0.62593  0.04063  Biso   1.000  C
  H29      1.0000 0.91627  0.62813  0.01053  Biso   1.000  H
  C41      1.0000 0.85967  0.60963  0.04113  Biso   1.000  C
  H30      1.0000 0.84417  0.60133  0.01163  Biso   1.000  H
  C42      1.0000 0.83867  0.60503  0.08583  Biso   1.000  C
  C43      1.0000 0.86207  0.61643  0.12713  Biso   1.000  C
  H31      1.0000 0.84887  0.61273  0.15793  Biso   1.000  H
  C44      1.0000 0.90657  0.63403  0.12423  Biso   1.000  C
  H32      1.0000 0.92237  0.64213  0.15353  Biso   1.000  H
  C45      1.0000 0.99537  0.70803  0.08313  Biso   1.000  C
  C46      1.0000 0.00707  0.73273  0.04273  Biso   1.000  C
  H33      1.0000 0.00237  0.72043  0.01133  Biso   1.000  H
  C47      1.0000 0.02637  0.77693  0.04803  Biso   1.000  C
  H34      1.0000 0.03317  0.79363  0.01943  Biso   1.000  H
  C48      1.0000 0.03567  0.79663  0.09163  Biso   1.000  C
  C49      1.0000 0.02287  0.77223  0.13183  Biso   1.000  C
  H35      1.0000 0.02717  0.78513  0.16283  Biso   1.000  H
  C50      1.0000 0.00337  0.72873  0.12863  Biso   1.000  C
  H36      1.0000 0.99537  0.71243  0.15753  Biso   1.000  H
  C51      1.0000 0.77717  0.63083  0.08053  Biso   1.000  C
  C52      1.0000 0.73677  0.62593  0.08043  Biso   1.000  C
  H37      1.0000 0.71267  0.59863  0.08403  Biso   1.000  H
  C53      1.0000 0.73177  0.66103  0.07513  Biso   1.000  C
  H38      1.0000 0.70417  0.65733  0.07343  Biso   1.000  H
  C54      1.0000 0.76537  0.70013  0.07223  Biso   1.000  C
  H39      1.0000 0.76147  0.72383  0.06903  Biso   1.000  H
  C55      1.0000 0.80537  0.70573  0.07383  Biso   1.000  C
  H40      1.0000 0.82907  0.73343  0.07223  Biso   1.000  H
  C56      1.0000 0.81127  0.67213  0.07763  Biso   1.000  C
  H41      1.0000 0.83917  0.67663  0.07843  Biso   1.000  H
  C57      1.0000 0.76567  0.56633  0.14633  Biso   1.000  C
  C58      1.0000 0.75917  0.52583  0.15733  Biso   1.000  C
  H42      1.0000 0.76207  0.50883  0.13343  Biso   1.000  H
  C59      1.0000 0.74787  0.51193  0.20623  Biso   1.000  C
  H43      1.0000 0.74317  0.48483  0.21483  Biso   1.000  H
  C60      1.0000 0.74337  0.53553  0.24103  Biso   1.000  C
  H44      1.0000 0.73677  0.52533  0.27333  Biso   1.000  H
  C61      1.0000 0.74857  0.57433  0.22963  Biso   1.000  C
  H45      1.0000 0.74437  0.59063  0.25353  Biso   1.000  H
  C62      1.0000 0.76027  0.58983  0.18143  Biso   1.000  C
  H46      1.0000 0.76447  0.61693  0.17343  Biso   1.000  H
  C63      1.0000 0.03587  0.87143  0.05883  Biso   1.000  C
  C64      1.0000 0.03637  0.86763  0.00993  Biso   1.000  C
  H47      1.0000 0.05227  0.85673  0.99503  Biso   1.000  H
  C65      1.0000 0.01277  0.88003  0.98203  Biso   1.000  C
  H48      1.0000 0.01217  0.87653  0.94773  Biso   1.000  H
  C66      1.0000 0.99157  0.89623  0.00053  Biso   1.000  C
  H49      1.0000 0.97637  0.90473  0.97983  Biso   1.000  H
  C67      1.0000 0.99087  0.90113  0.04853  Biso   1.000  C
  H50      1.0000 0.97507  0.91283  0.06213  Biso   1.000  H
  C68      1.0000 0.01417  0.88873  0.07933  Biso   1.000  C
  H51      1.0000 0.01457  0.89243  0.11353  Biso   1.000  H
  C69      1.0000 0.11277  0.87293  0.06903  Biso   1.000  C
  C70      1.0000 0.12827  0.84823  0.05453  Biso   1.000  C
  H52      1.0000 0.11187  0.81853  0.05863  Biso   1.000  H
  C71      1.0000 0.16907  0.86613  0.03323  Biso   1.000  C
  H53      1.0000 0.17927  0.84843  0.02173  Biso   1.000  H
  C72      1.0000 0.19327  0.90883  0.02943  Biso   1.000  C
  H54      1.0000 0.22197  0.92143  0.01973  Biso   1.000  H
  C73      1.0000 0.17577  0.93353  0.03973  Biso   1.000  C
  H55      1.0000 0.19047  0.96273  0.03183  Biso   1.000  H
  C74      1.0000 0.13617  0.91543  0.06183  Biso   1.000  C
  H56      1.0000 0.12527  0.93293  0.07203  Biso   1.000  H
  O2       1.0000 0.69147  0.47043  0.05653  Biso   1.000  O
  Ag3      1.0000 0.40901  0.86921  0.35274  Biso   1.000  Ag
  P5       1.0000 0.44896  0.91793  0.41829  Biso   1.000  P
  P6       1.0000 0.72965  0.18660  0.43317  Biso   1.000  P
  C75      1.0000 0.64083  0.99417  0.41057  Biso   1.000  C
  C76      1.0000 0.59353  0.97277  0.41657  Biso   1.000  C
  C77      1.0000 0.56933  0.95927  0.37397  Biso   1.000  C
  H57      1.0000 0.58293  0.96147  0.34387  Biso   1.000  H
  C78      1.0000 0.52633  0.94297  0.37447  Biso   1.000  C
  H58      1.0000 0.51083  0.93467  0.34497  Biso   1.000  H
  C79      1.0000 0.50533  0.93837  0.41917  Biso   1.000  C
  C80      1.0000 0.52873  0.94977  0.46047  Biso   1.000  C
  H59      1.0000 0.51553  0.94607  0.49127  Biso   1.000  H
  C81      1.0000 0.57323  0.96737  0.45757  Biso   1.000  C
  H60      1.0000 0.58903  0.97547  0.48687  Biso   1.000  H
  C82      1.0000 0.66203  0.04137  0.41647  Biso   1.000  C
  C83      1.0000 0.67373  0.06607  0.37607  Biso   1.000  C
  H61      1.0000 0.66903  0.05377  0.34467  Biso   1.000  H
  C84      1.0000 0.69303  0.11027  0.38137  Biso   1.000  C
  H62      1.0000 0.69983  0.12697  0.35277  Biso   1.000  H
  C85      1.0000 0.70233  0.12997  0.42497  Biso   1.000  C
  C86      1.0000 0.68953  0.10557  0.46517  Biso   1.000  C
  H63      1.0000 0.69383  0.11847  0.49617  Biso   1.000  H
  C87      1.0000 0.67003  0.06207  0.46197  Biso   1.000  C
  H64      1.0000 0.66203  0.04577  0.49087  Biso   1.000  H
  C88      1.0000 0.44383  0.96417  0.41387  Biso   1.000  C
  C89      1.0000 0.40343  0.95927  0.41377  Biso   1.000  C
  H65      1.0000 0.37933  0.93197  0.41737  Biso   1.000  H
  C90      1.0000 0.39843  0.99437  0.40847  Biso   1.000  C
  H66      1.0000 0.37083  0.99067  0.40677  Biso   1.000  H
  C91      1.0000 0.43203  0.03347  0.40557  Biso   1.000  C
  H67      1.0000 0.42813  0.05717  0.40237  Biso   1.000  H
  C92      1.0000 0.47203  0.03907  0.40717  Biso   1.000  C
  H68      1.0000 0.49573  0.06677  0.40557  Biso   1.000  H
  C93      1.0000 0.47793  0.00547  0.41097  Biso   1.000  C
  H69      1.0000 0.50583  0.00997  0.41177  Biso   1.000  H
  C94      1.0000 0.43233  0.89967  0.47967  Biso   1.000  C
  C95      1.0000 0.42583  0.85917  0.49067  Biso   1.000  C
  H70      1.0000 0.42873  0.84217  0.46677  Biso   1.000  H
  C96      1.0000 0.41453  0.84527  0.53957  Biso   1.000  C
  H71      1.0000 0.40983  0.81817  0.54817  Biso   1.000  H
  C97      1.0000 0.41003  0.86887  0.57437  Biso   1.000  C
  H72      1.0000 0.40343  0.85867  0.60667  Biso   1.000  H
  C98      1.0000 0.41523  0.90767  0.56297  Biso   1.000  C
  H73      1.0000 0.41103  0.92397  0.58687  Biso   1.000  H
  C99      1.0000 0.42693  0.92317  0.51477  Biso   1.000  C
  H74      1.0000 0.43113  0.95027  0.50677  Biso   1.000  H
  C100     1.0000 0.70253  0.20477  0.39217  Biso   1.000  C
  C101     1.0000 0.70303  0.20097  0.34327  Biso   1.000  C
  H75      1.0000 0.71893  0.19007  0.32837  Biso   1.000  H
  C102     1.0000 0.67943  0.21337  0.31537  Biso   1.000  C
  H76      1.0000 0.67883  0.20987  0.28107  Biso   1.000  H
  C103     1.0000 0.65823  0.22957  0.33387  Biso   1.000  C
  H77      1.0000 0.64303  0.23807  0.31317  Biso   1.000  H
  C104     1.0000 0.65753  0.23447  0.38187  Biso   1.000  C
  H78      1.0000 0.64173  0.24617  0.39547  Biso   1.000  H
  C105     1.0000 0.68083  0.22207  0.41267  Biso   1.000  C
  H79      1.0000 0.68123  0.22577  0.44687  Biso   1.000  H
  C106     1.0000 0.77943  0.20627  0.40237  Biso   1.000  C
  C107     1.0000 0.79493  0.18157  0.38787  Biso   1.000  C
  H80      1.0000 0.77853  0.15187  0.39197  Biso   1.000  H
  C108     1.0000 0.83573  0.19947  0.36657  Biso   1.000  C
  H81      1.0000 0.84593  0.18177  0.35507  Biso   1.000  H
  C109     1.0000 0.85993  0.24217  0.36277  Biso   1.000  C
  H82      1.0000 0.88863  0.25477  0.35307  Biso   1.000  H
  C110     1.0000 0.84243  0.26687  0.37307  Biso   1.000  C
  H83      1.0000 0.85713  0.29607  0.36517  Biso   1.000  H
  C111     1.0000 0.80283  0.24877  0.39517  Biso   1.000  C
  H84      1.0000 0.79193  0.26627  0.40537  Biso   1.000  H
  O3       1.0000 0.35813  0.80377  0.38987  Biso   1.000  O
  Ag4      1.0000 0.79746  0.87314  0.68607  Biso   1.000  Ag
  P7       1.0000 0.74874  0.86437  0.75162  Biso   1.000  P
  P8       1.0000 0.48007  0.87639  0.76650  Biso   1.000  P
  C112     1.0000 0.67250  0.98000  0.74390  Biso   1.000  C
  C113     1.0000 0.69390  0.95410  0.74990  Biso   1.000  C
  C114     1.0000 0.70740  0.94340  0.70730  Biso   1.000  C
  H85      1.0000 0.70520  0.95480  0.67720  Biso   1.000  H
  C115     1.0000 0.72370  0.91670  0.70780  Biso   1.000  C
  H86      1.0000 0.73200  0.90950  0.67830  Biso   1.000  H
  C116     1.0000 0.72830  0.90030  0.75250  Biso   1.000  C
  C117     1.0000 0.71690  0.91230  0.79380  Biso   1.000  C
  H87      1.0000 0.72060  0.90280  0.82460  Biso   1.000  H
  C118     1.0000 0.69930  0.93920  0.79090  Biso   1.000  C
  H88      1.0000 0.69120  0.94690  0.82020  Biso   1.000  H
  C119     1.0000 0.62530  0.95400  0.74980  Biso   1.000  C
  C120     1.0000 0.60060  0.94100  0.70940  Biso   1.000  C
  H89      1.0000 0.61290  0.94860  0.67800  Biso   1.000  H
  C121     1.0000 0.55640  0.91610  0.71470  Biso   1.000  C
  H90      1.0000 0.53970  0.90620  0.68610  Biso   1.000  H
  C122     1.0000 0.53670  0.90570  0.75830  Biso   1.000  C
  C123     1.0000 0.56110  0.91730  0.79850  Biso   1.000  C
  H91      1.0000 0.54820  0.90870  0.82950  Biso   1.000  H
  C124     1.0000 0.60460  0.94130  0.79530  Biso   1.000  C
  H92      1.0000 0.62090  0.94960  0.82420  Biso   1.000  H
  C125     1.0000 0.70250  0.81300  0.74720  Biso   1.000  C
  C126     1.0000 0.70740  0.77750  0.74710  Biso   1.000  C
  H93      1.0000 0.73470  0.78070  0.75070  Biso   1.000  H
  C127     1.0000 0.67230  0.73740  0.74180  Biso   1.000  C
  H94      1.0000 0.67600  0.71350  0.74010  Biso   1.000  H
  C128     1.0000 0.63320  0.73190  0.73890  Biso   1.000  C
  H95      1.0000 0.60950  0.70430  0.73570  Biso   1.000  H
  C129     1.0000 0.62760  0.76630  0.74050  Biso   1.000  C
  H96      1.0000 0.59990  0.76230  0.73890  Biso   1.000  H
  C130     1.0000 0.66120  0.80580  0.74430  Biso   1.000  C
  H97      1.0000 0.65670  0.82920  0.74510  Biso   1.000  H
  C131     1.0000 0.76700  0.86600  0.81300  Biso   1.000  C
  C132     1.0000 0.80750  0.90000  0.82400  Biso   1.000  C
  H98      1.0000 0.82450  0.91990  0.80010  Biso   1.000  H
  C133     1.0000 0.82140  0.90260  0.87290  Biso   1.000  C
  H99      1.0000 0.84850  0.92500  0.88150  Biso   1.000  H
  C134     1.0000 0.79780  0.87450  0.90770  Biso   1.000  C
  H100     1.0000 0.80800  0.87810  0.94000  Biso   1.000  H
  C135     1.0000 0.75900  0.84090  0.89630  Biso   1.000  C
  H101     1.0000 0.74270  0.82040  0.92020  Biso   1.000  H
  C136     1.0000 0.74350  0.83710  0.84810  Biso   1.000  C
  H102     1.0000 0.71640  0.81420  0.84010  Biso   1.000  H
  C137     1.0000 0.46190  0.83110  0.72550  Biso   1.000  C
  C138     1.0000 0.46570  0.83540  0.67660  Biso   1.000  C
  H103     1.0000 0.47660  0.86220  0.66170  Biso   1.000  H
  C139     1.0000 0.45330  0.79940  0.64870  Biso   1.000  C
  H104     1.0000 0.45680  0.80230  0.61440  Biso   1.000  H
  C140     1.0000 0.43710  0.76200  0.66720  Biso   1.000  C
  H105     1.0000 0.42860  0.73830  0.64650  Biso   1.000  H
  C141     1.0000 0.43220  0.75640  0.71520  Biso   1.000  C
  H106     1.0000 0.42050  0.72890  0.72880  Biso   1.000  H
  C142     1.0000 0.44460  0.79210  0.74600  Biso   1.000  C
  H107     1.0000 0.44090  0.78880  0.78020  Biso   1.000  H
  C143     1.0000 0.46040  0.90650  0.73570  Biso   1.000  C
  C144     1.0000 0.48510  0.94670  0.72120  Biso   1.000  C
  H108     1.0000 0.51480  0.96000  0.72530  Biso   1.000  H
  C145     1.0000 0.46720  0.96960  0.69990  Biso   1.000  C
  H109     1.0000 0.48490  0.99750  0.68840  Biso   1.000  H
  C146     1.0000 0.42450  0.95110  0.69610  Biso   1.000  C
  H110     1.0000 0.41190  0.96720  0.68640  Biso   1.000  H
  C147     1.0000 0.39980  0.90890  0.70640  Biso   1.000  C
  H111     1.0000 0.37060  0.89440  0.69850  Biso   1.000  H
  C148     1.0000 0.41790  0.88740  0.72850  Biso   1.000  C
  H112     1.0000 0.40040  0.85900  0.73870  Biso   1.000  H
  O4       1.0000 0.86290  0.88770  0.72320  Biso   1.000  O
  Ag5      1.0000 0.46413  0.20647  0.01940  Biso   1.000  Ag
  P9       1.0000 0.41541  0.19770  0.08495  Biso   1.000  P
  P10      1.0000 0.14674  0.20972  0.09983  Biso   1.000  P
  C149     1.0000 0.33917  0.31333  0.07723  Biso   1.000  C
  C150     1.0000 0.36057  0.28743  0.08323  Biso   1.000  C
  C151     1.0000 0.37407  0.27673  0.04063  Biso   1.000  C
  H113     1.0000 0.37187  0.28813  0.01053  Biso   1.000  H
  C152     1.0000 0.39037  0.25003  0.04113  Biso   1.000  C
  H114     1.0000 0.39867  0.24283  0.01163  Biso   1.000  H
  C153     1.0000 0.39497  0.23363  0.08583  Biso   1.000  C
  C154     1.0000 0.38357  0.24563  0.12713  Biso   1.000  C
  H115     1.0000 0.38727  0.23613  0.15793  Biso   1.000  H
  C155     1.0000 0.36597  0.27253  0.12423  Biso   1.000  C
  H116     1.0000 0.35787  0.28023  0.15353  Biso   1.000  H
  C156     1.0000 0.29197  0.28733  0.08313  Biso   1.000  C
  C157     1.0000 0.26727  0.27433  0.04273  Biso   1.000  C
  H117     1.0000 0.27957  0.28193  0.01133  Biso   1.000  H
  C158     1.0000 0.22307  0.24943  0.04803  Biso   1.000  C
  H118     1.0000 0.20637  0.23953  0.01943  Biso   1.000  H
  C159     1.0000 0.20337  0.23903  0.09163  Biso   1.000  C
  C160     1.0000 0.22777  0.25063  0.13183  Biso   1.000  C
  H119     1.0000 0.21487  0.24203  0.16283  Biso   1.000  H
  C161     1.0000 0.27127  0.27463  0.12863  Biso   1.000  C
  H120     1.0000 0.28757  0.28293  0.15753  Biso   1.000  H
  C162     1.0000 0.36917  0.14633  0.08053  Biso   1.000  C
  C163     1.0000 0.37407  0.11083  0.08043  Biso   1.000  C
  H121     1.0000 0.40137  0.11403  0.08403  Biso   1.000  H
  C164     1.0000 0.33897  0.07073  0.07513  Biso   1.000  C
  H122     1.0000 0.34267  0.04683  0.07343  Biso   1.000  H
  C165     1.0000 0.29987  0.06523  0.07223  Biso   1.000  C
  H123     1.0000 0.27617  0.03763  0.06903  Biso   1.000  H
  C166     1.0000 0.29427  0.09963  0.07383  Biso   1.000  C
  H124     1.0000 0.26657  0.09563  0.07223  Biso   1.000  H
  C167     1.0000 0.32787  0.13913  0.07763  Biso   1.000  C
  H125     1.0000 0.32337  0.16253  0.07843  Biso   1.000  H
  C168     1.0000 0.43367  0.19933  0.14633  Biso   1.000  C
  C169     1.0000 0.47417  0.23333  0.15733  Biso   1.000  C
  H126     1.0000 0.49117  0.25323  0.13343  Biso   1.000  H
  C170     1.0000 0.48807  0.23593  0.20623  Biso   1.000  C
  H127     1.0000 0.51517  0.25833  0.21483  Biso   1.000  H
  C171     1.0000 0.46447  0.20783  0.24103  Biso   1.000  C
  H128     1.0000 0.47467  0.21143  0.27333  Biso   1.000  H
  C172     1.0000 0.42567  0.17423  0.22963  Biso   1.000  C
  H129     1.0000 0.40937  0.15373  0.25353  Biso   1.000  H
  C173     1.0000 0.41017  0.17043  0.18143  Biso   1.000  C
  H130     1.0000 0.38307  0.14753  0.17343  Biso   1.000  H
  C174     1.0000 0.12857  0.16443  0.05883  Biso   1.000  C
  C175     1.0000 0.13237  0.16873  0.00993  Biso   1.000  C
  H131     1.0000 0.14327  0.19553  0.99503  Biso   1.000  H
  C176     1.0000 0.11997  0.13273  0.98203  Biso   1.000  C
  H132     1.0000 0.12347  0.13563  0.94773  Biso   1.000  H
  C177     1.0000 0.10377  0.09533  0.00053  Biso   1.000  C
  H133     1.0000 0.09527  0.07163  0.97983  Biso   1.000  H
  C178     1.0000 0.09887  0.08973  0.04853  Biso   1.000  C
  H134     1.0000 0.08717  0.06223  0.06213  Biso   1.000  H
  C179     1.0000 0.11127  0.12543  0.07933  Biso   1.000  C
  H135     1.0000 0.10757  0.12213  0.11353  Biso   1.000  H
  C180     1.0000 0.12707  0.23983  0.06903  Biso   1.000  C
  C181     1.0000 0.15177  0.28003  0.05453  Biso   1.000  C
  H136     1.0000 0.18147  0.29333  0.05863  Biso   1.000  H
  C182     1.0000 0.13387  0.30293  0.03323  Biso   1.000  C
  H137     1.0000 0.15157  0.33083  0.02173  Biso   1.000  H
  C183     1.0000 0.09117  0.28443  0.02943  Biso   1.000  C
  H138     1.0000 0.07857  0.30053  0.01973  Biso   1.000  H
  C184     1.0000 0.06647  0.24223  0.03973  Biso   1.000  C
  H139     1.0000 0.03727  0.22773  0.03183  Biso   1.000  H
  C185     1.0000 0.08457  0.22073  0.06183  Biso   1.000  C
  H140     1.0000 0.06707  0.19233  0.07203  Biso   1.000  H
  O5       1.0000 0.52957  0.22103  0.05653  Biso   1.000  O
  Ag6      1.0000 0.13079  0.53981  0.35274  Biso   1.000  Ag
  P11      1.0000 0.08207  0.53104  0.41829  Biso   1.000  P
  P12      1.0000 0.81340  0.54306  0.43317  Biso   1.000  P
  C186     1.0000 0.00583  0.64667  0.41057  Biso   1.000  C
  C187     1.0000 0.02723  0.62077  0.41657  Biso   1.000  C
  C188     1.0000 0.04073  0.61007  0.37397  Biso   1.000  C
  H141     1.0000 0.03853  0.62147  0.34387  Biso   1.000  H
  C189     1.0000 0.05703  0.58337  0.37447  Biso   1.000  C
  H142     1.0000 0.06533  0.57617  0.34497  Biso   1.000  H
  C190     1.0000 0.06163  0.56697  0.41917  Biso   1.000  C
  C191     1.0000 0.05023  0.57897  0.46047  Biso   1.000  C
  H143     1.0000 0.05393  0.56947  0.49127  Biso   1.000  H
  C192     1.0000 0.03263  0.60587  0.45757  Biso   1.000  C
  H144     1.0000 0.02453  0.61357  0.48687  Biso   1.000  H
  C193     1.0000 0.95863  0.62067  0.41647  Biso   1.000  C
  C194     1.0000 0.93393  0.60767  0.37607  Biso   1.000  C
  H145     1.0000 0.94623  0.61527  0.34467  Biso   1.000  H
  C195     1.0000 0.88973  0.58277  0.38137  Biso   1.000  C
  H146     1.0000 0.87303  0.57287  0.35277  Biso   1.000  H
  C196     1.0000 0.87003  0.57237  0.42497  Biso   1.000  C
  C197     1.0000 0.89443  0.58397  0.46517  Biso   1.000  C
  H147     1.0000 0.88153  0.57537  0.49617  Biso   1.000  H
  C198     1.0000 0.93793  0.60797  0.46197  Biso   1.000  C
  H148     1.0000 0.95423  0.61627  0.49087  Biso   1.000  H
  C199     1.0000 0.03583  0.47967  0.41387  Biso   1.000  C
  C200     1.0000 0.04073  0.44417  0.41377  Biso   1.000  C
  H149     1.0000 0.06803  0.44737  0.41737  Biso   1.000  H
  C201     1.0000 0.00563  0.40407  0.40847  Biso   1.000  C
  H150     1.0000 0.00933  0.38017  0.40677  Biso   1.000  H
  C202     1.0000 0.96653  0.39857  0.40557  Biso   1.000  C
  H151     1.0000 0.94283  0.37097  0.40237  Biso   1.000  H
  C203     1.0000 0.96093  0.43297  0.40717  Biso   1.000  C
  H152     1.0000 0.93323  0.42897  0.40557  Biso   1.000  H
  C204     1.0000 0.99453  0.47247  0.41097  Biso   1.000  C
  H153     1.0000 0.99003  0.49587  0.41177  Biso   1.000  H
  C205     1.0000 0.10033  0.53267  0.47967  Biso   1.000  C
  C206     1.0000 0.14083  0.56667  0.49067  Biso   1.000  C
  H154     1.0000 0.15783  0.58657  0.46677  Biso   1.000  H
  C207     1.0000 0.15473  0.56927  0.53957  Biso   1.000  C
  H155     1.0000 0.18183  0.59167  0.54817  Biso   1.000  H
  C208     1.0000 0.13113  0.54117  0.57437  Biso   1.000  C
  H156     1.0000 0.14133  0.54477  0.60667  Biso   1.000  H
  C209     1.0000 0.09233  0.50757  0.56297  Biso   1.000  C
  H157     1.0000 0.07603  0.48707  0.58687  Biso   1.000  H
  C210     1.0000 0.07683  0.50377  0.51477  Biso   1.000  C
  H158     1.0000 0.04973  0.48087  0.50677  Biso   1.000  H
  C211     1.0000 0.79523  0.49777  0.39217  Biso   1.000  C
  C212     1.0000 0.79903  0.50207  0.34327  Biso   1.000  C
  H159     1.0000 0.80993  0.52887  0.32837  Biso   1.000  H
  C213     1.0000 0.78663  0.46607  0.31537  Biso   1.000  C
  H160     1.0000 0.79013  0.46897  0.28107  Biso   1.000  H
  C214     1.0000 0.77043  0.42867  0.33387  Biso   1.000  C
  H161     1.0000 0.76193  0.40497  0.31317  Biso   1.000  H
  C215     1.0000 0.76553  0.42307  0.38187  Biso   1.000  C
  H162     1.0000 0.75383  0.39557  0.39547  Biso   1.000  H
  C216     1.0000 0.77793  0.45877  0.41267  Biso   1.000  C
  H163     1.0000 0.77423  0.45547  0.44687  Biso   1.000  H
  C217     1.0000 0.79373  0.57317  0.40237  Biso   1.000  C
  C218     1.0000 0.81843  0.61337  0.38787  Biso   1.000  C
  H164     1.0000 0.84813  0.62667  0.39197  Biso   1.000  H
  C219     1.0000 0.80053  0.63627  0.36657  Biso   1.000  C
  H165     1.0000 0.81823  0.66417  0.35507  Biso   1.000  H
  C220     1.0000 0.75783  0.61777  0.36277  Biso   1.000  C
  H166     1.0000 0.74523  0.63387  0.35307  Biso   1.000  H
  C221     1.0000 0.73313  0.57557  0.37307  Biso   1.000  C
  H167     1.0000 0.70393  0.56107  0.36517  Biso   1.000  H
  C222     1.0000 0.75123  0.55407  0.39517  Biso   1.000  C
  H168     1.0000 0.73373  0.52567  0.40537  Biso   1.000  H
  O6       1.0000 0.19623  0.55437  0.38987  Biso   1.000  O
  Ag7      1.0000 0.12686  0.92432  0.68607  Biso   1.000  Ag
  P13      1.0000 0.13563  0.88437  0.75162  Biso   1.000  P
  P14      1.0000 0.12361  0.60368  0.76650  Biso   1.000  P
  C223     1.0000 0.02000  0.69250  0.74390  Biso   1.000  C
  C224     1.0000 0.04590  0.73980  0.74990  Biso   1.000  C
  C225     1.0000 0.05660  0.76400  0.70730  Biso   1.000  C
  H169     1.0000 0.04520  0.75040  0.67720  Biso   1.000  H
  C226     1.0000 0.08330  0.80700  0.70780  Biso   1.000  C
  H170     1.0000 0.09050  0.82250  0.67830  Biso   1.000  H
  C227     1.0000 0.09970  0.82800  0.75250  Biso   1.000  C
  C228     1.0000 0.08770  0.80460  0.79380  Biso   1.000  C
  H171     1.0000 0.09720  0.81780  0.82460  Biso   1.000  H
  C229     1.0000 0.06080  0.76010  0.79090  Biso   1.000  C
  H172     1.0000 0.05310  0.74430  0.82020  Biso   1.000  H
  C230     1.0000 0.04600  0.67130  0.74980  Biso   1.000  C
  C231     1.0000 0.05900  0.65960  0.70940  Biso   1.000  C
  H173     1.0000 0.05140  0.66430  0.67800  Biso   1.000  H
  C232     1.0000 0.08390  0.64030  0.71470  Biso   1.000  C
  H174     1.0000 0.09380  0.63350  0.68610  Biso   1.000  H
  C233     1.0000 0.09430  0.63100  0.75830  Biso   1.000  C
  C234     1.0000 0.08270  0.64380  0.79850  Biso   1.000  C
  H175     1.0000 0.09130  0.63950  0.82950  Biso   1.000  H
  C235     1.0000 0.05870  0.66330  0.79530  Biso   1.000  C
  H176     1.0000 0.05040  0.67130  0.82420  Biso   1.000  H
  C236     1.0000 0.18700  0.88950  0.74720  Biso   1.000  C
  C237     1.0000 0.22250  0.92990  0.74710  Biso   1.000  C
  H177     1.0000 0.21930  0.95400  0.75070  Biso   1.000  H
  C238     1.0000 0.26260  0.93490  0.74180  Biso   1.000  C
  H178     1.0000 0.28650  0.96250  0.74010  Biso   1.000  H
  C239     1.0000 0.26810  0.90130  0.73890  Biso   1.000  C
  H179     1.0000 0.29570  0.90520  0.73570  Biso   1.000  H
  C240     1.0000 0.23370  0.86130  0.74050  Biso   1.000  C
  H180     1.0000 0.23770  0.83760  0.73890  Biso   1.000  H
  C241     1.0000 0.19420  0.85540  0.74430  Biso   1.000  C
  H181     1.0000 0.17080  0.82750  0.74510  Biso   1.000  H
  C242     1.0000 0.13400  0.90100  0.81300  Biso   1.000  C
  C243     1.0000 0.10000  0.90750  0.82400  Biso   1.000  C
  H182     1.0000 0.08010  0.90460  0.80010  Biso   1.000  H
  C244     1.0000 0.09740  0.91880  0.87290  Biso   1.000  C
  H183     1.0000 0.07500  0.92350  0.88150  Biso   1.000  H
  C245     1.0000 0.12550  0.92330  0.90770  Biso   1.000  C
  H184     1.0000 0.12190  0.92990  0.94000  Biso   1.000  H
  C246     1.0000 0.15910  0.91810  0.89630  Biso   1.000  C
  H185     1.0000 0.17960  0.92230  0.92020  Biso   1.000  H
  C247     1.0000 0.16290  0.90640  0.84810  Biso   1.000  C
  H186     1.0000 0.18580  0.90220  0.84010  Biso   1.000  H
  C248     1.0000 0.16890  0.63080  0.72550  Biso   1.000  C
  C249     1.0000 0.16460  0.63030  0.67660  Biso   1.000  C
  H187     1.0000 0.13780  0.61440  0.66170  Biso   1.000  H
  C250     1.0000 0.20060  0.65390  0.64870  Biso   1.000  C
  H188     1.0000 0.19770  0.65450  0.61440  Biso   1.000  H
  C251     1.0000 0.23800  0.67510  0.66720  Biso   1.000  C
  H189     1.0000 0.26170  0.69030  0.64650  Biso   1.000  H
  C252     1.0000 0.24360  0.67580  0.71520  Biso   1.000  C
  H190     1.0000 0.27110  0.69160  0.72880  Biso   1.000  H
  C253     1.0000 0.20790  0.65250  0.74600  Biso   1.000  C
  H191     1.0000 0.21120  0.65210  0.78020  Biso   1.000  H
  C254     1.0000 0.09350  0.55390  0.73570  Biso   1.000  C
  C255     1.0000 0.05330  0.53840  0.72120  Biso   1.000  C
  H192     1.0000 0.04000  0.55480  0.72530  Biso   1.000  H
  C256     1.0000 0.03040  0.49760  0.69990  Biso   1.000  C
  H193     1.0000 0.00250  0.48740  0.68840  Biso   1.000  H
  C257     1.0000 0.04890  0.47340  0.69610  Biso   1.000  C
  H194     1.0000 0.03280  0.44470  0.68640  Biso   1.000  H
  C258     1.0000 0.09110  0.49090  0.70640  Biso   1.000  C
  H195     1.0000 0.10560  0.47620  0.69850  Biso   1.000  H
  C259     1.0000 0.11260  0.53050  0.72850  Biso   1.000  C
  H196     1.0000 0.14100  0.54140  0.73870  Biso   1.000  H
  O7       1.0000 0.11230  0.97520  0.72320  Biso   1.000  O
  Ag8      1.0000 0.79353  0.25765  0.01940  Biso   1.000  Ag
  P15      1.0000 0.80230  0.21770  0.08495  Biso   1.000  P
  P16      1.0000 0.79028  0.93701  0.09983  Biso   1.000  P
  C260     1.0000 0.68667  0.02583  0.07723  Biso   1.000  C
  C261     1.0000 0.71257  0.07313  0.08323  Biso   1.000  C
  C262     1.0000 0.72327  0.09733  0.04063  Biso   1.000  C
  H197     1.0000 0.71187  0.08373  0.01053  Biso   1.000  H
  C263     1.0000 0.74997  0.14033  0.04113  Biso   1.000  C
  H198     1.0000 0.75717  0.15583  0.01163  Biso   1.000  H
  C264     1.0000 0.76637  0.16133  0.08583  Biso   1.000  C
  C265     1.0000 0.75437  0.13793  0.12713  Biso   1.000  C
  H199     1.0000 0.76387  0.15113  0.15793  Biso   1.000  H
  C266     1.0000 0.72747  0.09343  0.12423  Biso   1.000  C
  H200     1.0000 0.71977  0.07763  0.15353  Biso   1.000  H
  C267     1.0000 0.71267  0.00463  0.08313  Biso   1.000  C
  C268     1.0000 0.72567  0.99293  0.04273  Biso   1.000  C
  H201     1.0000 0.71807  0.99763  0.01133  Biso   1.000  H
  C269     1.0000 0.75057  0.97363  0.04803  Biso   1.000  C
  H202     1.0000 0.76047  0.96683  0.01943  Biso   1.000  H
  C270     1.0000 0.76097  0.96433  0.09163  Biso   1.000  C
  C271     1.0000 0.74937  0.97713  0.13183  Biso   1.000  C
  H203     1.0000 0.75797  0.97283  0.16283  Biso   1.000  H
  C272     1.0000 0.72537  0.99663  0.12863  Biso   1.000  C
  H204     1.0000 0.71707  0.00463  0.15753  Biso   1.000  H
  C273     1.0000 0.85367  0.22283  0.08053  Biso   1.000  C
  C274     1.0000 0.88917  0.26323  0.08043  Biso   1.000  C
  H205     1.0000 0.88597  0.28733  0.08403  Biso   1.000  H
  C275     1.0000 0.92927  0.26823  0.07513  Biso   1.000  C
  H206     1.0000 0.95317  0.29583  0.07343  Biso   1.000  H
  C276     1.0000 0.93477  0.23463  0.07223  Biso   1.000  C
  H207     1.0000 0.96237  0.23853  0.06903  Biso   1.000  H
  C277     1.0000 0.90037  0.19463  0.07383  Biso   1.000  C
  H208     1.0000 0.90437  0.17093  0.07223  Biso   1.000  H
  C278     1.0000 0.86087  0.18873  0.07763  Biso   1.000  C
  H209     1.0000 0.83747  0.16083  0.07843  Biso   1.000  H
  C279     1.0000 0.80067  0.23433  0.14633  Biso   1.000  C
  C280     1.0000 0.76667  0.24083  0.15733  Biso   1.000  C
  H210     1.0000 0.74677  0.23793  0.13343  Biso   1.000  H
  C281     1.0000 0.76407  0.25213  0.20623  Biso   1.000  C
  H211     1.0000 0.74167  0.25683  0.21483  Biso   1.000  H
  C282     1.0000 0.79217  0.25663  0.24103  Biso   1.000  C
  H212     1.0000 0.78857  0.26323  0.27333  Biso   1.000  H
  C283     1.0000 0.82577  0.25143  0.22963  Biso   1.000  C
  H213     1.0000 0.84627  0.25563  0.25353  Biso   1.000  H
  C284     1.0000 0.82957  0.23973  0.18143  Biso   1.000  C
  H214     1.0000 0.85247  0.23553  0.17343  Biso   1.000  H
  C285     1.0000 0.83557  0.96413  0.05883  Biso   1.000  C
  C286     1.0000 0.83127  0.96363  0.00993  Biso   1.000  C
  H215     1.0000 0.80447  0.94773  0.99503  Biso   1.000  H
  C287     1.0000 0.86727  0.98723  0.98203  Biso   1.000  C
  H216     1.0000 0.86437  0.98783  0.94773  Biso   1.000  H
  C288     1.0000 0.90467  0.00843  0.00053  Biso   1.000  C
  H217     1.0000 0.92837  0.02363  0.97983  Biso   1.000  H
  C289     1.0000 0.91027  0.00913  0.04853  Biso   1.000  C
  H218     1.0000 0.93777  0.02493  0.06213  Biso   1.000  H
  C290     1.0000 0.87457  0.98583  0.07933  Biso   1.000  C
  H219     1.0000 0.87787  0.98543  0.11353  Biso   1.000  H
  C291     1.0000 0.76017  0.88723  0.06903  Biso   1.000  C
  C292     1.0000 0.71997  0.87173  0.05453  Biso   1.000  C
  H220     1.0000 0.70667  0.88813  0.05863  Biso   1.000  H
  C293     1.0000 0.69707  0.83093  0.03323  Biso   1.000  C
  H221     1.0000 0.66917  0.82073  0.02173  Biso   1.000  H
  C294     1.0000 0.71557  0.80673  0.02943  Biso   1.000  C
  H222     1.0000 0.69947  0.77803  0.01973  Biso   1.000  H
  C295     1.0000 0.75777  0.82423  0.03973  Biso   1.000  C
  H223     1.0000 0.77227  0.80953  0.03183  Biso   1.000  H
  C296     1.0000 0.77927  0.86383  0.06183  Biso   1.000  C
  H224     1.0000 0.80767  0.87473  0.07203  Biso   1.000  H
  O8       1.0000 0.77897  0.30853  0.05653  Biso   1.000  O
  Ag9      1.0000 0.46019  0.59099  0.35274  Biso   1.000  Ag
  P17      1.0000 0.46896  0.55104  0.41829  Biso   1.000  P
  P18      1.0000 0.45694  0.27035  0.43317  Biso   1.000  P
  C297     1.0000 0.35333  0.35917  0.41057  Biso   1.000  C
  C298     1.0000 0.37923  0.40647  0.41657  Biso   1.000  C
  C299     1.0000 0.38993  0.43067  0.37397  Biso   1.000  C
  H225     1.0000 0.37853  0.41707  0.34387  Biso   1.000  H
  C300     1.0000 0.41663  0.47367  0.37447  Biso   1.000  C
  H226     1.0000 0.42383  0.48917  0.34497  Biso   1.000  H
  C301     1.0000 0.43303  0.49467  0.41917  Biso   1.000  C
  C302     1.0000 0.42103  0.47127  0.46047  Biso   1.000  C
  H227     1.0000 0.43053  0.48447  0.49127  Biso   1.000  H
  C303     1.0000 0.39413  0.42677  0.45757  Biso   1.000  C
  H228     1.0000 0.38643  0.41097  0.48687  Biso   1.000  H
  C304     1.0000 0.37933  0.33797  0.41647  Biso   1.000  C
  C305     1.0000 0.39233  0.32627  0.37607  Biso   1.000  C
  H229     1.0000 0.38473  0.33097  0.34467  Biso   1.000  H
  C306     1.0000 0.41723  0.30697  0.38137  Biso   1.000  C
  H230     1.0000 0.42713  0.30017  0.35277  Biso   1.000  H
  C307     1.0000 0.42763  0.29767  0.42497  Biso   1.000  C
  C308     1.0000 0.41603  0.31047  0.46517  Biso   1.000  C
  H231     1.0000 0.42463  0.30617  0.49617  Biso   1.000  H
  C309     1.0000 0.39203  0.32997  0.46197  Biso   1.000  C
  H232     1.0000 0.38373  0.33797  0.49087  Biso   1.000  H
  C310     1.0000 0.52033  0.55617  0.41387  Biso   1.000  C
  C311     1.0000 0.55583  0.59657  0.41377  Biso   1.000  C
  H233     1.0000 0.55263  0.62067  0.41737  Biso   1.000  H
  C312     1.0000 0.59593  0.60157  0.40847  Biso   1.000  C
  H234     1.0000 0.61983  0.62917  0.40677  Biso   1.000  H
  C313     1.0000 0.60143  0.56797  0.40557  Biso   1.000  C
  H235     1.0000 0.62903  0.57187  0.40237  Biso   1.000  H
  C314     1.0000 0.56703  0.52797  0.40717  Biso   1.000  C
  H236     1.0000 0.57103  0.50427  0.40557  Biso   1.000  H
  C315     1.0000 0.52753  0.52207  0.41097  Biso   1.000  C
  H237     1.0000 0.50413  0.49417  0.41177  Biso   1.000  H
  C316     1.0000 0.46733  0.56767  0.47967  Biso   1.000  C
  C317     1.0000 0.43333  0.57417  0.49067  Biso   1.000  C
  H238     1.0000 0.41343  0.57127  0.46677  Biso   1.000  H
  C318     1.0000 0.43073  0.58547  0.53957  Biso   1.000  C
  H239     1.0000 0.40833  0.59017  0.54817  Biso   1.000  H
  C319     1.0000 0.45883  0.58997  0.57437  Biso   1.000  C
  H240     1.0000 0.45523  0.59657  0.60667  Biso   1.000  H
  C320     1.0000 0.49243  0.58477  0.56297  Biso   1.000  C
  H241     1.0000 0.51293  0.58897  0.58687  Biso   1.000  H
  C321     1.0000 0.49623  0.57307  0.51477  Biso   1.000  C
  H242     1.0000 0.51913  0.56887  0.50677  Biso   1.000  H
  C322     1.0000 0.50223  0.29747  0.39217  Biso   1.000  C
  C323     1.0000 0.49793  0.29697  0.34327  Biso   1.000  C
  H243     1.0000 0.47113  0.28107  0.32837  Biso   1.000  H
  C324     1.0000 0.53393  0.32057  0.31537  Biso   1.000  C
  H244     1.0000 0.53103  0.32117  0.28107  Biso   1.000  H
  C325     1.0000 0.57133  0.34177  0.33387  Biso   1.000  C
  H245     1.0000 0.59503  0.35697  0.31317  Biso   1.000  H
  C326     1.0000 0.57693  0.34247  0.38187  Biso   1.000  C
  H246     1.0000 0.60443  0.35827  0.39547  Biso   1.000  H
  C327     1.0000 0.54123  0.31917  0.41267  Biso   1.000  C
  H247     1.0000 0.54453  0.31877  0.44687  Biso   1.000  H
  C328     1.0000 0.42683  0.22057  0.40237  Biso   1.000  C
  C329     1.0000 0.38663  0.20507  0.38787  Biso   1.000  C
  H248     1.0000 0.37333  0.22147  0.39197  Biso   1.000  H
  C330     1.0000 0.36373  0.16427  0.36657  Biso   1.000  C
  H249     1.0000 0.33583  0.15407  0.35507  Biso   1.000  H
  C331     1.0000 0.38223  0.14007  0.36277  Biso   1.000  C
  H250     1.0000 0.36613  0.11137  0.35307  Biso   1.000  H
  C332     1.0000 0.42443  0.15757  0.37307  Biso   1.000  C
  H251     1.0000 0.43893  0.14287  0.36517  Biso   1.000  H
  C333     1.0000 0.44593  0.19717  0.39517  Biso   1.000  C
  H252     1.0000 0.47433  0.20807  0.40537  Biso   1.000  H
  O9       1.0000 0.44563  0.64187  0.38987  Biso   1.000  O
  Ag10     1.0000 0.20254  0.07568  0.81393  Biso   1.000  Ag
  P19      1.0000 0.25126  0.11563  0.74838  Biso   1.000  P
  P20      1.0000 0.51993  0.39632  0.73350  Biso   1.000  P
  C334     1.0000 0.32750  0.30750  0.75610  Biso   1.000  C
  C335     1.0000 0.30610  0.26020  0.75010  Biso   1.000  C
  C336     1.0000 0.29260  0.23600  0.79270  Biso   1.000  C
  H253     1.0000 0.29480  0.24960  0.82280  Biso   1.000  H
  C337     1.0000 0.27630  0.19300  0.79220  Biso   1.000  C
  H254     1.0000 0.26800  0.17750  0.82170  Biso   1.000  H
  C338     1.0000 0.27170  0.17200  0.74750  Biso   1.000  C
  C339     1.0000 0.28310  0.19540  0.70620  Biso   1.000  C
  H255     1.0000 0.27940  0.18220  0.67540  Biso   1.000  H
  C340     1.0000 0.30070  0.23990  0.70910  Biso   1.000  C
  H256     1.0000 0.30880  0.25570  0.67980  Biso   1.000  H
  C341     1.0000 0.37470  0.32870  0.75020  Biso   1.000  C
  C342     1.0000 0.39940  0.34040  0.79060  Biso   1.000  C
  H257     1.0000 0.38710  0.33570  0.82200  Biso   1.000  H
  C343     1.0000 0.44360  0.35970  0.78530  Biso   1.000  C
  H258     1.0000 0.46030  0.36650  0.81390  Biso   1.000  H
  C344     1.0000 0.46330  0.36900  0.74170  Biso   1.000  C
  C345     1.0000 0.43890  0.35620  0.70150  Biso   1.000  C
  H259     1.0000 0.45180  0.36050  0.67050  Biso   1.000  H
  C346     1.0000 0.39540  0.33670  0.70470  Biso   1.000  C
  H260     1.0000 0.37910  0.32870  0.67580  Biso   1.000  H
  C347     1.0000 0.29750  0.11050  0.75280  Biso   1.000  C
  C348     1.0000 0.29260  0.07010  0.75290  Biso   1.000  C
  H261     1.0000 0.26530  0.04600  0.74930  Biso   1.000  H
  C349     1.0000 0.32770  0.06510  0.75820  Biso   1.000  C
  H262     1.0000 0.32400  0.03750  0.75990  Biso   1.000  H
  C350     1.0000 0.36680  0.09870  0.76110  Biso   1.000  C
  H263     1.0000 0.39050  0.09480  0.76430  Biso   1.000  H
  C351     1.0000 0.37240  0.13870  0.75950  Biso   1.000  C
  H264     1.0000 0.40010  0.16240  0.76110  Biso   1.000  H
  C352     1.0000 0.33880  0.14460  0.75570  Biso   1.000  C
  H265     1.0000 0.34330  0.17250  0.75490  Biso   1.000  H
  C353     1.0000 0.23300  0.09900  0.68700  Biso   1.000  C
  C354     1.0000 0.19250  0.09250  0.67600  Biso   1.000  C
  H266     1.0000 0.17550  0.09540  0.69990  Biso   1.000  H
  C355     1.0000 0.17860  0.08120  0.62710  Biso   1.000  C
  H267     1.0000 0.15150  0.07650  0.61850  Biso   1.000  H
  C356     1.0000 0.20220  0.07670  0.59230  Biso   1.000  C
  H268     1.0000 0.19200  0.07010  0.56000  Biso   1.000  H
  C357     1.0000 0.24100  0.08190  0.60370  Biso   1.000  C
  H269     1.0000 0.25730  0.07770  0.57980  Biso   1.000  H
  C358     1.0000 0.25650  0.09360  0.65190  Biso   1.000  C
  H270     1.0000 0.28360  0.09780  0.65990  Biso   1.000  H
  C359     1.0000 0.53810  0.36920  0.77450  Biso   1.000  C
  C360     1.0000 0.53430  0.36970  0.82340  Biso   1.000  C
  H271     1.0000 0.52340  0.38560  0.83830  Biso   1.000  H
  C361     1.0000 0.54670  0.34610  0.85130  Biso   1.000  C
  H272     1.0000 0.54320  0.34550  0.88560  Biso   1.000  H
  C362     1.0000 0.56290  0.32490  0.83280  Biso   1.000  C
  H273     1.0000 0.57140  0.30970  0.85350  Biso   1.000  H
  C363     1.0000 0.56780  0.32420  0.78480  Biso   1.000  C
  H274     1.0000 0.57950  0.30840  0.77120  Biso   1.000  H
  C364     1.0000 0.55540  0.34750  0.75400  Biso   1.000  C
  H275     1.0000 0.55910  0.34790  0.71980  Biso   1.000  H
  C365     1.0000 0.53960  0.44610  0.76430  Biso   1.000  C
  C366     1.0000 0.51490  0.46160  0.77880  Biso   1.000  C
  H276     1.0000 0.48520  0.44520  0.77470  Biso   1.000  H
  C367     1.0000 0.53280  0.50240  0.80010  Biso   1.000  C
  H277     1.0000 0.51510  0.51260  0.81160  Biso   1.000  H
  C368     1.0000 0.57550  0.52660  0.80390  Biso   1.000  C
  H278     1.0000 0.58810  0.55530  0.81360  Biso   1.000  H
  C369     1.0000 0.60020  0.50910  0.79360  Biso   1.000  C
  H279     1.0000 0.62940  0.52380  0.80150  Biso   1.000  H
  C370     1.0000 0.58210  0.46950  0.77150  Biso   1.000  C
  H280     1.0000 0.59960  0.45860  0.76130  Biso   1.000  H
  O10      1.0000 0.13710  0.02480  0.77680  Biso   1.000  O
  Ag11     1.0000 0.86921  0.40901  0.14726  Biso   1.000  Ag
  P21      1.0000 0.91793  0.44896  0.08171  Biso   1.000  P
  P22      1.0000 0.18660  0.72965  0.06683  Biso   1.000  P
  C371     1.0000 0.99417  0.64083  0.08943  Biso   1.000  C
  C372     1.0000 0.97277  0.59353  0.08343  Biso   1.000  C
  C373     1.0000 0.95927  0.56933  0.12603  Biso   1.000  C
  H281     1.0000 0.96147  0.58293  0.15613  Biso   1.000  H
  C374     1.0000 0.94297  0.52633  0.12553  Biso   1.000  C
  H282     1.0000 0.93467  0.51083  0.15503  Biso   1.000  H
  C375     1.0000 0.93837  0.50533  0.08083  Biso   1.000  C
  C376     1.0000 0.94977  0.52873  0.03953  Biso   1.000  C
  H283     1.0000 0.94607  0.51553  0.00873  Biso   1.000  H
  C377     1.0000 0.96737  0.57323  0.04243  Biso   1.000  C
  H284     1.0000 0.97547  0.58903  0.01313  Biso   1.000  H
  C378     1.0000 0.04137  0.66203  0.08353  Biso   1.000  C
  C379     1.0000 0.06607  0.67373  0.12393  Biso   1.000  C
  H285     1.0000 0.05377  0.66903  0.15533  Biso   1.000  H
  C380     1.0000 0.11027  0.69303  0.11863  Biso   1.000  C
  H286     1.0000 0.12697  0.69983  0.14723  Biso   1.000  H
  C381     1.0000 0.12997  0.70233  0.07503  Biso   1.000  C
  C382     1.0000 0.10557  0.68953  0.03483  Biso   1.000  C
  H287     1.0000 0.11847  0.69383  0.00383  Biso   1.000  H
  C383     1.0000 0.06207  0.67003  0.03803  Biso   1.000  C
  H288     1.0000 0.04577  0.66203  0.00913  Biso   1.000  H
  C384     1.0000 0.96417  0.44383  0.08613  Biso   1.000  C
  C385     1.0000 0.95927  0.40343  0.08623  Biso   1.000  C
  H289     1.0000 0.93197  0.37933  0.08263  Biso   1.000  H
  C386     1.0000 0.99437  0.39843  0.09153  Biso   1.000  C
  H290     1.0000 0.99067  0.37083  0.09323  Biso   1.000  H
  C387     1.0000 0.03347  0.43203  0.09443  Biso   1.000  C
  H291     1.0000 0.05717  0.42813  0.09763  Biso   1.000  H
  C388     1.0000 0.03907  0.47203  0.09283  Biso   1.000  C
  H292     1.0000 0.06677  0.49573  0.09443  Biso   1.000  H
  C389     1.0000 0.00547  0.47793  0.08903  Biso   1.000  C
  H293     1.0000 0.00997  0.50583  0.08823  Biso   1.000  H
  C390     1.0000 0.89967  0.43233  0.02033  Biso   1.000  C
  C391     1.0000 0.85917  0.42583  0.00933  Biso   1.000  C
  H294     1.0000 0.84217  0.42873  0.03323  Biso   1.000  H
  C392     1.0000 0.84527  0.41453  0.96043  Biso   1.000  C
  H295     1.0000 0.81817  0.40983  0.95183  Biso   1.000  H
  C393     1.0000 0.86887  0.41003  0.92563  Biso   1.000  C
  H296     1.0000 0.85867  0.40343  0.89333  Biso   1.000  H
  C394     1.0000 0.90767  0.41523  0.93703  Biso   1.000  C
  H297     1.0000 0.92397  0.41103  0.91313  Biso   1.000  H
  C395     1.0000 0.92317  0.42693  0.98523  Biso   1.000  C
  H298     1.0000 0.95027  0.43113  0.99323  Biso   1.000  H
  C396     1.0000 0.20477  0.70253  0.10783  Biso   1.000  C
  C397     1.0000 0.20097  0.70303  0.15673  Biso   1.000  C
  H299     1.0000 0.19007  0.71893  0.17163  Biso   1.000  H
  C398     1.0000 0.21337  0.67943  0.18463  Biso   1.000  C
  H300     1.0000 0.20987  0.67883  0.21893  Biso   1.000  H
  C399     1.0000 0.22957  0.65823  0.16613  Biso   1.000  C
  H301     1.0000 0.23807  0.64303  0.18683  Biso   1.000  H
  C400     1.0000 0.23447  0.65753  0.11813  Biso   1.000  C
  H302     1.0000 0.24617  0.64173  0.10453  Biso   1.000  H
  C401     1.0000 0.22207  0.68083  0.08733  Biso   1.000  C
  H303     1.0000 0.22577  0.68123  0.05313  Biso   1.000  H
  C402     1.0000 0.20627  0.77943  0.09763  Biso   1.000  C
  C403     1.0000 0.18157  0.79493  0.11213  Biso   1.000  C
  H304     1.0000 0.15187  0.77853  0.10803  Biso   1.000  H
  C404     1.0000 0.19947  0.83573  0.13343  Biso   1.000  C
  H305     1.0000 0.18177  0.84593  0.14493  Biso   1.000  H
  C405     1.0000 0.24217  0.85993  0.13723  Biso   1.000  C
  H306     1.0000 0.25477  0.88863  0.14693  Biso   1.000  H
  C406     1.0000 0.26687  0.84243  0.12693  Biso   1.000  C
  H307     1.0000 0.29607  0.85713  0.13483  Biso   1.000  H
  C407     1.0000 0.24877  0.80283  0.10483  Biso   1.000  C
  H308     1.0000 0.26627  0.79193  0.09463  Biso   1.000  H
  O11      1.0000 0.80377  0.35813  0.11013  Biso   1.000  O
  Ag12     1.0000 0.53587  0.74235  0.48060  Biso   1.000  Ag
  P23      1.0000 0.58459  0.78230  0.41505  Biso   1.000  P
  P24      1.0000 0.85326  0.06299  0.40017  Biso   1.000  P
  C408     1.0000 0.66083  0.97417  0.42277  Biso   1.000  C
  C409     1.0000 0.63943  0.92687  0.41677  Biso   1.000  C
  C410     1.0000 0.62593  0.90267  0.45937  Biso   1.000  C
  H309     1.0000 0.62813  0.91627  0.48947  Biso   1.000  H
  C411     1.0000 0.60963  0.85967  0.45887  Biso   1.000  C
  H310     1.0000 0.60133  0.84417  0.48837  Biso   1.000  H
  C412     1.0000 0.60503  0.83867  0.41417  Biso   1.000  C
  C413     1.0000 0.61643  0.86207  0.37287  Biso   1.000  C
  H311     1.0000 0.61273  0.84887  0.34207  Biso   1.000  H
  C414     1.0000 0.63403  0.90657  0.37577  Biso   1.000  C
  H312     1.0000 0.64213  0.92237  0.34647  Biso   1.000  H
  C415     1.0000 0.70803  0.99537  0.41687  Biso   1.000  C
  C416     1.0000 0.73273  0.00707  0.45727  Biso   1.000  C
  H313     1.0000 0.72043  0.00237  0.48867  Biso   1.000  H
  C417     1.0000 0.77693  0.02637  0.45197  Biso   1.000  C
  H314     1.0000 0.79363  0.03317  0.48057  Biso   1.000  H
  C418     1.0000 0.79663  0.03567  0.40837  Biso   1.000  C
  C419     1.0000 0.77223  0.02287  0.36817  Biso   1.000  C
  H315     1.0000 0.78513  0.02717  0.33717  Biso   1.000  H
  C420     1.0000 0.72873  0.00337  0.37137  Biso   1.000  C
  H316     1.0000 0.71243  0.99537  0.34247  Biso   1.000  H
  C421     1.0000 0.63083  0.77717  0.41947  Biso   1.000  C
  C422     1.0000 0.62593  0.73677  0.41957  Biso   1.000  C
  H317     1.0000 0.59863  0.71267  0.41597  Biso   1.000  H
  C423     1.0000 0.66103  0.73177  0.42487  Biso   1.000  C
  H318     1.0000 0.65733  0.70417  0.42657  Biso   1.000  H
  C424     1.0000 0.70013  0.76537  0.42777  Biso   1.000  C
  H319     1.0000 0.72383  0.76147  0.43097  Biso   1.000  H
  C425     1.0000 0.70573  0.80537  0.42617  Biso   1.000  C
  H320     1.0000 0.73343  0.82907  0.42777  Biso   1.000  H
  C426     1.0000 0.67213  0.81127  0.42237  Biso   1.000  C
  H321     1.0000 0.67663  0.83917  0.42157  Biso   1.000  H
  C427     1.0000 0.56633  0.76567  0.35367  Biso   1.000  C
  C428     1.0000 0.52583  0.75917  0.34267  Biso   1.000  C
  H322     1.0000 0.50883  0.76207  0.36657  Biso   1.000  H
  C429     1.0000 0.51193  0.74787  0.29377  Biso   1.000  C
  H323     1.0000 0.48483  0.74317  0.28517  Biso   1.000  H
  C430     1.0000 0.53553  0.74337  0.25897  Biso   1.000  C
  H324     1.0000 0.52533  0.73677  0.22667  Biso   1.000  H
  C431     1.0000 0.57433  0.74857  0.27037  Biso   1.000  C
  H325     1.0000 0.59063  0.74437  0.24647  Biso   1.000  H
  C432     1.0000 0.58983  0.76027  0.31857  Biso   1.000  C
  H326     1.0000 0.61693  0.76447  0.32657  Biso   1.000  H
  C433     1.0000 0.87143  0.03587  0.44117  Biso   1.000  C
  C434     1.0000 0.86763  0.03637  0.49007  Biso   1.000  C
  H327     1.0000 0.85673  0.05227  0.50497  Biso   1.000  H
  C435     1.0000 0.88003  0.01277  0.51797  Biso   1.000  C
  H328     1.0000 0.87653  0.01217  0.55227  Biso   1.000  H
  C436     1.0000 0.89623  0.99157  0.49947  Biso   1.000  C
  H329     1.0000 0.90473  0.97637  0.52017  Biso   1.000  H
  C437     1.0000 0.90113  0.99087  0.45147  Biso   1.000  C
  H330     1.0000 0.91283  0.97507  0.43787  Biso   1.000  H
  C438     1.0000 0.88873  0.01417  0.42067  Biso   1.000  C
  H331     1.0000 0.89243  0.01457  0.38647  Biso   1.000  H
  C439     1.0000 0.87293  0.11277  0.43097  Biso   1.000  C
  C440     1.0000 0.84823  0.12827  0.44547  Biso   1.000  C
  H332     1.0000 0.81853  0.11187  0.44137  Biso   1.000  H
  C441     1.0000 0.86613  0.16907  0.46677  Biso   1.000  C
  H333     1.0000 0.84843  0.17927  0.47827  Biso   1.000  H
  C442     1.0000 0.90883  0.19327  0.47057  Biso   1.000  C
  H334     1.0000 0.92143  0.22197  0.48027  Biso   1.000  H
  C443     1.0000 0.93353  0.17577  0.46027  Biso   1.000  C
  H335     1.0000 0.96273  0.19047  0.46817  Biso   1.000  H
  C444     1.0000 0.91543  0.13617  0.43817  Biso   1.000  C
  H336     1.0000 0.93293  0.12527  0.42797  Biso   1.000  H
  O12      1.0000 0.47043  0.69147  0.44347  Biso   1.000  O
  Ag13     1.0000 0.87314  0.79746  0.81393  Biso   1.000  Ag
  P25      1.0000 0.86437  0.74874  0.74838  Biso   1.000  P
  P26      1.0000 0.87639  0.48007  0.73350  Biso   1.000  P
  C445     1.0000 0.98000  0.67250  0.75610  Biso   1.000  C
  C446     1.0000 0.95410  0.69390  0.75010  Biso   1.000  C
  C447     1.0000 0.94340  0.70740  0.79270  Biso   1.000  C
  H337     1.0000 0.95480  0.70520  0.82280  Biso   1.000  H
  C448     1.0000 0.91670  0.72370  0.79220  Biso   1.000  C
  H338     1.0000 0.90950  0.73200  0.82170  Biso   1.000  H
  C449     1.0000 0.90030  0.72830  0.74750  Biso   1.000  C
  C450     1.0000 0.91230  0.71690  0.70620  Biso   1.000  C
  H339     1.0000 0.90280  0.72060  0.67540  Biso   1.000  H
  C451     1.0000 0.93920  0.69930  0.70910  Biso   1.000  C
  H340     1.0000 0.94690  0.69120  0.67980  Biso   1.000  H
  C452     1.0000 0.95400  0.62530  0.75020  Biso   1.000  C
  C453     1.0000 0.94100  0.60060  0.79060  Biso   1.000  C
  H341     1.0000 0.94860  0.61290  0.82200  Biso   1.000  H
  C454     1.0000 0.91610  0.55640  0.78530  Biso   1.000  C
  H342     1.0000 0.90620  0.53970  0.81390  Biso   1.000  H
  C455     1.0000 0.90570  0.53670  0.74170  Biso   1.000  C
  C456     1.0000 0.91730  0.56110  0.70150  Biso   1.000  C
  H343     1.0000 0.90870  0.54820  0.67050  Biso   1.000  H
  C457     1.0000 0.94130  0.60460  0.70470  Biso   1.000  C
  H344     1.0000 0.94960  0.62090  0.67580  Biso   1.000  H
  C458     1.0000 0.81300  0.70250  0.75280  Biso   1.000  C
  C459     1.0000 0.77750  0.70740  0.75290  Biso   1.000  C
  H345     1.0000 0.78070  0.73470  0.74930  Biso   1.000  H
  C460     1.0000 0.73740  0.67230  0.75820  Biso   1.000  C
  H346     1.0000 0.71350  0.67600  0.75990  Biso   1.000  H
  C461     1.0000 0.73190  0.63320  0.76110  Biso   1.000  C
  H347     1.0000 0.70430  0.60950  0.76430  Biso   1.000  H
  C462     1.0000 0.76630  0.62760  0.75950  Biso   1.000  C
  H348     1.0000 0.76230  0.59990  0.76110  Biso   1.000  H
  C463     1.0000 0.80580  0.66120  0.75570  Biso   1.000  C
  H349     1.0000 0.82920  0.65670  0.75490  Biso   1.000  H
  C464     1.0000 0.86600  0.76700  0.68700  Biso   1.000  C
  C465     1.0000 0.90000  0.80750  0.67600  Biso   1.000  C
  H350     1.0000 0.91990  0.82450  0.69990  Biso   1.000  H
  C466     1.0000 0.90260  0.82140  0.62710  Biso   1.000  C
  H351     1.0000 0.92500  0.84850  0.61850  Biso   1.000  H
  C467     1.0000 0.87450  0.79780  0.59230  Biso   1.000  C
  H352     1.0000 0.87810  0.80800  0.56000  Biso   1.000  H
  C468     1.0000 0.84090  0.75900  0.60370  Biso   1.000  C
  H353     1.0000 0.82040  0.74270  0.57980  Biso   1.000  H
  C469     1.0000 0.83710  0.74350  0.65190  Biso   1.000  C
  H354     1.0000 0.81420  0.71640  0.65990  Biso   1.000  H
  C470     1.0000 0.83110  0.46190  0.77450  Biso   1.000  C
  C471     1.0000 0.83540  0.46570  0.82340  Biso   1.000  C
  H355     1.0000 0.86220  0.47660  0.83830  Biso   1.000  H
  C472     1.0000 0.79940  0.45330  0.85130  Biso   1.000  C
  H356     1.0000 0.80230  0.45680  0.88560  Biso   1.000  H
  C473     1.0000 0.76200  0.43710  0.83280  Biso   1.000  C
  H357     1.0000 0.73830  0.42860  0.85350  Biso   1.000  H
  C474     1.0000 0.75640  0.43220  0.78480  Biso   1.000  C
  H358     1.0000 0.72890  0.42050  0.77120  Biso   1.000  H
  C475     1.0000 0.79210  0.44460  0.75400  Biso   1.000  C
  H359     1.0000 0.78880  0.44090  0.71980  Biso   1.000  H
  C476     1.0000 0.90650  0.46040  0.76430  Biso   1.000  C
  C477     1.0000 0.94670  0.48510  0.77880  Biso   1.000  C
  H360     1.0000 0.96000  0.51480  0.77470  Biso   1.000  H
  C478     1.0000 0.96960  0.46720  0.80010  Biso   1.000  C
  H361     1.0000 0.99750  0.48490  0.81160  Biso   1.000  H
  C479     1.0000 0.95110  0.42450  0.80390  Biso   1.000  C
  H362     1.0000 0.96720  0.41190  0.81360  Biso   1.000  H
  C480     1.0000 0.90890  0.39980  0.79360  Biso   1.000  C
  H363     1.0000 0.89440  0.37060  0.80150  Biso   1.000  H
  C481     1.0000 0.88740  0.41790  0.77150  Biso   1.000  C
  H364     1.0000 0.85900  0.40040  0.76130  Biso   1.000  H
  O13      1.0000 0.88770  0.86290  0.77680  Biso   1.000  O
  Ag14     1.0000 0.53981  0.13079  0.14726  Biso   1.000  Ag
  P27      1.0000 0.53104  0.08207  0.08171  Biso   1.000  P
  P28      1.0000 0.54306  0.81340  0.06683  Biso   1.000  P
  C482     1.0000 0.64667  0.00583  0.08943  Biso   1.000  C
  C483     1.0000 0.62077  0.02723  0.08343  Biso   1.000  C
  C484     1.0000 0.61007  0.04073  0.12603  Biso   1.000  C
  H365     1.0000 0.62147  0.03853  0.15613  Biso   1.000  H
  C485     1.0000 0.58337  0.05703  0.12553  Biso   1.000  C
  H366     1.0000 0.57617  0.06533  0.15503  Biso   1.000  H
  C486     1.0000 0.56697  0.06163  0.08083  Biso   1.000  C
  C487     1.0000 0.57897  0.05023  0.03953  Biso   1.000  C
  H367     1.0000 0.56947  0.05393  0.00873  Biso   1.000  H
  C488     1.0000 0.60587  0.03263  0.04243  Biso   1.000  C
  H368     1.0000 0.61357  0.02453  0.01313  Biso   1.000  H
  C489     1.0000 0.62067  0.95863  0.08353  Biso   1.000  C
  C490     1.0000 0.60767  0.93393  0.12393  Biso   1.000  C
  H369     1.0000 0.61527  0.94623  0.15533  Biso   1.000  H
  C491     1.0000 0.58277  0.88973  0.11863  Biso   1.000  C
  H370     1.0000 0.57287  0.87303  0.14723  Biso   1.000  H
  C492     1.0000 0.57237  0.87003  0.07503  Biso   1.000  C
  C493     1.0000 0.58397  0.89443  0.03483  Biso   1.000  C
  H371     1.0000 0.57537  0.88153  0.00383  Biso   1.000  H
  C494     1.0000 0.60797  0.93793  0.03803  Biso   1.000  C
  H372     1.0000 0.61627  0.95423  0.00913  Biso   1.000  H
  C495     1.0000 0.47967  0.03583  0.08613  Biso   1.000  C
  C496     1.0000 0.44417  0.04073  0.08623  Biso   1.000  C
  H373     1.0000 0.44737  0.06803  0.08263  Biso   1.000  H
  C497     1.0000 0.40407  0.00563  0.09153  Biso   1.000  C
  H374     1.0000 0.38017  0.00933  0.09323  Biso   1.000  H
  C498     1.0000 0.39857  0.96653  0.09443  Biso   1.000  C
  H375     1.0000 0.37097  0.94283  0.09763  Biso   1.000  H
  C499     1.0000 0.43297  0.96093  0.09283  Biso   1.000  C
  H376     1.0000 0.42897  0.93323  0.09443  Biso   1.000  H
  C500     1.0000 0.47247  0.99453  0.08903  Biso   1.000  C
  H377     1.0000 0.49587  0.99003  0.08823  Biso   1.000  H
  C501     1.0000 0.53267  0.10033  0.02033  Biso   1.000  C
  C502     1.0000 0.56667  0.14083  0.00933  Biso   1.000  C
  H378     1.0000 0.58657  0.15783  0.03323  Biso   1.000  H
  C503     1.0000 0.56927  0.15473  0.96043  Biso   1.000  C
  H379     1.0000 0.59167  0.18183  0.95183  Biso   1.000  H
  C504     1.0000 0.54117  0.13113  0.92563  Biso   1.000  C
  H380     1.0000 0.54477  0.14133  0.89333  Biso   1.000  H
  C505     1.0000 0.50757  0.09233  0.93703  Biso   1.000  C
  H381     1.0000 0.48707  0.07603  0.91313  Biso   1.000  H
  C506     1.0000 0.50377  0.07683  0.98523  Biso   1.000  C
  H382     1.0000 0.48087  0.04973  0.99323  Biso   1.000  H
  C507     1.0000 0.49777  0.79523  0.10783  Biso   1.000  C
  C508     1.0000 0.50207  0.79903  0.15673  Biso   1.000  C
  H383     1.0000 0.52887  0.80993  0.17163  Biso   1.000  H
  C509     1.0000 0.46607  0.78663  0.18463  Biso   1.000  C
  H384     1.0000 0.46897  0.79013  0.21893  Biso   1.000  H
  C510     1.0000 0.42867  0.77043  0.16613  Biso   1.000  C
  H385     1.0000 0.40497  0.76193  0.18683  Biso   1.000  H
  C511     1.0000 0.42307  0.76553  0.11813  Biso   1.000  C
  H386     1.0000 0.39557  0.75383  0.10453  Biso   1.000  H
  C512     1.0000 0.45877  0.77793  0.08733  Biso   1.000  C
  H387     1.0000 0.45547  0.77423  0.05313  Biso   1.000  H
  C513     1.0000 0.57317  0.79373  0.09763  Biso   1.000  C
  C514     1.0000 0.61337  0.81843  0.11213  Biso   1.000  C
  H388     1.0000 0.62667  0.84813  0.10803  Biso   1.000  H
  C515     1.0000 0.63627  0.80053  0.13343  Biso   1.000  C
  H389     1.0000 0.66417  0.81823  0.14493  Biso   1.000  H
  C516     1.0000 0.61777  0.75783  0.13723  Biso   1.000  C
  H390     1.0000 0.63387  0.74523  0.14693  Biso   1.000  H
  C517     1.0000 0.57557  0.73313  0.12693  Biso   1.000  C
  H391     1.0000 0.56107  0.70393  0.13483  Biso   1.000  H
  C518     1.0000 0.55407  0.75123  0.10483  Biso   1.000  C
  H392     1.0000 0.52567  0.73373  0.09463  Biso   1.000  H
  O14      1.0000 0.55437  0.19623  0.11013  Biso   1.000  O
  Ag15     1.0000 0.20647  0.46413  0.48060  Biso   1.000  Ag
  P29      1.0000 0.19770  0.41541  0.41505  Biso   1.000  P
  P30      1.0000 0.20972  0.14674  0.40017  Biso   1.000  P
  C519     1.0000 0.31333  0.33917  0.42277  Biso   1.000  C
  C520     1.0000 0.28743  0.36057  0.41677  Biso   1.000  C
  C521     1.0000 0.27673  0.37407  0.45937  Biso   1.000  C
  H393     1.0000 0.28813  0.37187  0.48947  Biso   1.000  H
  C522     1.0000 0.25003  0.39037  0.45887  Biso   1.000  C
  H394     1.0000 0.24283  0.39867  0.48837  Biso   1.000  H
  C523     1.0000 0.23363  0.39497  0.41417  Biso   1.000  C
  C524     1.0000 0.24563  0.38357  0.37287  Biso   1.000  C
  H395     1.0000 0.23613  0.38727  0.34207  Biso   1.000  H
  C525     1.0000 0.27253  0.36597  0.37577  Biso   1.000  C
  H396     1.0000 0.28023  0.35787  0.34647  Biso   1.000  H
  C526     1.0000 0.28733  0.29197  0.41687  Biso   1.000  C
  C527     1.0000 0.27433  0.26727  0.45727  Biso   1.000  C
  H397     1.0000 0.28193  0.27957  0.48867  Biso   1.000  H
  C528     1.0000 0.24943  0.22307  0.45197  Biso   1.000  C
  H398     1.0000 0.23953  0.20637  0.48057  Biso   1.000  H
  C529     1.0000 0.23903  0.20337  0.40837  Biso   1.000  C
  C530     1.0000 0.25063  0.22777  0.36817  Biso   1.000  C
  H399     1.0000 0.24203  0.21487  0.33717  Biso   1.000  H
  C531     1.0000 0.27463  0.27127  0.37137  Biso   1.000  C
  H400     1.0000 0.28293  0.28757  0.34247  Biso   1.000  H
  C532     1.0000 0.14633  0.36917  0.41947  Biso   1.000  C
  C533     1.0000 0.11083  0.37407  0.41957  Biso   1.000  C
  H401     1.0000 0.11403  0.40137  0.41597  Biso   1.000  H
  C534     1.0000 0.07073  0.33897  0.42487  Biso   1.000  C
  H402     1.0000 0.04683  0.34267  0.42657  Biso   1.000  H
  C535     1.0000 0.06523  0.29987  0.42777  Biso   1.000  C
  H403     1.0000 0.03763  0.27617  0.43097  Biso   1.000  H
  C536     1.0000 0.09963  0.29427  0.42617  Biso   1.000  C
  H404     1.0000 0.09563  0.26657  0.42777  Biso   1.000  H
  C537     1.0000 0.13913  0.32787  0.42237  Biso   1.000  C
  H405     1.0000 0.16253  0.32337  0.42157  Biso   1.000  H
  C538     1.0000 0.19933  0.43367  0.35367  Biso   1.000  C
  C539     1.0000 0.23333  0.47417  0.34267  Biso   1.000  C
  H406     1.0000 0.25323  0.49117  0.36657  Biso   1.000  H
  C540     1.0000 0.23593  0.48807  0.29377  Biso   1.000  C
  H407     1.0000 0.25833  0.51517  0.28517  Biso   1.000  H
  C541     1.0000 0.20783  0.46447  0.25897  Biso   1.000  C
  H408     1.0000 0.21143  0.47467  0.22667  Biso   1.000  H
  C542     1.0000 0.17423  0.42567  0.27037  Biso   1.000  C
  H409     1.0000 0.15373  0.40937  0.24647  Biso   1.000  H
  C543     1.0000 0.17043  0.41017  0.31857  Biso   1.000  C
  H410     1.0000 0.14753  0.38307  0.32657  Biso   1.000  H
  C544     1.0000 0.16443  0.12857  0.44117  Biso   1.000  C
  C545     1.0000 0.16873  0.13237  0.49007  Biso   1.000  C
  H411     1.0000 0.19553  0.14327  0.50497  Biso   1.000  H
  C546     1.0000 0.13273  0.11997  0.51797  Biso   1.000  C
  H412     1.0000 0.13563  0.12347  0.55227  Biso   1.000  H
  C547     1.0000 0.09533  0.10377  0.49947  Biso   1.000  C
  H413     1.0000 0.07163  0.09527  0.52017  Biso   1.000  H
  C548     1.0000 0.08973  0.09887  0.45147  Biso   1.000  C
  H414     1.0000 0.06223  0.08717  0.43787  Biso   1.000  H
  C549     1.0000 0.12543  0.11127  0.42067  Biso   1.000  C
  H415     1.0000 0.12213  0.10757  0.38647  Biso   1.000  H
  C550     1.0000 0.23983  0.12707  0.43097  Biso   1.000  C
  C551     1.0000 0.28003  0.15177  0.44547  Biso   1.000  C
  H416     1.0000 0.29333  0.18147  0.44137  Biso   1.000  H
  C552     1.0000 0.30293  0.13387  0.46677  Biso   1.000  C
  H417     1.0000 0.33083  0.15157  0.47827  Biso   1.000  H
  C553     1.0000 0.28443  0.09117  0.47057  Biso   1.000  C
  H418     1.0000 0.30053  0.07857  0.48027  Biso   1.000  H
  C554     1.0000 0.24223  0.06647  0.46027  Biso   1.000  C
  H419     1.0000 0.22773  0.03727  0.46817  Biso   1.000  H
  C555     1.0000 0.22073  0.08457  0.43817  Biso   1.000  C
  H420     1.0000 0.19233  0.06707  0.42797  Biso   1.000  H
  O15      1.0000 0.22103  0.52957  0.44347  Biso   1.000  O
  Ag16     1.0000 0.92432  0.12686  0.81393  Biso   1.000  Ag
  P31      1.0000 0.88437  0.13563  0.74838  Biso   1.000  P
  P32      1.0000 0.60368  0.12361  0.73350  Biso   1.000  P
  C556     1.0000 0.69250  0.02000  0.75610  Biso   1.000  C
  C557     1.0000 0.73980  0.04590  0.75010  Biso   1.000  C
  C558     1.0000 0.76400  0.05660  0.79270  Biso   1.000  C
  H421     1.0000 0.75040  0.04520  0.82280  Biso   1.000  H
  C559     1.0000 0.80700  0.08330  0.79220  Biso   1.000  C
  H422     1.0000 0.82250  0.09050  0.82170  Biso   1.000  H
  C560     1.0000 0.82800  0.09970  0.74750  Biso   1.000  C
  C561     1.0000 0.80460  0.08770  0.70620  Biso   1.000  C
  H423     1.0000 0.81780  0.09720  0.67540  Biso   1.000  H
  C562     1.0000 0.76010  0.06080  0.70910  Biso   1.000  C
  H424     1.0000 0.74430  0.05310  0.67980  Biso   1.000  H
  C563     1.0000 0.67130  0.04600  0.75020  Biso   1.000  C
  C564     1.0000 0.65960  0.05900  0.79060  Biso   1.000  C
  H425     1.0000 0.66430  0.05140  0.82200  Biso   1.000  H
  C565     1.0000 0.64030  0.08390  0.78530  Biso   1.000  C
  H426     1.0000 0.63350  0.09380  0.81390  Biso   1.000  H
  C566     1.0000 0.63100  0.09430  0.74170  Biso   1.000  C
  C567     1.0000 0.64380  0.08270  0.70150  Biso   1.000  C
  H427     1.0000 0.63950  0.09130  0.67050  Biso   1.000  H
  C568     1.0000 0.66330  0.05870  0.70470  Biso   1.000  C
  H428     1.0000 0.67130  0.05040  0.67580  Biso   1.000  H
  C569     1.0000 0.88950  0.18700  0.75280  Biso   1.000  C
  C570     1.0000 0.92990  0.22250  0.75290  Biso   1.000  C
  H429     1.0000 0.95400  0.21930  0.74930  Biso   1.000  H
  C571     1.0000 0.93490  0.26260  0.75820  Biso   1.000  C
  H430     1.0000 0.96250  0.28650  0.75990  Biso   1.000  H
  C572     1.0000 0.90130  0.26810  0.76110  Biso   1.000  C
  H431     1.0000 0.90520  0.29570  0.76430  Biso   1.000  H
  C573     1.0000 0.86130  0.23370  0.75950  Biso   1.000  C
  H432     1.0000 0.83760  0.23770  0.76110  Biso   1.000  H
  C574     1.0000 0.85540  0.19420  0.75570  Biso   1.000  C
  H433     1.0000 0.82750  0.17080  0.75490  Biso   1.000  H
  C575     1.0000 0.90100  0.13400  0.68700  Biso   1.000  C
  C576     1.0000 0.90750  0.10000  0.67600  Biso   1.000  C
  H434     1.0000 0.90460  0.08010  0.69990  Biso   1.000  H
  C577     1.0000 0.91880  0.09740  0.62710  Biso   1.000  C
  H435     1.0000 0.92350  0.07500  0.61850  Biso   1.000  H
  C578     1.0000 0.92330  0.12550  0.59230  Biso   1.000  C
  H436     1.0000 0.92990  0.12190  0.56000  Biso   1.000  H
  C579     1.0000 0.91810  0.15910  0.60370  Biso   1.000  C
  H437     1.0000 0.92230  0.17960  0.57980  Biso   1.000  H
  C580     1.0000 0.90640  0.16290  0.65190  Biso   1.000  C
  H438     1.0000 0.90220  0.18580  0.65990  Biso   1.000  H
  C581     1.0000 0.63080  0.16890  0.77450  Biso   1.000  C
  C582     1.0000 0.63030  0.16460  0.82340  Biso   1.000  C
  H439     1.0000 0.61440  0.13780  0.83830  Biso   1.000  H
  C583     1.0000 0.65390  0.20060  0.85130  Biso   1.000  C
  H440     1.0000 0.65450  0.19770  0.88560  Biso   1.000  H
  C584     1.0000 0.67510  0.23800  0.83280  Biso   1.000  C
  H441     1.0000 0.69030  0.26170  0.85350  Biso   1.000  H
  C585     1.0000 0.67580  0.24360  0.78480  Biso   1.000  C
  H442     1.0000 0.69160  0.27110  0.77120  Biso   1.000  H
  C586     1.0000 0.65250  0.20790  0.75400  Biso   1.000  C
  H443     1.0000 0.65210  0.21120  0.71980  Biso   1.000  H
  C587     1.0000 0.55390  0.09350  0.76430  Biso   1.000  C
  C588     1.0000 0.53840  0.05330  0.77880  Biso   1.000  C
  H444     1.0000 0.55480  0.04000  0.77470  Biso   1.000  H
  C589     1.0000 0.49760  0.03040  0.80010  Biso   1.000  C
  H445     1.0000 0.48740  0.00250  0.81160  Biso   1.000  H
  C590     1.0000 0.47340  0.04890  0.80390  Biso   1.000  C
  H446     1.0000 0.44470  0.03280  0.81360  Biso   1.000  H
  C591     1.0000 0.49090  0.09110  0.79360  Biso   1.000  C
  H447     1.0000 0.47620  0.10560  0.80150  Biso   1.000  H
  C592     1.0000 0.53050  0.11260  0.77150  Biso   1.000  C
  H448     1.0000 0.54140  0.14100  0.76130  Biso   1.000  H
  O16      1.0000 0.97520  0.11230  0.77680  Biso   1.000  O
  Ag17     1.0000 0.59099  0.46019  0.14726  Biso   1.000  Ag
  P33      1.0000 0.55104  0.46896  0.08171  Biso   1.000  P
  P34      1.0000 0.27035  0.45694  0.06683  Biso   1.000  P
  C593     1.0000 0.35917  0.35333  0.08943  Biso   1.000  C
  C594     1.0000 0.40647  0.37923  0.08343  Biso   1.000  C
  C595     1.0000 0.43067  0.38993  0.12603  Biso   1.000  C
  H449     1.0000 0.41707  0.37853  0.15613  Biso   1.000  H
  C596     1.0000 0.47367  0.41663  0.12553  Biso   1.000  C
  H450     1.0000 0.48917  0.42383  0.15503  Biso   1.000  H
  C597     1.0000 0.49467  0.43303  0.08083  Biso   1.000  C
  C598     1.0000 0.47127  0.42103  0.03953  Biso   1.000  C
  H451     1.0000 0.48447  0.43053  0.00873  Biso   1.000  H
  C599     1.0000 0.42677  0.39413  0.04243  Biso   1.000  C
  H452     1.0000 0.41097  0.38643  0.01313  Biso   1.000  H
  C600     1.0000 0.33797  0.37933  0.08353  Biso   1.000  C
  C601     1.0000 0.32627  0.39233  0.12393  Biso   1.000  C
  H453     1.0000 0.33097  0.38473  0.15533  Biso   1.000  H
  C602     1.0000 0.30697  0.41723  0.11863  Biso   1.000  C
  H454     1.0000 0.30017  0.42713  0.14723  Biso   1.000  H
  C603     1.0000 0.29767  0.42763  0.07503  Biso   1.000  C
  C604     1.0000 0.31047  0.41603  0.03483  Biso   1.000  C
  H455     1.0000 0.30617  0.42463  0.00383  Biso   1.000  H
  C605     1.0000 0.32997  0.39203  0.03803  Biso   1.000  C
  H456     1.0000 0.33797  0.38373  0.00913  Biso   1.000  H
  C606     1.0000 0.55617  0.52033  0.08613  Biso   1.000  C
  C607     1.0000 0.59657  0.55583  0.08623  Biso   1.000  C
  H457     1.0000 0.62067  0.55263  0.08263  Biso   1.000  H
  C608     1.0000 0.60157  0.59593  0.09153  Biso   1.000  C
  H458     1.0000 0.62917  0.61983  0.09323  Biso   1.000  H
  C609     1.0000 0.56797  0.60143  0.09443  Biso   1.000  C
  H459     1.0000 0.57187  0.62903  0.09763  Biso   1.000  H
  C610     1.0000 0.52797  0.56703  0.09283  Biso   1.000  C
  H460     1.0000 0.50427  0.57103  0.09443  Biso   1.000  H
  C611     1.0000 0.52207  0.52753  0.08903  Biso   1.000  C
  H461     1.0000 0.49417  0.50413  0.08823  Biso   1.000  H
  C612     1.0000 0.56767  0.46733  0.02033  Biso   1.000  C
  C613     1.0000 0.57417  0.43333  0.00933  Biso   1.000  C
  H462     1.0000 0.57127  0.41343  0.03323  Biso   1.000  H
  C614     1.0000 0.58547  0.43073  0.96043  Biso   1.000  C
  H463     1.0000 0.59017  0.40833  0.95183  Biso   1.000  H
  C615     1.0000 0.58997  0.45883  0.92563  Biso   1.000  C
  H464     1.0000 0.59657  0.45523  0.89333  Biso   1.000  H
  C616     1.0000 0.58477  0.49243  0.93703  Biso   1.000  C
  H465     1.0000 0.58897  0.51293  0.91313  Biso   1.000  H
  C617     1.0000 0.57307  0.49623  0.98523  Biso   1.000  C
  H466     1.0000 0.56887  0.51913  0.99323  Biso   1.000  H
  C618     1.0000 0.29747  0.50223  0.10783  Biso   1.000  C
  C619     1.0000 0.29697  0.49793  0.15673  Biso   1.000  C
  H467     1.0000 0.28107  0.47113  0.17163  Biso   1.000  H
  C620     1.0000 0.32057  0.53393  0.18463  Biso   1.000  C
  H468     1.0000 0.32117  0.53103  0.21893  Biso   1.000  H
  C621     1.0000 0.34177  0.57133  0.16613  Biso   1.000  C
  H469     1.0000 0.35697  0.59503  0.18683  Biso   1.000  H
  C622     1.0000 0.34247  0.57693  0.11813  Biso   1.000  C
  H470     1.0000 0.35827  0.60443  0.10453  Biso   1.000  H
  C623     1.0000 0.31917  0.54123  0.08733  Biso   1.000  C
  H471     1.0000 0.31877  0.54453  0.05313  Biso   1.000  H
  C624     1.0000 0.22057  0.42683  0.09763  Biso   1.000  C
  C625     1.0000 0.20507  0.38663  0.11213  Biso   1.000  C
  H472     1.0000 0.22147  0.37333  0.10803  Biso   1.000  H
  C626     1.0000 0.16427  0.36373  0.13343  Biso   1.000  C
  H473     1.0000 0.15407  0.33583  0.14493  Biso   1.000  H
  C627     1.0000 0.14007  0.38223  0.13723  Biso   1.000  C
  H474     1.0000 0.11137  0.36613  0.14693  Biso   1.000  H
  C628     1.0000 0.15757  0.42443  0.12693  Biso   1.000  C
  H475     1.0000 0.14287  0.43893  0.13483  Biso   1.000  H
  C629     1.0000 0.19717  0.44593  0.10483  Biso   1.000  C
  H476     1.0000 0.20807  0.47433  0.09463  Biso   1.000  H
  O17      1.0000 0.64187  0.44563  0.11013  Biso   1.000  O
  Ag18     1.0000 0.25765  0.79353  0.48060  Biso   1.000  Ag
  P35      1.0000 0.21770  0.80230  0.41505  Biso   1.000  P
  P36      1.0000 0.93701  0.79028  0.40017  Biso   1.000  P
  C630     1.0000 0.02583  0.68667  0.42277  Biso   1.000  C
  C631     1.0000 0.07313  0.71257  0.41677  Biso   1.000  C
  C632     1.0000 0.09733  0.72327  0.45937  Biso   1.000  C
  H477     1.0000 0.08373  0.71187  0.48947  Biso   1.000  H
  C633     1.0000 0.14033  0.74997  0.45887  Biso   1.000  C
  H478     1.0000 0.15583  0.75717  0.48837  Biso   1.000  H
  C634     1.0000 0.16133  0.76637  0.41417  Biso   1.000  C
  C635     1.0000 0.13793  0.75437  0.37287  Biso   1.000  C
  H479     1.0000 0.15113  0.76387  0.34207  Biso   1.000  H
  C636     1.0000 0.09343  0.72747  0.37577  Biso   1.000  C
  H480     1.0000 0.07763  0.71977  0.34647  Biso   1.000  H
  C637     1.0000 0.00463  0.71267  0.41687  Biso   1.000  C
  C638     1.0000 0.99293  0.72567  0.45727  Biso   1.000  C
  H481     1.0000 0.99763  0.71807  0.48867  Biso   1.000  H
  C639     1.0000 0.97363  0.75057  0.45197  Biso   1.000  C
  H482     1.0000 0.96683  0.76047  0.48057  Biso   1.000  H
  C640     1.0000 0.96433  0.76097  0.40837  Biso   1.000  C
  C641     1.0000 0.97713  0.74937  0.36817  Biso   1.000  C
  H483     1.0000 0.97283  0.75797  0.33717  Biso   1.000  H
  C642     1.0000 0.99663  0.72537  0.37137  Biso   1.000  C
  H484     1.0000 0.00463  0.71707  0.34247  Biso   1.000  H
  C643     1.0000 0.22283  0.85367  0.41947  Biso   1.000  C
  C644     1.0000 0.26323  0.88917  0.41957  Biso   1.000  C
  H485     1.0000 0.28733  0.88597  0.41597  Biso   1.000  H
  C645     1.0000 0.26823  0.92927  0.42487  Biso   1.000  C
  H486     1.0000 0.29583  0.95317  0.42657  Biso   1.000  H
  C646     1.0000 0.23463  0.93477  0.42777  Biso   1.000  C
  H487     1.0000 0.23853  0.96237  0.43097  Biso   1.000  H
  C647     1.0000 0.19463  0.90037  0.42617  Biso   1.000  C
  H488     1.0000 0.17093  0.90437  0.42777  Biso   1.000  H
  C648     1.0000 0.18873  0.86087  0.42237  Biso   1.000  C
  H489     1.0000 0.16083  0.83747  0.42157  Biso   1.000  H
  C649     1.0000 0.23433  0.80067  0.35367  Biso   1.000  C
  C650     1.0000 0.24083  0.76667  0.34267  Biso   1.000  C
  H490     1.0000 0.23793  0.74677  0.36657  Biso   1.000  H
  C651     1.0000 0.25213  0.76407  0.29377  Biso   1.000  C
  H491     1.0000 0.25683  0.74167  0.28517  Biso   1.000  H
  C652     1.0000 0.25663  0.79217  0.25897  Biso   1.000  C
  H492     1.0000 0.26323  0.78857  0.22667  Biso   1.000  H
  C653     1.0000 0.25143  0.82577  0.27037  Biso   1.000  C
  H493     1.0000 0.25563  0.84627  0.24647  Biso   1.000  H
  C654     1.0000 0.23973  0.82957  0.31857  Biso   1.000  C
  H494     1.0000 0.23553  0.85247  0.32657  Biso   1.000  H
  C655     1.0000 0.96413  0.83557  0.44117  Biso   1.000  C
  C656     1.0000 0.96363  0.83127  0.49007  Biso   1.000  C
  H495     1.0000 0.94773  0.80447  0.50497  Biso   1.000  H
  C657     1.0000 0.98723  0.86727  0.51797  Biso   1.000  C
  H496     1.0000 0.98783  0.86437  0.55227  Biso   1.000  H
  C658     1.0000 0.00843  0.90467  0.49947  Biso   1.000  C
  H497     1.0000 0.02363  0.92837  0.52017  Biso   1.000  H
  C659     1.0000 0.00913  0.91027  0.45147  Biso   1.000  C
  H498     1.0000 0.02493  0.93777  0.43787  Biso   1.000  H
  C660     1.0000 0.98583  0.87457  0.42067  Biso   1.000  C
  H499     1.0000 0.98543  0.87787  0.38647  Biso   1.000  H
  C661     1.0000 0.88723  0.76017  0.43097  Biso   1.000  C
  C662     1.0000 0.87173  0.71997  0.44547  Biso   1.000  C
  H500     1.0000 0.88813  0.70667  0.44137  Biso   1.000  H
  C663     1.0000 0.83093  0.69707  0.46677  Biso   1.000  C
  H501     1.0000 0.82073  0.66917  0.47827  Biso   1.000  H
  C664     1.0000 0.80673  0.71557  0.47057  Biso   1.000  C
  H502     1.0000 0.77803  0.69947  0.48027  Biso   1.000  H
  C665     1.0000 0.82423  0.75777  0.46027  Biso   1.000  C
  H503     1.0000 0.80953  0.77227  0.46817  Biso   1.000  H
  C666     1.0000 0.86383  0.77927  0.43817  Biso   1.000  C
  H504     1.0000 0.87473  0.80767  0.42797  Biso   1.000  H
  O18      1.0000 0.30853  0.77897  0.44347  Biso   1.000  O
  Ag19     1.0000 0.92432  0.79746  0.31393  Biso   1.000  Ag
  P37      1.0000 0.88437  0.74874  0.24838  Biso   1.000  P
  P38      1.0000 0.60368  0.48007  0.23350  Biso   1.000  P
  C667     1.0000 0.69250  0.67250  0.25610  Biso   1.000  C
  C668     1.0000 0.73980  0.69390  0.25010  Biso   1.000  C
  C669     1.0000 0.76400  0.70740  0.29270  Biso   1.000  C
  H505     1.0000 0.75040  0.70520  0.32280  Biso   1.000  H
  C670     1.0000 0.80700  0.72370  0.29220  Biso   1.000  C
  H506     1.0000 0.82250  0.73200  0.32170  Biso   1.000  H
  C671     1.0000 0.82800  0.72830  0.24750  Biso   1.000  C
  C672     1.0000 0.80460  0.71690  0.20620  Biso   1.000  C
  H507     1.0000 0.81780  0.72060  0.17540  Biso   1.000  H
  C673     1.0000 0.76010  0.69930  0.20910  Biso   1.000  C
  H508     1.0000 0.74430  0.69120  0.17980  Biso   1.000  H
  C674     1.0000 0.67130  0.62530  0.25020  Biso   1.000  C
  C675     1.0000 0.65960  0.60060  0.29060  Biso   1.000  C
  H509     1.0000 0.66430  0.61290  0.32200  Biso   1.000  H
  C676     1.0000 0.64030  0.55640  0.28530  Biso   1.000  C
  H510     1.0000 0.63350  0.53970  0.31390  Biso   1.000  H
  C677     1.0000 0.63100  0.53670  0.24170  Biso   1.000  C
  C678     1.0000 0.64380  0.56110  0.20150  Biso   1.000  C
  H511     1.0000 0.63950  0.54820  0.17050  Biso   1.000  H
  C679     1.0000 0.66330  0.60460  0.20470  Biso   1.000  C
  H512     1.0000 0.67130  0.62090  0.17580  Biso   1.000  H
  C680     1.0000 0.88950  0.70250  0.25280  Biso   1.000  C
  C681     1.0000 0.92990  0.70740  0.25290  Biso   1.000  C
  H513     1.0000 0.95400  0.73470  0.24930  Biso   1.000  H
  C682     1.0000 0.93490  0.67230  0.25820  Biso   1.000  C
  H514     1.0000 0.96250  0.67600  0.25990  Biso   1.000  H
  C683     1.0000 0.90130  0.63320  0.26110  Biso   1.000  C
  H515     1.0000 0.90520  0.60950  0.26430  Biso   1.000  H
  C684     1.0000 0.86130  0.62760  0.25950  Biso   1.000  C
  H516     1.0000 0.83760  0.59990  0.26110  Biso   1.000  H
  C685     1.0000 0.85540  0.66120  0.25570  Biso   1.000  C
  H517     1.0000 0.82750  0.65670  0.25490  Biso   1.000  H
  C686     1.0000 0.90100  0.76700  0.18700  Biso   1.000  C
  C687     1.0000 0.90750  0.80750  0.17600  Biso   1.000  C
  H518     1.0000 0.90460  0.82450  0.19990  Biso   1.000  H
  C688     1.0000 0.91880  0.82140  0.12710  Biso   1.000  C
  H519     1.0000 0.92350  0.84850  0.11850  Biso   1.000  H
  C689     1.0000 0.92330  0.79780  0.09230  Biso   1.000  C
  H520     1.0000 0.92990  0.80800  0.06000  Biso   1.000  H
  C690     1.0000 0.91810  0.75900  0.10370  Biso   1.000  C
  H521     1.0000 0.92230  0.74270  0.07980  Biso   1.000  H
  C691     1.0000 0.90640  0.74350  0.15190  Biso   1.000  C
  H522     1.0000 0.90220  0.71640  0.15990  Biso   1.000  H
  C692     1.0000 0.63080  0.46190  0.27450  Biso   1.000  C
  C693     1.0000 0.63030  0.46570  0.32340  Biso   1.000  C
  H523     1.0000 0.61440  0.47660  0.33830  Biso   1.000  H
  C694     1.0000 0.65390  0.45330  0.35130  Biso   1.000  C
  H524     1.0000 0.65450  0.45680  0.38560  Biso   1.000  H
  C695     1.0000 0.67510  0.43710  0.33280  Biso   1.000  C
  H525     1.0000 0.69030  0.42860  0.35350  Biso   1.000  H
  C696     1.0000 0.67580  0.43220  0.28480  Biso   1.000  C
  H526     1.0000 0.69160  0.42050  0.27120  Biso   1.000  H
  C697     1.0000 0.65250  0.44460  0.25400  Biso   1.000  C
  H527     1.0000 0.65210  0.44090  0.21980  Biso   1.000  H
  C698     1.0000 0.55390  0.46040  0.26430  Biso   1.000  C
  C699     1.0000 0.53840  0.48510  0.27880  Biso   1.000  C
  H528     1.0000 0.55480  0.51480  0.27470  Biso   1.000  H
  C700     1.0000 0.49760  0.46720  0.30010  Biso   1.000  C
  H529     1.0000 0.48740  0.48490  0.31160  Biso   1.000  H
  C701     1.0000 0.47340  0.42450  0.30390  Biso   1.000  C
  H530     1.0000 0.44470  0.41190  0.31360  Biso   1.000  H
  C702     1.0000 0.49090  0.39980  0.29360  Biso   1.000  C
  H531     1.0000 0.47620  0.37060  0.30150  Biso   1.000  H
  C703     1.0000 0.53050  0.41790  0.27150  Biso   1.000  C
  H532     1.0000 0.54140  0.40040  0.26130  Biso   1.000  H
  O19      1.0000 0.97520  0.86290  0.27680  Biso   1.000  O
  Ag20     1.0000 0.59099  0.13079  0.64726  Biso   1.000  Ag
  P39      1.0000 0.55104  0.08207  0.58171  Biso   1.000  P
  P40      1.0000 0.27035  0.81340  0.56683  Biso   1.000  P
  C704     1.0000 0.35917  0.00583  0.58943  Biso   1.000  C
  C705     1.0000 0.40647  0.02723  0.58343  Biso   1.000  C
  C706     1.0000 0.43067  0.04073  0.62603  Biso   1.000  C
  H533     1.0000 0.41707  0.03853  0.65613  Biso   1.000  H
  C707     1.0000 0.47367  0.05703  0.62553  Biso   1.000  C
  H534     1.0000 0.48917  0.06533  0.65503  Biso   1.000  H
  C708     1.0000 0.49467  0.06163  0.58083  Biso   1.000  C
  C709     1.0000 0.47127  0.05023  0.53953  Biso   1.000  C
  H535     1.0000 0.48447  0.05393  0.50873  Biso   1.000  H
  C710     1.0000 0.42677  0.03263  0.54243  Biso   1.000  C
  H536     1.0000 0.41097  0.02453  0.51313  Biso   1.000  H
  C711     1.0000 0.33797  0.95863  0.58353  Biso   1.000  C
  C712     1.0000 0.32627  0.93393  0.62393  Biso   1.000  C
  H537     1.0000 0.33097  0.94623  0.65533  Biso   1.000  H
  C713     1.0000 0.30697  0.88973  0.61863  Biso   1.000  C
  H538     1.0000 0.30017  0.87303  0.64723  Biso   1.000  H
  C714     1.0000 0.29767  0.87003  0.57503  Biso   1.000  C
  C715     1.0000 0.31047  0.89443  0.53483  Biso   1.000  C
  H539     1.0000 0.30617  0.88153  0.50383  Biso   1.000  H
  C716     1.0000 0.32997  0.93793  0.53803  Biso   1.000  C
  H540     1.0000 0.33797  0.95423  0.50913  Biso   1.000  H
  C717     1.0000 0.55617  0.03583  0.58613  Biso   1.000  C
  C718     1.0000 0.59657  0.04073  0.58623  Biso   1.000  C
  H541     1.0000 0.62067  0.06803  0.58263  Biso   1.000  H
  C719     1.0000 0.60157  0.00563  0.59153  Biso   1.000  C
  H542     1.0000 0.62917  0.00933  0.59323  Biso   1.000  H
  C720     1.0000 0.56797  0.96653  0.59443  Biso   1.000  C
  H543     1.0000 0.57187  0.94283  0.59763  Biso   1.000  H
  C721     1.0000 0.52797  0.96093  0.59283  Biso   1.000  C
  H544     1.0000 0.50427  0.93323  0.59443  Biso   1.000  H
  C722     1.0000 0.52207  0.99453  0.58903  Biso   1.000  C
  H545     1.0000 0.49417  0.99003  0.58823  Biso   1.000  H
  C723     1.0000 0.56767  0.10033  0.52033  Biso   1.000  C
  C724     1.0000 0.57417  0.14083  0.50933  Biso   1.000  C
  H546     1.0000 0.57127  0.15783  0.53323  Biso   1.000  H
  C725     1.0000 0.58547  0.15473  0.46043  Biso   1.000  C
  H547     1.0000 0.59017  0.18183  0.45183  Biso   1.000  H
  C726     1.0000 0.58997  0.13113  0.42563  Biso   1.000  C
  H548     1.0000 0.59657  0.14133  0.39333  Biso   1.000  H
  C727     1.0000 0.58477  0.09233  0.43703  Biso   1.000  C
  H549     1.0000 0.58897  0.07603  0.41313  Biso   1.000  H
  C728     1.0000 0.57307  0.07683  0.48523  Biso   1.000  C
  H550     1.0000 0.56887  0.04973  0.49323  Biso   1.000  H
  C729     1.0000 0.29747  0.79523  0.60783  Biso   1.000  C
  C730     1.0000 0.29697  0.79903  0.65673  Biso   1.000  C
  H551     1.0000 0.28107  0.80993  0.67163  Biso   1.000  H
  C731     1.0000 0.32057  0.78663  0.68463  Biso   1.000  C
  H552     1.0000 0.32117  0.79013  0.71893  Biso   1.000  H
  C732     1.0000 0.34177  0.77043  0.66613  Biso   1.000  C
  H553     1.0000 0.35697  0.76193  0.68683  Biso   1.000  H
  C733     1.0000 0.34247  0.76553  0.61813  Biso   1.000  C
  H554     1.0000 0.35827  0.75383  0.60453  Biso   1.000  H
  C734     1.0000 0.31917  0.77793  0.58733  Biso   1.000  C
  H555     1.0000 0.31877  0.77423  0.55313  Biso   1.000  H
  C735     1.0000 0.22057  0.79373  0.59763  Biso   1.000  C
  C736     1.0000 0.20507  0.81843  0.61213  Biso   1.000  C
  H556     1.0000 0.22147  0.84813  0.60803  Biso   1.000  H
  C737     1.0000 0.16427  0.80053  0.63343  Biso   1.000  C
  H557     1.0000 0.15407  0.81823  0.64493  Biso   1.000  H
  C738     1.0000 0.14007  0.75783  0.63723  Biso   1.000  C
  H558     1.0000 0.11137  0.74523  0.64693  Biso   1.000  H
  C739     1.0000 0.15757  0.73313  0.62693  Biso   1.000  C
  H559     1.0000 0.14287  0.70393  0.63483  Biso   1.000  H
  C740     1.0000 0.19717  0.75123  0.60483  Biso   1.000  C
  H560     1.0000 0.20807  0.73373  0.59463  Biso   1.000  H
  O20      1.0000 0.64187  0.19623  0.61013  Biso   1.000  O
  Ag21     1.0000 0.25765  0.46413  0.98060  Biso   1.000  Ag
  P41      1.0000 0.21770  0.41541  0.91505  Biso   1.000  P
  P42      1.0000 0.93701  0.14674  0.90017  Biso   1.000  P
  C741     1.0000 0.02583  0.33917  0.92277  Biso   1.000  C
  C742     1.0000 0.07313  0.36057  0.91677  Biso   1.000  C
  C743     1.0000 0.09733  0.37407  0.95937  Biso   1.000  C
  H561     1.0000 0.08373  0.37187  0.98947  Biso   1.000  H
  C744     1.0000 0.14033  0.39037  0.95887  Biso   1.000  C
  H562     1.0000 0.15583  0.39867  0.98837  Biso   1.000  H
  C745     1.0000 0.16133  0.39497  0.91417  Biso   1.000  C
  C746     1.0000 0.13793  0.38357  0.87287  Biso   1.000  C
  H563     1.0000 0.15113  0.38727  0.84207  Biso   1.000  H
  C747     1.0000 0.09343  0.36597  0.87577  Biso   1.000  C
  H564     1.0000 0.07763  0.35787  0.84647  Biso   1.000  H
  C748     1.0000 0.00463  0.29197  0.91687  Biso   1.000  C
  C749     1.0000 0.99293  0.26727  0.95727  Biso   1.000  C
  H565     1.0000 0.99763  0.27957  0.98867  Biso   1.000  H
  C750     1.0000 0.97363  0.22307  0.95197  Biso   1.000  C
  H566     1.0000 0.96683  0.20637  0.98057  Biso   1.000  H
  C751     1.0000 0.96433  0.20337  0.90837  Biso   1.000  C
  C752     1.0000 0.97713  0.22777  0.86817  Biso   1.000  C
  H567     1.0000 0.97283  0.21487  0.83717  Biso   1.000  H
  C753     1.0000 0.99663  0.27127  0.87137  Biso   1.000  C
  H568     1.0000 0.00463  0.28757  0.84247  Biso   1.000  H
  C754     1.0000 0.22283  0.36917  0.91947  Biso   1.000  C
  C755     1.0000 0.26323  0.37407  0.91957  Biso   1.000  C
  H569     1.0000 0.28733  0.40137  0.91597  Biso   1.000  H
  C756     1.0000 0.26823  0.33897  0.92487  Biso   1.000  C
  H570     1.0000 0.29583  0.34267  0.92657  Biso   1.000  H
  C757     1.0000 0.23463  0.29987  0.92777  Biso   1.000  C
  H571     1.0000 0.23853  0.27617  0.93097  Biso   1.000  H
  C758     1.0000 0.19463  0.29427  0.92617  Biso   1.000  C
  H572     1.0000 0.17093  0.26657  0.92777  Biso   1.000  H
  C759     1.0000 0.18873  0.32787  0.92237  Biso   1.000  C
  H573     1.0000 0.16083  0.32337  0.92157  Biso   1.000  H
  C760     1.0000 0.23433  0.43367  0.85367  Biso   1.000  C
  C761     1.0000 0.24083  0.47417  0.84267  Biso   1.000  C
  H574     1.0000 0.23793  0.49117  0.86657  Biso   1.000  H
  C762     1.0000 0.25213  0.48807  0.79377  Biso   1.000  C
  H575     1.0000 0.25683  0.51517  0.78517  Biso   1.000  H
  C763     1.0000 0.25663  0.46447  0.75897  Biso   1.000  C
  H576     1.0000 0.26323  0.47467  0.72667  Biso   1.000  H
  C764     1.0000 0.25143  0.42567  0.77037  Biso   1.000  C
  H577     1.0000 0.25563  0.40937  0.74647  Biso   1.000  H
  C765     1.0000 0.23973  0.41017  0.81857  Biso   1.000  C
  H578     1.0000 0.23553  0.38307  0.82657  Biso   1.000  H
  C766     1.0000 0.96413  0.12857  0.94117  Biso   1.000  C
  C767     1.0000 0.96363  0.13237  0.99007  Biso   1.000  C
  H579     1.0000 0.94773  0.14327  0.00497  Biso   1.000  H
  C768     1.0000 0.98723  0.11997  0.01797  Biso   1.000  C
  H580     1.0000 0.98783  0.12347  0.05227  Biso   1.000  H
  C769     1.0000 0.00843  0.10377  0.99947  Biso   1.000  C
  H581     1.0000 0.02363  0.09527  0.02017  Biso   1.000  H
  C770     1.0000 0.00913  0.09887  0.95147  Biso   1.000  C
  H582     1.0000 0.02493  0.08717  0.93787  Biso   1.000  H
  C771     1.0000 0.98583  0.11127  0.92067  Biso   1.000  C
  H583     1.0000 0.98543  0.10757  0.88647  Biso   1.000  H
  C772     1.0000 0.88723  0.12707  0.93097  Biso   1.000  C
  C773     1.0000 0.87173  0.15177  0.94547  Biso   1.000  C
  H584     1.0000 0.88813  0.18147  0.94137  Biso   1.000  H
  C774     1.0000 0.83093  0.13387  0.96677  Biso   1.000  C
  H585     1.0000 0.82073  0.15157  0.97827  Biso   1.000  H
  C775     1.0000 0.80673  0.09117  0.97057  Biso   1.000  C
  H586     1.0000 0.77803  0.07857  0.98027  Biso   1.000  H
  C776     1.0000 0.82423  0.06647  0.96027  Biso   1.000  C
  H587     1.0000 0.80953  0.03727  0.96817  Biso   1.000  H
  C777     1.0000 0.86383  0.08457  0.93817  Biso   1.000  C
  H588     1.0000 0.87473  0.06707  0.92797  Biso   1.000  H
  O21      1.0000 0.30853  0.52957  0.94347  Biso   1.000  O
  Ag22     1.0000 0.20254  0.12686  0.31393  Biso   1.000  Ag
  P43      1.0000 0.25126  0.13563  0.24838  Biso   1.000  P
  P44      1.0000 0.51993  0.12361  0.23350  Biso   1.000  P
  C778     1.0000 0.32750  0.02000  0.25610  Biso   1.000  C
  C779     1.0000 0.30610  0.04590  0.25010  Biso   1.000  C
  C780     1.0000 0.29260  0.05660  0.29270  Biso   1.000  C
  H589     1.0000 0.29480  0.04520  0.32280  Biso   1.000  H
  C781     1.0000 0.27630  0.08330  0.29220  Biso   1.000  C
  H590     1.0000 0.26800  0.09050  0.32170  Biso   1.000  H
  C782     1.0000 0.27170  0.09970  0.24750  Biso   1.000  C
  C783     1.0000 0.28310  0.08770  0.20620  Biso   1.000  C
  H591     1.0000 0.27940  0.09720  0.17540  Biso   1.000  H
  C784     1.0000 0.30070  0.06080  0.20910  Biso   1.000  C
  H592     1.0000 0.30880  0.05310  0.17980  Biso   1.000  H
  C785     1.0000 0.37470  0.04600  0.25020  Biso   1.000  C
  C786     1.0000 0.39940  0.05900  0.29060  Biso   1.000  C
  H593     1.0000 0.38710  0.05140  0.32200  Biso   1.000  H
  C787     1.0000 0.44360  0.08390  0.28530  Biso   1.000  C
  H594     1.0000 0.46030  0.09380  0.31390  Biso   1.000  H
  C788     1.0000 0.46330  0.09430  0.24170  Biso   1.000  C
  C789     1.0000 0.43890  0.08270  0.20150  Biso   1.000  C
  H595     1.0000 0.45180  0.09130  0.17050  Biso   1.000  H
  C790     1.0000 0.39540  0.05870  0.20470  Biso   1.000  C
  H596     1.0000 0.37910  0.05040  0.17580  Biso   1.000  H
  C791     1.0000 0.29750  0.18700  0.25280  Biso   1.000  C
  C792     1.0000 0.29260  0.22250  0.25290  Biso   1.000  C
  H597     1.0000 0.26530  0.21930  0.24930  Biso   1.000  H
  C793     1.0000 0.32770  0.26260  0.25820  Biso   1.000  C
  H598     1.0000 0.32400  0.28650  0.25990  Biso   1.000  H
  C794     1.0000 0.36680  0.26810  0.26110  Biso   1.000  C
  H599     1.0000 0.39050  0.29570  0.26430  Biso   1.000  H
  C795     1.0000 0.37240  0.23370  0.25950  Biso   1.000  C
  H600     1.0000 0.40010  0.23770  0.26110  Biso   1.000  H
  C796     1.0000 0.33880  0.19420  0.25570  Biso   1.000  C
  H601     1.0000 0.34330  0.17080  0.25490  Biso   1.000  H
  C797     1.0000 0.23300  0.13400  0.18700  Biso   1.000  C
  C798     1.0000 0.19250  0.10000  0.17600  Biso   1.000  C
  H602     1.0000 0.17550  0.08010  0.19990  Biso   1.000  H
  C799     1.0000 0.17860  0.09740  0.12710  Biso   1.000  C
  H603     1.0000 0.15150  0.07500  0.11850  Biso   1.000  H
  C800     1.0000 0.20220  0.12550  0.09230  Biso   1.000  C
  H604     1.0000 0.19200  0.12190  0.06000  Biso   1.000  H
  C801     1.0000 0.24100  0.15910  0.10370  Biso   1.000  C
  H605     1.0000 0.25730  0.17960  0.07980  Biso   1.000  H
  C802     1.0000 0.25650  0.16290  0.15190  Biso   1.000  C
  H606     1.0000 0.28360  0.18580  0.15990  Biso   1.000  H
  C803     1.0000 0.53810  0.16890  0.27450  Biso   1.000  C
  C804     1.0000 0.53430  0.16460  0.32340  Biso   1.000  C
  H607     1.0000 0.52340  0.13780  0.33830  Biso   1.000  H
  C805     1.0000 0.54670  0.20060  0.35130  Biso   1.000  C
  H608     1.0000 0.54320  0.19770  0.38560  Biso   1.000  H
  C806     1.0000 0.56290  0.23800  0.33280  Biso   1.000  C
  H609     1.0000 0.57140  0.26170  0.35350  Biso   1.000  H
  C807     1.0000 0.56780  0.24360  0.28480  Biso   1.000  C
  H610     1.0000 0.57950  0.27110  0.27120  Biso   1.000  H
  C808     1.0000 0.55540  0.20790  0.25400  Biso   1.000  C
  H611     1.0000 0.55910  0.21120  0.21980  Biso   1.000  H
  C809     1.0000 0.53960  0.09350  0.26430  Biso   1.000  C
  C810     1.0000 0.51490  0.05330  0.27880  Biso   1.000  C
  H612     1.0000 0.48520  0.04000  0.27470  Biso   1.000  H
  C811     1.0000 0.53280  0.03040  0.30010  Biso   1.000  C
  H613     1.0000 0.51510  0.00250  0.31160  Biso   1.000  H
  C812     1.0000 0.57550  0.04890  0.30390  Biso   1.000  C
  H614     1.0000 0.58810  0.03280  0.31360  Biso   1.000  H
  C813     1.0000 0.60020  0.09110  0.29360  Biso   1.000  C
  H615     1.0000 0.62940  0.10560  0.30150  Biso   1.000  H
  C814     1.0000 0.58210  0.11260  0.27150  Biso   1.000  C
  H616     1.0000 0.59960  0.14100  0.26130  Biso   1.000  H
  O22      1.0000 0.13710  0.11230  0.27680  Biso   1.000  O
  Ag23     1.0000 0.86921  0.46019  0.64726  Biso   1.000  Ag
  P45      1.0000 0.91793  0.46896  0.58171  Biso   1.000  P
  P46      1.0000 0.18660  0.45694  0.56683  Biso   1.000  P
  C815     1.0000 0.99417  0.35333  0.58943  Biso   1.000  C
  C816     1.0000 0.97277  0.37923  0.58343  Biso   1.000  C
  C817     1.0000 0.95927  0.38993  0.62603  Biso   1.000  C
  H617     1.0000 0.96147  0.37853  0.65613  Biso   1.000  H
  C818     1.0000 0.94297  0.41663  0.62553  Biso   1.000  C
  H618     1.0000 0.93467  0.42383  0.65503  Biso   1.000  H
  C819     1.0000 0.93837  0.43303  0.58083  Biso   1.000  C
  C820     1.0000 0.94977  0.42103  0.53953  Biso   1.000  C
  H619     1.0000 0.94607  0.43053  0.50873  Biso   1.000  H
  C821     1.0000 0.96737  0.39413  0.54243  Biso   1.000  C
  H620     1.0000 0.97547  0.38643  0.51313  Biso   1.000  H
  C822     1.0000 0.04137  0.37933  0.58353  Biso   1.000  C
  C823     1.0000 0.06607  0.39233  0.62393  Biso   1.000  C
  H621     1.0000 0.05377  0.38473  0.65533  Biso   1.000  H
  C824     1.0000 0.11027  0.41723  0.61863  Biso   1.000  C
  H622     1.0000 0.12697  0.42713  0.64723  Biso   1.000  H
  C825     1.0000 0.12997  0.42763  0.57503  Biso   1.000  C
  C826     1.0000 0.10557  0.41603  0.53483  Biso   1.000  C
  H623     1.0000 0.11847  0.42463  0.50383  Biso   1.000  H
  C827     1.0000 0.06207  0.39203  0.53803  Biso   1.000  C
  H624     1.0000 0.04577  0.38373  0.50913  Biso   1.000  H
  C828     1.0000 0.96417  0.52033  0.58613  Biso   1.000  C
  C829     1.0000 0.95927  0.55583  0.58623  Biso   1.000  C
  H625     1.0000 0.93197  0.55263  0.58263  Biso   1.000  H
  C830     1.0000 0.99437  0.59593  0.59153  Biso   1.000  C
  H626     1.0000 0.99067  0.61983  0.59323  Biso   1.000  H
  C831     1.0000 0.03347  0.60143  0.59443  Biso   1.000  C
  H627     1.0000 0.05717  0.62903  0.59763  Biso   1.000  H
  C832     1.0000 0.03907  0.56703  0.59283  Biso   1.000  C
  H628     1.0000 0.06677  0.57103  0.59443  Biso   1.000  H
  C833     1.0000 0.00547  0.52753  0.58903  Biso   1.000  C
  H629     1.0000 0.00997  0.50413  0.58823  Biso   1.000  H
  C834     1.0000 0.89967  0.46733  0.52033  Biso   1.000  C
  C835     1.0000 0.85917  0.43333  0.50933  Biso   1.000  C
  H630     1.0000 0.84217  0.41343  0.53323  Biso   1.000  H
  C836     1.0000 0.84527  0.43073  0.46043  Biso   1.000  C
  H631     1.0000 0.81817  0.40833  0.45183  Biso   1.000  H
  C837     1.0000 0.86887  0.45883  0.42563  Biso   1.000  C
  H632     1.0000 0.85867  0.45523  0.39333  Biso   1.000  H
  C838     1.0000 0.90767  0.49243  0.43703  Biso   1.000  C
  H633     1.0000 0.92397  0.51293  0.41313  Biso   1.000  H
  C839     1.0000 0.92317  0.49623  0.48523  Biso   1.000  C
  H634     1.0000 0.95027  0.51913  0.49323  Biso   1.000  H
  C840     1.0000 0.20477  0.50223  0.60783  Biso   1.000  C
  C841     1.0000 0.20097  0.49793  0.65673  Biso   1.000  C
  H635     1.0000 0.19007  0.47113  0.67163  Biso   1.000  H
  C842     1.0000 0.21337  0.53393  0.68463  Biso   1.000  C
  H636     1.0000 0.20987  0.53103  0.71893  Biso   1.000  H
  C843     1.0000 0.22957  0.57133  0.66613  Biso   1.000  C
  H637     1.0000 0.23807  0.59503  0.68683  Biso   1.000  H
  C844     1.0000 0.23447  0.57693  0.61813  Biso   1.000  C
  H638     1.0000 0.24617  0.60443  0.60453  Biso   1.000  H
  C845     1.0000 0.22207  0.54123  0.58733  Biso   1.000  C
  H639     1.0000 0.22577  0.54453  0.55313  Biso   1.000  H
  C846     1.0000 0.20627  0.42683  0.59763  Biso   1.000  C
  C847     1.0000 0.18157  0.38663  0.61213  Biso   1.000  C
  H640     1.0000 0.15187  0.37333  0.60803  Biso   1.000  H
  C848     1.0000 0.19947  0.36373  0.63343  Biso   1.000  C
  H641     1.0000 0.18177  0.33583  0.64493  Biso   1.000  H
  C849     1.0000 0.24217  0.38223  0.63723  Biso   1.000  C
  H642     1.0000 0.25477  0.36613  0.64693  Biso   1.000  H
  C850     1.0000 0.26687  0.42443  0.62693  Biso   1.000  C
  H643     1.0000 0.29607  0.43893  0.63483  Biso   1.000  H
  C851     1.0000 0.24877  0.44593  0.60483  Biso   1.000  C
  H644     1.0000 0.26627  0.47433  0.59463  Biso   1.000  H
  O23      1.0000 0.80377  0.44563  0.61013  Biso   1.000  O
  Ag24     1.0000 0.53587  0.79353  0.98060  Biso   1.000  Ag
  P47      1.0000 0.58459  0.80230  0.91505  Biso   1.000  P
  P48      1.0000 0.85326  0.79028  0.90017  Biso   1.000  P
  C852     1.0000 0.66083  0.68667  0.92277  Biso   1.000  C
  C853     1.0000 0.63943  0.71257  0.91677  Biso   1.000  C
  C854     1.0000 0.62593  0.72327  0.95937  Biso   1.000  C
  H645     1.0000 0.62813  0.71187  0.98947  Biso   1.000  H
  C855     1.0000 0.60963  0.74997  0.95887  Biso   1.000  C
  H646     1.0000 0.60133  0.75717  0.98837  Biso   1.000  H
  C856     1.0000 0.60503  0.76637  0.91417  Biso   1.000  C
  C857     1.0000 0.61643  0.75437  0.87287  Biso   1.000  C
  H647     1.0000 0.61273  0.76387  0.84207  Biso   1.000  H
  C858     1.0000 0.63403  0.72747  0.87577  Biso   1.000  C
  H648     1.0000 0.64213  0.71977  0.84647  Biso   1.000  H
  C859     1.0000 0.70803  0.71267  0.91687  Biso   1.000  C
  C860     1.0000 0.73273  0.72567  0.95727  Biso   1.000  C
  H649     1.0000 0.72043  0.71807  0.98867  Biso   1.000  H
  C861     1.0000 0.77693  0.75057  0.95197  Biso   1.000  C
  H650     1.0000 0.79363  0.76047  0.98057  Biso   1.000  H
  C862     1.0000 0.79663  0.76097  0.90837  Biso   1.000  C
  C863     1.0000 0.77223  0.74937  0.86817  Biso   1.000  C
  H651     1.0000 0.78513  0.75797  0.83717  Biso   1.000  H
  C864     1.0000 0.72873  0.72537  0.87137  Biso   1.000  C
  H652     1.0000 0.71243  0.71707  0.84247  Biso   1.000  H
  C865     1.0000 0.63083  0.85367  0.91947  Biso   1.000  C
  C866     1.0000 0.62593  0.88917  0.91957  Biso   1.000  C
  H653     1.0000 0.59863  0.88597  0.91597  Biso   1.000  H
  C867     1.0000 0.66103  0.92927  0.92487  Biso   1.000  C
  H654     1.0000 0.65733  0.95317  0.92657  Biso   1.000  H
  C868     1.0000 0.70013  0.93477  0.92777  Biso   1.000  C
  H655     1.0000 0.72383  0.96237  0.93097  Biso   1.000  H
  C869     1.0000 0.70573  0.90037  0.92617  Biso   1.000  C
  H656     1.0000 0.73343  0.90437  0.92777  Biso   1.000  H
  C870     1.0000 0.67213  0.86087  0.92237  Biso   1.000  C
  H657     1.0000 0.67663  0.83747  0.92157  Biso   1.000  H
  C871     1.0000 0.56633  0.80067  0.85367  Biso   1.000  C
  C872     1.0000 0.52583  0.76667  0.84267  Biso   1.000  C
  H658     1.0000 0.50883  0.74677  0.86657  Biso   1.000  H
  C873     1.0000 0.51193  0.76407  0.79377  Biso   1.000  C
  H659     1.0000 0.48483  0.74167  0.78517  Biso   1.000  H
  C874     1.0000 0.53553  0.79217  0.75897  Biso   1.000  C
  H660     1.0000 0.52533  0.78857  0.72667  Biso   1.000  H
  C875     1.0000 0.57433  0.82577  0.77037  Biso   1.000  C
  H661     1.0000 0.59063  0.84627  0.74647  Biso   1.000  H
  C876     1.0000 0.58983  0.82957  0.81857  Biso   1.000  C
  H662     1.0000 0.61693  0.85247  0.82657  Biso   1.000  H
  C877     1.0000 0.87143  0.83557  0.94117  Biso   1.000  C
  C878     1.0000 0.86763  0.83127  0.99007  Biso   1.000  C
  H663     1.0000 0.85673  0.80447  0.00497  Biso   1.000  H
  C879     1.0000 0.88003  0.86727  0.01797  Biso   1.000  C
  H664     1.0000 0.87653  0.86437  0.05227  Biso   1.000  H
  C880     1.0000 0.89623  0.90467  0.99947  Biso   1.000  C
  H665     1.0000 0.90473  0.92837  0.02017  Biso   1.000  H
  C881     1.0000 0.90113  0.91027  0.95147  Biso   1.000  C
  H666     1.0000 0.91283  0.93777  0.93787  Biso   1.000  H
  C882     1.0000 0.88873  0.87457  0.92067  Biso   1.000  C
  H667     1.0000 0.89243  0.87787  0.88647  Biso   1.000  H
  C883     1.0000 0.87293  0.76017  0.93097  Biso   1.000  C
  C884     1.0000 0.84823  0.71997  0.94547  Biso   1.000  C
  H668     1.0000 0.81853  0.70667  0.94137  Biso   1.000  H
  C885     1.0000 0.86613  0.69707  0.96677  Biso   1.000  C
  H669     1.0000 0.84843  0.66917  0.97827  Biso   1.000  H
  C886     1.0000 0.90883  0.71557  0.97057  Biso   1.000  C
  H670     1.0000 0.92143  0.69947  0.98027  Biso   1.000  H
  C887     1.0000 0.93353  0.75777  0.96027  Biso   1.000  C
  H671     1.0000 0.96273  0.77227  0.96817  Biso   1.000  H
  C888     1.0000 0.91543  0.77927  0.93817  Biso   1.000  C
  H672     1.0000 0.93293  0.80767  0.92797  Biso   1.000  H
  O24      1.0000 0.47043  0.77897  0.94347  Biso   1.000  O
  Ag25     1.0000 0.87314  0.07568  0.31393  Biso   1.000  Ag
  P49      1.0000 0.86437  0.11563  0.24838  Biso   1.000  P
  P50      1.0000 0.87639  0.39632  0.23350  Biso   1.000  P
  C889     1.0000 0.98000  0.30750  0.25610  Biso   1.000  C
  C890     1.0000 0.95410  0.26020  0.25010  Biso   1.000  C
  C891     1.0000 0.94340  0.23600  0.29270  Biso   1.000  C
  H673     1.0000 0.95480  0.24960  0.32280  Biso   1.000  H
  C892     1.0000 0.91670  0.19300  0.29220  Biso   1.000  C
  H674     1.0000 0.90950  0.17750  0.32170  Biso   1.000  H
  C893     1.0000 0.90030  0.17200  0.24750  Biso   1.000  C
  C894     1.0000 0.91230  0.19540  0.20620  Biso   1.000  C
  H675     1.0000 0.90280  0.18220  0.17540  Biso   1.000  H
  C895     1.0000 0.93920  0.23990  0.20910  Biso   1.000  C
  H676     1.0000 0.94690  0.25570  0.17980  Biso   1.000  H
  C896     1.0000 0.95400  0.32870  0.25020  Biso   1.000  C
  C897     1.0000 0.94100  0.34040  0.29060  Biso   1.000  C
  H677     1.0000 0.94860  0.33570  0.32200  Biso   1.000  H
  C898     1.0000 0.91610  0.35970  0.28530  Biso   1.000  C
  H678     1.0000 0.90620  0.36650  0.31390  Biso   1.000  H
  C899     1.0000 0.90570  0.36900  0.24170  Biso   1.000  C
  C900     1.0000 0.91730  0.35620  0.20150  Biso   1.000  C
  H679     1.0000 0.90870  0.36050  0.17050  Biso   1.000  H
  C901     1.0000 0.94130  0.33670  0.20470  Biso   1.000  C
  H680     1.0000 0.94960  0.32870  0.17580  Biso   1.000  H
  C902     1.0000 0.81300  0.11050  0.25280  Biso   1.000  C
  C903     1.0000 0.77750  0.07010  0.25290  Biso   1.000  C
  H681     1.0000 0.78070  0.04600  0.24930  Biso   1.000  H
  C904     1.0000 0.73740  0.06510  0.25820  Biso   1.000  C
  H682     1.0000 0.71350  0.03750  0.25990  Biso   1.000  H
  C905     1.0000 0.73190  0.09870  0.26110  Biso   1.000  C
  H683     1.0000 0.70430  0.09480  0.26430  Biso   1.000  H
  C906     1.0000 0.76630  0.13870  0.25950  Biso   1.000  C
  H684     1.0000 0.76230  0.16240  0.26110  Biso   1.000  H
  C907     1.0000 0.80580  0.14460  0.25570  Biso   1.000  C
  H685     1.0000 0.82920  0.17250  0.25490  Biso   1.000  H
  C908     1.0000 0.86600  0.09900  0.18700  Biso   1.000  C
  C909     1.0000 0.90000  0.09250  0.17600  Biso   1.000  C
  H686     1.0000 0.91990  0.09540  0.19990  Biso   1.000  H
  C910     1.0000 0.90260  0.08120  0.12710  Biso   1.000  C
  H687     1.0000 0.92500  0.07650  0.11850  Biso   1.000  H
  C911     1.0000 0.87450  0.07670  0.09230  Biso   1.000  C
  H688     1.0000 0.87810  0.07010  0.06000  Biso   1.000  H
  C912     1.0000 0.84090  0.08190  0.10370  Biso   1.000  C
  H689     1.0000 0.82040  0.07770  0.07980  Biso   1.000  H
  C913     1.0000 0.83710  0.09360  0.15190  Biso   1.000  C
  H690     1.0000 0.81420  0.09780  0.15990  Biso   1.000  H
  C914     1.0000 0.83110  0.36920  0.27450  Biso   1.000  C
  C915     1.0000 0.83540  0.36970  0.32340  Biso   1.000  C
  H691     1.0000 0.86220  0.38560  0.33830  Biso   1.000  H
  C916     1.0000 0.79940  0.34610  0.35130  Biso   1.000  C
  H692     1.0000 0.80230  0.34550  0.38560  Biso   1.000  H
  C917     1.0000 0.76200  0.32490  0.33280  Biso   1.000  C
  H693     1.0000 0.73830  0.30970  0.35350  Biso   1.000  H
  C918     1.0000 0.75640  0.32420  0.28480  Biso   1.000  C
  H694     1.0000 0.72890  0.30840  0.27120  Biso   1.000  H
  C919     1.0000 0.79210  0.34750  0.25400  Biso   1.000  C
  H695     1.0000 0.78880  0.34790  0.21980  Biso   1.000  H
  C920     1.0000 0.90650  0.44610  0.26430  Biso   1.000  C
  C921     1.0000 0.94670  0.46160  0.27880  Biso   1.000  C
  H696     1.0000 0.96000  0.44520  0.27470  Biso   1.000  H
  C922     1.0000 0.96960  0.50240  0.30010  Biso   1.000  C
  H697     1.0000 0.99750  0.51260  0.31160  Biso   1.000  H
  C923     1.0000 0.95110  0.52660  0.30390  Biso   1.000  C
  H698     1.0000 0.96720  0.55530  0.31360  Biso   1.000  H
  C924     1.0000 0.90890  0.50910  0.29360  Biso   1.000  C
  H699     1.0000 0.89440  0.52380  0.30150  Biso   1.000  H
  C925     1.0000 0.88740  0.46950  0.27150  Biso   1.000  C
  H700     1.0000 0.85900  0.45860  0.26130  Biso   1.000  H
  O25      1.0000 0.88770  0.02480  0.27680  Biso   1.000  O
  Ag26     1.0000 0.53981  0.40901  0.64726  Biso   1.000  Ag
  P51      1.0000 0.53104  0.44896  0.58171  Biso   1.000  P
  P52      1.0000 0.54306  0.72965  0.56683  Biso   1.000  P
  C926     1.0000 0.64667  0.64083  0.58943  Biso   1.000  C
  C927     1.0000 0.62077  0.59353  0.58343  Biso   1.000  C
  C928     1.0000 0.61007  0.56933  0.62603  Biso   1.000  C
  H701     1.0000 0.62147  0.58293  0.65613  Biso   1.000  H
  C929     1.0000 0.58337  0.52633  0.62553  Biso   1.000  C
  H702     1.0000 0.57617  0.51083  0.65503  Biso   1.000  H
  C930     1.0000 0.56697  0.50533  0.58083  Biso   1.000  C
  C931     1.0000 0.57897  0.52873  0.53953  Biso   1.000  C
  H703     1.0000 0.56947  0.51553  0.50873  Biso   1.000  H
  C932     1.0000 0.60587  0.57323  0.54243  Biso   1.000  C
  H704     1.0000 0.61357  0.58903  0.51313  Biso   1.000  H
  C933     1.0000 0.62067  0.66203  0.58353  Biso   1.000  C
  C934     1.0000 0.60767  0.67373  0.62393  Biso   1.000  C
  H705     1.0000 0.61527  0.66903  0.65533  Biso   1.000  H
  C935     1.0000 0.58277  0.69303  0.61863  Biso   1.000  C
  H706     1.0000 0.57287  0.69983  0.64723  Biso   1.000  H
  C936     1.0000 0.57237  0.70233  0.57503  Biso   1.000  C
  C937     1.0000 0.58397  0.68953  0.53483  Biso   1.000  C
  H707     1.0000 0.57537  0.69383  0.50383  Biso   1.000  H
  C938     1.0000 0.60797  0.67003  0.53803  Biso   1.000  C
  H708     1.0000 0.61627  0.66203  0.50913  Biso   1.000  H
  C939     1.0000 0.47967  0.44383  0.58613  Biso   1.000  C
  C940     1.0000 0.44417  0.40343  0.58623  Biso   1.000  C
  H709     1.0000 0.44737  0.37933  0.58263  Biso   1.000  H
  C941     1.0000 0.40407  0.39843  0.59153  Biso   1.000  C
  H710     1.0000 0.38017  0.37083  0.59323  Biso   1.000  H
  C942     1.0000 0.39857  0.43203  0.59443  Biso   1.000  C
  H711     1.0000 0.37097  0.42813  0.59763  Biso   1.000  H
  C943     1.0000 0.43297  0.47203  0.59283  Biso   1.000  C
  H712     1.0000 0.42897  0.49573  0.59443  Biso   1.000  H
  C944     1.0000 0.47247  0.47793  0.58903  Biso   1.000  C
  H713     1.0000 0.49587  0.50583  0.58823  Biso   1.000  H
  C945     1.0000 0.53267  0.43233  0.52033  Biso   1.000  C
  C946     1.0000 0.56667  0.42583  0.50933  Biso   1.000  C
  H714     1.0000 0.58657  0.42873  0.53323  Biso   1.000  H
  C947     1.0000 0.56927  0.41453  0.46043  Biso   1.000  C
  H715     1.0000 0.59167  0.40983  0.45183  Biso   1.000  H
  C948     1.0000 0.54117  0.41003  0.42563  Biso   1.000  C
  H716     1.0000 0.54477  0.40343  0.39333  Biso   1.000  H
  C949     1.0000 0.50757  0.41523  0.43703  Biso   1.000  C
  H717     1.0000 0.48707  0.41103  0.41313  Biso   1.000  H
  C950     1.0000 0.50377  0.42693  0.48523  Biso   1.000  C
  H718     1.0000 0.48087  0.43113  0.49323  Biso   1.000  H
  C951     1.0000 0.49777  0.70253  0.60783  Biso   1.000  C
  C952     1.0000 0.50207  0.70303  0.65673  Biso   1.000  C
  H719     1.0000 0.52887  0.71893  0.67163  Biso   1.000  H
  C953     1.0000 0.46607  0.67943  0.68463  Biso   1.000  C
  H720     1.0000 0.46897  0.67883  0.71893  Biso   1.000  H
  C954     1.0000 0.42867  0.65823  0.66613  Biso   1.000  C
  H721     1.0000 0.40497  0.64303  0.68683  Biso   1.000  H
  C955     1.0000 0.42307  0.65753  0.61813  Biso   1.000  C
  H722     1.0000 0.39557  0.64173  0.60453  Biso   1.000  H
  C956     1.0000 0.45877  0.68083  0.58733  Biso   1.000  C
  H723     1.0000 0.45547  0.68123  0.55313  Biso   1.000  H
  C957     1.0000 0.57317  0.77943  0.59763  Biso   1.000  C
  C958     1.0000 0.61337  0.79493  0.61213  Biso   1.000  C
  H724     1.0000 0.62667  0.77853  0.60803  Biso   1.000  H
  C959     1.0000 0.63627  0.83573  0.63343  Biso   1.000  C
  H725     1.0000 0.66417  0.84593  0.64493  Biso   1.000  H
  C960     1.0000 0.61777  0.85993  0.63723  Biso   1.000  C
  H726     1.0000 0.63387  0.88863  0.64693  Biso   1.000  H
  C961     1.0000 0.57557  0.84243  0.62693  Biso   1.000  C
  H727     1.0000 0.56107  0.85713  0.63483  Biso   1.000  H
  C962     1.0000 0.55407  0.80283  0.60483  Biso   1.000  C
  H728     1.0000 0.52567  0.79193  0.59463  Biso   1.000  H
  O26      1.0000 0.55437  0.35813  0.61013  Biso   1.000  O
  Ag27     1.0000 0.20647  0.74235  0.98060  Biso   1.000  Ag
  P53      1.0000 0.19770  0.78230  0.91505  Biso   1.000  P
  P54      1.0000 0.20972  0.06299  0.90017  Biso   1.000  P
  C963     1.0000 0.31333  0.97417  0.92277  Biso   1.000  C
  C964     1.0000 0.28743  0.92687  0.91677  Biso   1.000  C
  C965     1.0000 0.27673  0.90267  0.95937  Biso   1.000  C
  H729     1.0000 0.28813  0.91627  0.98947  Biso   1.000  H
  C966     1.0000 0.25003  0.85967  0.95887  Biso   1.000  C
  H730     1.0000 0.24283  0.84417  0.98837  Biso   1.000  H
  C967     1.0000 0.23363  0.83867  0.91417  Biso   1.000  C
  C968     1.0000 0.24563  0.86207  0.87287  Biso   1.000  C
  H731     1.0000 0.23613  0.84887  0.84207  Biso   1.000  H
  C969     1.0000 0.27253  0.90657  0.87577  Biso   1.000  C
  H732     1.0000 0.28023  0.92237  0.84647  Biso   1.000  H
  C970     1.0000 0.28733  0.99537  0.91687  Biso   1.000  C
  C971     1.0000 0.27433  0.00707  0.95727  Biso   1.000  C
  H733     1.0000 0.28193  0.00237  0.98867  Biso   1.000  H
  C972     1.0000 0.24943  0.02637  0.95197  Biso   1.000  C
  H734     1.0000 0.23953  0.03317  0.98057  Biso   1.000  H
  C973     1.0000 0.23903  0.03567  0.90837  Biso   1.000  C
  C974     1.0000 0.25063  0.02287  0.86817  Biso   1.000  C
  H735     1.0000 0.24203  0.02717  0.83717  Biso   1.000  H
  C975     1.0000 0.27463  0.00337  0.87137  Biso   1.000  C
  H736     1.0000 0.28293  0.99537  0.84247  Biso   1.000  H
  C976     1.0000 0.14633  0.77717  0.91947  Biso   1.000  C
  C977     1.0000 0.11083  0.73677  0.91957  Biso   1.000  C
  H737     1.0000 0.11403  0.71267  0.91597  Biso   1.000  H
  C978     1.0000 0.07073  0.73177  0.92487  Biso   1.000  C
  H738     1.0000 0.04683  0.70417  0.92657  Biso   1.000  H
  C979     1.0000 0.06523  0.76537  0.92777  Biso   1.000  C
  H739     1.0000 0.03763  0.76147  0.93097  Biso   1.000  H
  C980     1.0000 0.09963  0.80537  0.92617  Biso   1.000  C
  H740     1.0000 0.09563  0.82907  0.92777  Biso   1.000  H
  C981     1.0000 0.13913  0.81127  0.92237  Biso   1.000  C
  H741     1.0000 0.16253  0.83917  0.92157  Biso   1.000  H
  C982     1.0000 0.19933  0.76567  0.85367  Biso   1.000  C
  C983     1.0000 0.23333  0.75917  0.84267  Biso   1.000  C
  H742     1.0000 0.25323  0.76207  0.86657  Biso   1.000  H
  C984     1.0000 0.23593  0.74787  0.79377  Biso   1.000  C
  H743     1.0000 0.25833  0.74317  0.78517  Biso   1.000  H
  C985     1.0000 0.20783  0.74337  0.75897  Biso   1.000  C
  H744     1.0000 0.21143  0.73677  0.72667  Biso   1.000  H
  C986     1.0000 0.17423  0.74857  0.77037  Biso   1.000  C
  H745     1.0000 0.15373  0.74437  0.74647  Biso   1.000  H
  C987     1.0000 0.17043  0.76027  0.81857  Biso   1.000  C
  H746     1.0000 0.14753  0.76447  0.82657  Biso   1.000  H
  C988     1.0000 0.16443  0.03587  0.94117  Biso   1.000  C
  C989     1.0000 0.16873  0.03637  0.99007  Biso   1.000  C
  H747     1.0000 0.19553  0.05227  0.00497  Biso   1.000  H
  C990     1.0000 0.13273  0.01277  0.01797  Biso   1.000  C
  H748     1.0000 0.13563  0.01217  0.05227  Biso   1.000  H
  C991     1.0000 0.09533  0.99157  0.99947  Biso   1.000  C
  H749     1.0000 0.07163  0.97637  0.02017  Biso   1.000  H
  C992     1.0000 0.08973  0.99087  0.95147  Biso   1.000  C
  H750     1.0000 0.06223  0.97507  0.93787  Biso   1.000  H
  C993     1.0000 0.12543  0.01417  0.92067  Biso   1.000  C
  H751     1.0000 0.12213  0.01457  0.88647  Biso   1.000  H
  C994     1.0000 0.23983  0.11277  0.93097  Biso   1.000  C
  C995     1.0000 0.28003  0.12827  0.94547  Biso   1.000  C
  H752     1.0000 0.29333  0.11187  0.94137  Biso   1.000  H
  C996     1.0000 0.30293  0.16907  0.96677  Biso   1.000  C
  H753     1.0000 0.33083  0.17927  0.97827  Biso   1.000  H
  C997     1.0000 0.28443  0.19327  0.97057  Biso   1.000  C
  H754     1.0000 0.30053  0.22197  0.98027  Biso   1.000  H
  C998     1.0000 0.24223  0.17577  0.96027  Biso   1.000  C
  H755     1.0000 0.22773  0.19047  0.96817  Biso   1.000  H
  C999     1.0000 0.22073  0.13617  0.93817  Biso   1.000  C
  H756     1.0000 0.19233  0.12527  0.92797  Biso   1.000  H
  O27      1.0000 0.22103  0.69147  0.94347  Biso   1.000  O
  Ag28     1.0000 0.79746  0.92432  0.18607  Biso   1.000  Ag
  P55      1.0000 0.74874  0.88437  0.25162  Biso   1.000  P
  P56      1.0000 0.48007  0.60368  0.26650  Biso   1.000  P
  C1000    1.0000 0.67250  0.69250  0.24390  Biso   1.000  C
  C1001    1.0000 0.69390  0.73980  0.24990  Biso   1.000  C
  C1002    1.0000 0.70740  0.76400  0.20730  Biso   1.000  C
  H757     1.0000 0.70520  0.75040  0.17720  Biso   1.000  H
  C1003    1.0000 0.72370  0.80700  0.20780  Biso   1.000  C
  H758     1.0000 0.73200  0.82250  0.17830  Biso   1.000  H
  C1004    1.0000 0.72830  0.82800  0.25250  Biso   1.000  C
  C1005    1.0000 0.71690  0.80460  0.29380  Biso   1.000  C
  H759     1.0000 0.72060  0.81780  0.32460  Biso   1.000  H
  C1006    1.0000 0.69930  0.76010  0.29090  Biso   1.000  C
  H760     1.0000 0.69120  0.74430  0.32020  Biso   1.000  H
  C1007    1.0000 0.62530  0.67130  0.24980  Biso   1.000  C
  C1008    1.0000 0.60060  0.65960  0.20940  Biso   1.000  C
  H761     1.0000 0.61290  0.66430  0.17800  Biso   1.000  H
  C1009    1.0000 0.55640  0.64030  0.21470  Biso   1.000  C
  H762     1.0000 0.53970  0.63350  0.18610  Biso   1.000  H
  C1010    1.0000 0.53670  0.63100  0.25830  Biso   1.000  C
  C1011    1.0000 0.56110  0.64380  0.29850  Biso   1.000  C
  H763     1.0000 0.54820  0.63950  0.32950  Biso   1.000  H
  C1012    1.0000 0.60460  0.66330  0.29530  Biso   1.000  C
  H764     1.0000 0.62090  0.67130  0.32420  Biso   1.000  H
  C1013    1.0000 0.70250  0.88950  0.24720  Biso   1.000  C
  C1014    1.0000 0.70740  0.92990  0.24710  Biso   1.000  C
  H765     1.0000 0.73470  0.95400  0.25070  Biso   1.000  H
  C1015    1.0000 0.67230  0.93490  0.24180  Biso   1.000  C
  H766     1.0000 0.67600  0.96250  0.24010  Biso   1.000  H
  C1016    1.0000 0.63320  0.90130  0.23890  Biso   1.000  C
  H767     1.0000 0.60950  0.90520  0.23570  Biso   1.000  H
  C1017    1.0000 0.62760  0.86130  0.24050  Biso   1.000  C
  H768     1.0000 0.59990  0.83760  0.23890  Biso   1.000  H
  C1018    1.0000 0.66120  0.85540  0.24430  Biso   1.000  C
  H769     1.0000 0.65670  0.82750  0.24510  Biso   1.000  H
  C1019    1.0000 0.76700  0.90100  0.31300  Biso   1.000  C
  C1020    1.0000 0.80750  0.90750  0.32400  Biso   1.000  C
  H770     1.0000 0.82450  0.90460  0.30010  Biso   1.000  H
  C1021    1.0000 0.82140  0.91880  0.37290  Biso   1.000  C
  H771     1.0000 0.84850  0.92350  0.38150  Biso   1.000  H
  C1022    1.0000 0.79780  0.92330  0.40770  Biso   1.000  C
  H772     1.0000 0.80800  0.92990  0.44000  Biso   1.000  H
  C1023    1.0000 0.75900  0.91810  0.39630  Biso   1.000  C
  H773     1.0000 0.74270  0.92230  0.42020  Biso   1.000  H
  C1024    1.0000 0.74350  0.90640  0.34810  Biso   1.000  C
  H774     1.0000 0.71640  0.90220  0.34010  Biso   1.000  H
  C1025    1.0000 0.46190  0.63080  0.22550  Biso   1.000  C
  C1026    1.0000 0.46570  0.63030  0.17660  Biso   1.000  C
  H775     1.0000 0.47660  0.61440  0.16170  Biso   1.000  H
  C1027    1.0000 0.45330  0.65390  0.14870  Biso   1.000  C
  H776     1.0000 0.45680  0.65450  0.11440  Biso   1.000  H
  C1028    1.0000 0.43710  0.67510  0.16720  Biso   1.000  C
  H777     1.0000 0.42860  0.69030  0.14650  Biso   1.000  H
  C1029    1.0000 0.43220  0.67580  0.21520  Biso   1.000  C
  H778     1.0000 0.42050  0.69160  0.22880  Biso   1.000  H
  C1030    1.0000 0.44460  0.65250  0.24600  Biso   1.000  C
  H779     1.0000 0.44090  0.65210  0.28020  Biso   1.000  H
  C1031    1.0000 0.46040  0.55390  0.23570  Biso   1.000  C
  C1032    1.0000 0.48510  0.53840  0.22120  Biso   1.000  C
  H780     1.0000 0.51480  0.55480  0.22530  Biso   1.000  H
  C1033    1.0000 0.46720  0.49760  0.19990  Biso   1.000  C
  H781     1.0000 0.48490  0.48740  0.18840  Biso   1.000  H
  C1034    1.0000 0.42450  0.47340  0.19610  Biso   1.000  C
  H782     1.0000 0.41190  0.44470  0.18640  Biso   1.000  H
  C1035    1.0000 0.39980  0.49090  0.20640  Biso   1.000  C
  H783     1.0000 0.37060  0.47620  0.19850  Biso   1.000  H
  C1036    1.0000 0.41790  0.53050  0.22850  Biso   1.000  C
  H784     1.0000 0.40040  0.54140  0.23870  Biso   1.000  H
  O28      1.0000 0.86290  0.97520  0.22320  Biso   1.000  O
  Ag29     1.0000 0.46413  0.25765  0.51940  Biso   1.000  Ag
  P57      1.0000 0.41541  0.21770  0.58495  Biso   1.000  P
  P58      1.0000 0.14674  0.93701  0.59983  Biso   1.000  P
  C1037    1.0000 0.33917  0.02583  0.57723  Biso   1.000  C
  C1038    1.0000 0.36057  0.07313  0.58323  Biso   1.000  C
  C1039    1.0000 0.37407  0.09733  0.54063  Biso   1.000  C
  H785     1.0000 0.37187  0.08373  0.51053  Biso   1.000  H
  C1040    1.0000 0.39037  0.14033  0.54113  Biso   1.000  C
  H786     1.0000 0.39867  0.15583  0.51163  Biso   1.000  H
  C1041    1.0000 0.39497  0.16133  0.58583  Biso   1.000  C
  C1042    1.0000 0.38357  0.13793  0.62713  Biso   1.000  C
  H787     1.0000 0.38727  0.15113  0.65793  Biso   1.000  H
  C1043    1.0000 0.36597  0.09343  0.62423  Biso   1.000  C
  H788     1.0000 0.35787  0.07763  0.65353  Biso   1.000  H
  C1044    1.0000 0.29197  0.00463  0.58313  Biso   1.000  C
  C1045    1.0000 0.26727  0.99293  0.54273  Biso   1.000  C
  H789     1.0000 0.27957  0.99763  0.51133  Biso   1.000  H
  C1046    1.0000 0.22307  0.97363  0.54803  Biso   1.000  C
  H790     1.0000 0.20637  0.96683  0.51943  Biso   1.000  H
  C1047    1.0000 0.20337  0.96433  0.59163  Biso   1.000  C
  C1048    1.0000 0.22777  0.97713  0.63183  Biso   1.000  C
  H791     1.0000 0.21487  0.97283  0.66283  Biso   1.000  H
  C1049    1.0000 0.27127  0.99663  0.62863  Biso   1.000  C
  H792     1.0000 0.28757  0.00463  0.65753  Biso   1.000  H
  C1050    1.0000 0.36917  0.22283  0.58053  Biso   1.000  C
  C1051    1.0000 0.37407  0.26323  0.58043  Biso   1.000  C
  H793     1.0000 0.40137  0.28733  0.58403  Biso   1.000  H
  C1052    1.0000 0.33897  0.26823  0.57513  Biso   1.000  C
  H794     1.0000 0.34267  0.29583  0.57343  Biso   1.000  H
  C1053    1.0000 0.29987  0.23463  0.57223  Biso   1.000  C
  H795     1.0000 0.27617  0.23853  0.56903  Biso   1.000  H
  C1054    1.0000 0.29427  0.19463  0.57383  Biso   1.000  C
  H796     1.0000 0.26657  0.17093  0.57223  Biso   1.000  H
  C1055    1.0000 0.32787  0.18873  0.57763  Biso   1.000  C
  H797     1.0000 0.32337  0.16083  0.57843  Biso   1.000  H
  C1056    1.0000 0.43367  0.23433  0.64633  Biso   1.000  C
  C1057    1.0000 0.47417  0.24083  0.65733  Biso   1.000  C
  H798     1.0000 0.49117  0.23793  0.63343  Biso   1.000  H
  C1058    1.0000 0.48807  0.25213  0.70623  Biso   1.000  C
  H799     1.0000 0.51517  0.25683  0.71483  Biso   1.000  H
  C1059    1.0000 0.46447  0.25663  0.74103  Biso   1.000  C
  H800     1.0000 0.47467  0.26323  0.77333  Biso   1.000  H
  C1060    1.0000 0.42567  0.25143  0.72963  Biso   1.000  C
  H801     1.0000 0.40937  0.25563  0.75353  Biso   1.000  H
  C1061    1.0000 0.41017  0.23973  0.68143  Biso   1.000  C
  H802     1.0000 0.38307  0.23553  0.67343  Biso   1.000  H
  C1062    1.0000 0.12857  0.96413  0.55883  Biso   1.000  C
  C1063    1.0000 0.13237  0.96363  0.50993  Biso   1.000  C
  H803     1.0000 0.14327  0.94773  0.49503  Biso   1.000  H
  C1064    1.0000 0.11997  0.98723  0.48203  Biso   1.000  C
  H804     1.0000 0.12347  0.98783  0.44773  Biso   1.000  H
  C1065    1.0000 0.10377  0.00843  0.50053  Biso   1.000  C
  H805     1.0000 0.09527  0.02363  0.47983  Biso   1.000  H
  C1066    1.0000 0.09887  0.00913  0.54853  Biso   1.000  C
  H806     1.0000 0.08717  0.02493  0.56213  Biso   1.000  H
  C1067    1.0000 0.11127  0.98583  0.57933  Biso   1.000  C
  H807     1.0000 0.10757  0.98543  0.61353  Biso   1.000  H
  C1068    1.0000 0.12707  0.88723  0.56903  Biso   1.000  C
  C1069    1.0000 0.15177  0.87173  0.55453  Biso   1.000  C
  H808     1.0000 0.18147  0.88813  0.55863  Biso   1.000  H
  C1070    1.0000 0.13387  0.83093  0.53323  Biso   1.000  C
  H809     1.0000 0.15157  0.82073  0.52173  Biso   1.000  H
  C1071    1.0000 0.09117  0.80673  0.52943  Biso   1.000  C
  H810     1.0000 0.07857  0.77803  0.51973  Biso   1.000  H
  C1072    1.0000 0.06647  0.82423  0.53973  Biso   1.000  C
  H811     1.0000 0.03727  0.80953  0.53183  Biso   1.000  H
  C1073    1.0000 0.08457  0.86383  0.56183  Biso   1.000  C
  H812     1.0000 0.06707  0.87473  0.57203  Biso   1.000  H
  O29      1.0000 0.52957  0.30853  0.55653  Biso   1.000  O
  Ag30     1.0000 0.13079  0.59099  0.85274  Biso   1.000  Ag
  P59      1.0000 0.08207  0.55104  0.91829  Biso   1.000  P
  P60      1.0000 0.81340  0.27035  0.93317  Biso   1.000  P
  C1074    1.0000 0.00583  0.35917  0.91057  Biso   1.000  C
  C1075    1.0000 0.02723  0.40647  0.91657  Biso   1.000  C
  C1076    1.0000 0.04073  0.43067  0.87397  Biso   1.000  C
  H813     1.0000 0.03853  0.41707  0.84387  Biso   1.000  H
  C1077    1.0000 0.05703  0.47367  0.87447  Biso   1.000  C
  H814     1.0000 0.06533  0.48917  0.84497  Biso   1.000  H
  C1078    1.0000 0.06163  0.49467  0.91917  Biso   1.000  C
  C1079    1.0000 0.05023  0.47127  0.96047  Biso   1.000  C
  H815     1.0000 0.05393  0.48447  0.99127  Biso   1.000  H
  C1080    1.0000 0.03263  0.42677  0.95757  Biso   1.000  C
  H816     1.0000 0.02453  0.41097  0.98687  Biso   1.000  H
  C1081    1.0000 0.95863  0.33797  0.91647  Biso   1.000  C
  C1082    1.0000 0.93393  0.32627  0.87607  Biso   1.000  C
  H817     1.0000 0.94623  0.33097  0.84467  Biso   1.000  H
  C1083    1.0000 0.88973  0.30697  0.88137  Biso   1.000  C
  H818     1.0000 0.87303  0.30017  0.85277  Biso   1.000  H
  C1084    1.0000 0.87003  0.29767  0.92497  Biso   1.000  C
  C1085    1.0000 0.89443  0.31047  0.96517  Biso   1.000  C
  H819     1.0000 0.88153  0.30617  0.99617  Biso   1.000  H
  C1086    1.0000 0.93793  0.32997  0.96197  Biso   1.000  C
  H820     1.0000 0.95423  0.33797  0.99087  Biso   1.000  H
  C1087    1.0000 0.03583  0.55617  0.91387  Biso   1.000  C
  C1088    1.0000 0.04073  0.59657  0.91377  Biso   1.000  C
  H821     1.0000 0.06803  0.62067  0.91737  Biso   1.000  H
  C1089    1.0000 0.00563  0.60157  0.90847  Biso   1.000  C
  H822     1.0000 0.00933  0.62917  0.90677  Biso   1.000  H
  C1090    1.0000 0.96653  0.56797  0.90557  Biso   1.000  C
  H823     1.0000 0.94283  0.57187  0.90237  Biso   1.000  H
  C1091    1.0000 0.96093  0.52797  0.90717  Biso   1.000  C
  H824     1.0000 0.93323  0.50427  0.90557  Biso   1.000  H
  C1092    1.0000 0.99453  0.52207  0.91097  Biso   1.000  C
  H825     1.0000 0.99003  0.49417  0.91177  Biso   1.000  H
  C1093    1.0000 0.10033  0.56767  0.97967  Biso   1.000  C
  C1094    1.0000 0.14083  0.57417  0.99067  Biso   1.000  C
  H826     1.0000 0.15783  0.57127  0.96677  Biso   1.000  H
  C1095    1.0000 0.15473  0.58547  0.03957  Biso   1.000  C
  H827     1.0000 0.18183  0.59017  0.04817  Biso   1.000  H
  C1096    1.0000 0.13113  0.58997  0.07437  Biso   1.000  C
  H828     1.0000 0.14133  0.59657  0.10667  Biso   1.000  H
  C1097    1.0000 0.09233  0.58477  0.06297  Biso   1.000  C
  H829     1.0000 0.07603  0.58897  0.08687  Biso   1.000  H
  C1098    1.0000 0.07683  0.57307  0.01477  Biso   1.000  C
  H830     1.0000 0.04973  0.56887  0.00677  Biso   1.000  H
  C1099    1.0000 0.79523  0.29747  0.89217  Biso   1.000  C
  C1100    1.0000 0.79903  0.29697  0.84327  Biso   1.000  C
  H831     1.0000 0.80993  0.28107  0.82837  Biso   1.000  H
  C1101    1.0000 0.78663  0.32057  0.81537  Biso   1.000  C
  H832     1.0000 0.79013  0.32117  0.78107  Biso   1.000  H
  C1102    1.0000 0.77043  0.34177  0.83387  Biso   1.000  C
  H833     1.0000 0.76193  0.35697  0.81317  Biso   1.000  H
  C1103    1.0000 0.76553  0.34247  0.88187  Biso   1.000  C
  H834     1.0000 0.75383  0.35827  0.89547  Biso   1.000  H
  C1104    1.0000 0.77793  0.31917  0.91267  Biso   1.000  C
  H835     1.0000 0.77423  0.31877  0.94687  Biso   1.000  H
  C1105    1.0000 0.79373  0.22057  0.90237  Biso   1.000  C
  C1106    1.0000 0.81843  0.20507  0.88787  Biso   1.000  C
  H836     1.0000 0.84813  0.22147  0.89197  Biso   1.000  H
  C1107    1.0000 0.80053  0.16427  0.86657  Biso   1.000  C
  H837     1.0000 0.81823  0.15407  0.85507  Biso   1.000  H
  C1108    1.0000 0.75783  0.14007  0.86277  Biso   1.000  C
  H838     1.0000 0.74523  0.11137  0.85307  Biso   1.000  H
  C1109    1.0000 0.73313  0.15757  0.87307  Biso   1.000  C
  H839     1.0000 0.70393  0.14287  0.86517  Biso   1.000  H
  C1110    1.0000 0.75123  0.19717  0.89517  Biso   1.000  C
  H840     1.0000 0.73373  0.20807  0.90537  Biso   1.000  H
  O30      1.0000 0.19623  0.64187  0.88987  Biso   1.000  O
  Ag31     1.0000 0.12686  0.20254  0.18607  Biso   1.000  Ag
  P61      1.0000 0.13563  0.25126  0.25162  Biso   1.000  P
  P62      1.0000 0.12361  0.51993  0.26650  Biso   1.000  P
  C1111    1.0000 0.02000  0.32750  0.24390  Biso   1.000  C
  C1112    1.0000 0.04590  0.30610  0.24990  Biso   1.000  C
  C1113    1.0000 0.05660  0.29260  0.20730  Biso   1.000  C
  H841     1.0000 0.04520  0.29480  0.17720  Biso   1.000  H
  C1114    1.0000 0.08330  0.27630  0.20780  Biso   1.000  C
  H842     1.0000 0.09050  0.26800  0.17830  Biso   1.000  H
  C1115    1.0000 0.09970  0.27170  0.25250  Biso   1.000  C
  C1116    1.0000 0.08770  0.28310  0.29380  Biso   1.000  C
  H843     1.0000 0.09720  0.27940  0.32460  Biso   1.000  H
  C1117    1.0000 0.06080  0.30070  0.29090  Biso   1.000  C
  H844     1.0000 0.05310  0.30880  0.32020  Biso   1.000  H
  C1118    1.0000 0.04600  0.37470  0.24980  Biso   1.000  C
  C1119    1.0000 0.05900  0.39940  0.20940  Biso   1.000  C
  H845     1.0000 0.05140  0.38710  0.17800  Biso   1.000  H
  C1120    1.0000 0.08390  0.44360  0.21470  Biso   1.000  C
  H846     1.0000 0.09380  0.46030  0.18610  Biso   1.000  H
  C1121    1.0000 0.09430  0.46330  0.25830  Biso   1.000  C
  C1122    1.0000 0.08270  0.43890  0.29850  Biso   1.000  C
  H847     1.0000 0.09130  0.45180  0.32950  Biso   1.000  H
  C1123    1.0000 0.05870  0.39540  0.29530  Biso   1.000  C
  H848     1.0000 0.05040  0.37910  0.32420  Biso   1.000  H
  C1124    1.0000 0.18700  0.29750  0.24720  Biso   1.000  C
  C1125    1.0000 0.22250  0.29260  0.24710  Biso   1.000  C
  H849     1.0000 0.21930  0.26530  0.25070  Biso   1.000  H
  C1126    1.0000 0.26260  0.32770  0.24180  Biso   1.000  C
  H850     1.0000 0.28650  0.32400  0.24010  Biso   1.000  H
  C1127    1.0000 0.26810  0.36680  0.23890  Biso   1.000  C
  H851     1.0000 0.29570  0.39050  0.23570  Biso   1.000  H
  C1128    1.0000 0.23370  0.37240  0.24050  Biso   1.000  C
  H852     1.0000 0.23770  0.40010  0.23890  Biso   1.000  H
  C1129    1.0000 0.19420  0.33880  0.24430  Biso   1.000  C
  H853     1.0000 0.17080  0.34330  0.24510  Biso   1.000  H
  C1130    1.0000 0.13400  0.23300  0.31300  Biso   1.000  C
  C1131    1.0000 0.10000  0.19250  0.32400  Biso   1.000  C
  H854     1.0000 0.08010  0.17550  0.30010  Biso   1.000  H
  C1132    1.0000 0.09740  0.17860  0.37290  Biso   1.000  C
  H855     1.0000 0.07500  0.15150  0.38150  Biso   1.000  H
  C1133    1.0000 0.12550  0.20220  0.40770  Biso   1.000  C
  H856     1.0000 0.12190  0.19200  0.44000  Biso   1.000  H
  C1134    1.0000 0.15910  0.24100  0.39630  Biso   1.000  C
  H857     1.0000 0.17960  0.25730  0.42020  Biso   1.000  H
  C1135    1.0000 0.16290  0.25650  0.34810  Biso   1.000  C
  H858     1.0000 0.18580  0.28360  0.34010  Biso   1.000  H
  C1136    1.0000 0.16890  0.53810  0.22550  Biso   1.000  C
  C1137    1.0000 0.16460  0.53430  0.17660  Biso   1.000  C
  H859     1.0000 0.13780  0.52340  0.16170  Biso   1.000  H
  C1138    1.0000 0.20060  0.54670  0.14870  Biso   1.000  C
  H860     1.0000 0.19770  0.54320  0.11440  Biso   1.000  H
  C1139    1.0000 0.23800  0.56290  0.16720  Biso   1.000  C
  H861     1.0000 0.26170  0.57140  0.14650  Biso   1.000  H
  C1140    1.0000 0.24360  0.56780  0.21520  Biso   1.000  C
  H862     1.0000 0.27110  0.57950  0.22880  Biso   1.000  H
  C1141    1.0000 0.20790  0.55540  0.24600  Biso   1.000  C
  H863     1.0000 0.21120  0.55910  0.28020  Biso   1.000  H
  C1142    1.0000 0.09350  0.53960  0.23570  Biso   1.000  C
  C1143    1.0000 0.05330  0.51490  0.22120  Biso   1.000  C
  H864     1.0000 0.04000  0.48520  0.22530  Biso   1.000  H
  C1144    1.0000 0.03040  0.53280  0.19990  Biso   1.000  C
  H865     1.0000 0.00250  0.51510  0.18840  Biso   1.000  H
  C1145    1.0000 0.04890  0.57550  0.19610  Biso   1.000  C
  H866     1.0000 0.03280  0.58810  0.18640  Biso   1.000  H
  C1146    1.0000 0.09110  0.60020  0.20640  Biso   1.000  C
  H867     1.0000 0.10560  0.62940  0.19850  Biso   1.000  H
  C1147    1.0000 0.11260  0.58210  0.22850  Biso   1.000  C
  H868     1.0000 0.14100  0.59960  0.23870  Biso   1.000  H
  O31      1.0000 0.11230  0.13710  0.22320  Biso   1.000  O
  Ag32     1.0000 0.79353  0.53587  0.51940  Biso   1.000  Ag
  P63      1.0000 0.80230  0.58459  0.58495  Biso   1.000  P
  P64      1.0000 0.79028  0.85326  0.59983  Biso   1.000  P
  C1148    1.0000 0.68667  0.66083  0.57723  Biso   1.000  C
  C1149    1.0000 0.71257  0.63943  0.58323  Biso   1.000  C
  C1150    1.0000 0.72327  0.62593  0.54063  Biso   1.000  C
  H869     1.0000 0.71187  0.62813  0.51053  Biso   1.000  H
  C1151    1.0000 0.74997  0.60963  0.54113  Biso   1.000  C
  H870     1.0000 0.75717  0.60133  0.51163  Biso   1.000  H
  C1152    1.0000 0.76637  0.60503  0.58583  Biso   1.000  C
  C1153    1.0000 0.75437  0.61643  0.62713  Biso   1.000  C
  H871     1.0000 0.76387  0.61273  0.65793  Biso   1.000  H
  C1154    1.0000 0.72747  0.63403  0.62423  Biso   1.000  C
  H872     1.0000 0.71977  0.64213  0.65353  Biso   1.000  H
  C1155    1.0000 0.71267  0.70803  0.58313  Biso   1.000  C
  C1156    1.0000 0.72567  0.73273  0.54273  Biso   1.000  C
  H873     1.0000 0.71807  0.72043  0.51133  Biso   1.000  H
  C1157    1.0000 0.75057  0.77693  0.54803  Biso   1.000  C
  H874     1.0000 0.76047  0.79363  0.51943  Biso   1.000  H
  C1158    1.0000 0.76097  0.79663  0.59163  Biso   1.000  C
  C1159    1.0000 0.74937  0.77223  0.63183  Biso   1.000  C
  H875     1.0000 0.75797  0.78513  0.66283  Biso   1.000  H
  C1160    1.0000 0.72537  0.72873  0.62863  Biso   1.000  C
  H876     1.0000 0.71707  0.71243  0.65753  Biso   1.000  H
  C1161    1.0000 0.85367  0.63083  0.58053  Biso   1.000  C
  C1162    1.0000 0.88917  0.62593  0.58043  Biso   1.000  C
  H877     1.0000 0.88597  0.59863  0.58403  Biso   1.000  H
  C1163    1.0000 0.92927  0.66103  0.57513  Biso   1.000  C
  H878     1.0000 0.95317  0.65733  0.57343  Biso   1.000  H
  C1164    1.0000 0.93477  0.70013  0.57223  Biso   1.000  C
  H879     1.0000 0.96237  0.72383  0.56903  Biso   1.000  H
  C1165    1.0000 0.90037  0.70573  0.57383  Biso   1.000  C
  H880     1.0000 0.90437  0.73343  0.57223  Biso   1.000  H
  C1166    1.0000 0.86087  0.67213  0.57763  Biso   1.000  C
  H881     1.0000 0.83747  0.67663  0.57843  Biso   1.000  H
  C1167    1.0000 0.80067  0.56633  0.64633  Biso   1.000  C
  C1168    1.0000 0.76667  0.52583  0.65733  Biso   1.000  C
  H882     1.0000 0.74677  0.50883  0.63343  Biso   1.000  H
  C1169    1.0000 0.76407  0.51193  0.70623  Biso   1.000  C
  H883     1.0000 0.74167  0.48483  0.71483  Biso   1.000  H
  C1170    1.0000 0.79217  0.53553  0.74103  Biso   1.000  C
  H884     1.0000 0.78857  0.52533  0.77333  Biso   1.000  H
  C1171    1.0000 0.82577  0.57433  0.72963  Biso   1.000  C
  H885     1.0000 0.84627  0.59063  0.75353  Biso   1.000  H
  C1172    1.0000 0.82957  0.58983  0.68143  Biso   1.000  C
  H886     1.0000 0.85247  0.61693  0.67343  Biso   1.000  H
  C1173    1.0000 0.83557  0.87143  0.55883  Biso   1.000  C
  C1174    1.0000 0.83127  0.86763  0.50993  Biso   1.000  C
  H887     1.0000 0.80447  0.85673  0.49503  Biso   1.000  H
  C1175    1.0000 0.86727  0.88003  0.48203  Biso   1.000  C
  H888     1.0000 0.86437  0.87653  0.44773  Biso   1.000  H
  C1176    1.0000 0.90467  0.89623  0.50053  Biso   1.000  C
  H889     1.0000 0.92837  0.90473  0.47983  Biso   1.000  H
  C1177    1.0000 0.91027  0.90113  0.54853  Biso   1.000  C
  H890     1.0000 0.93777  0.91283  0.56213  Biso   1.000  H
  C1178    1.0000 0.87457  0.88873  0.57933  Biso   1.000  C
  H891     1.0000 0.87787  0.89243  0.61353  Biso   1.000  H
  C1179    1.0000 0.76017  0.87293  0.56903  Biso   1.000  C
  C1180    1.0000 0.71997  0.84823  0.55453  Biso   1.000  C
  H892     1.0000 0.70667  0.81853  0.55863  Biso   1.000  H
  C1181    1.0000 0.69707  0.86613  0.53323  Biso   1.000  C
  H893     1.0000 0.66917  0.84843  0.52173  Biso   1.000  H
  C1182    1.0000 0.71557  0.90883  0.52943  Biso   1.000  C
  H894     1.0000 0.69947  0.92143  0.51973  Biso   1.000  H
  C1183    1.0000 0.75777  0.93353  0.53973  Biso   1.000  C
  H895     1.0000 0.77227  0.96273  0.53183  Biso   1.000  H
  C1184    1.0000 0.77927  0.91543  0.56183  Biso   1.000  C
  H896     1.0000 0.80767  0.93293  0.57203  Biso   1.000  H
  O32      1.0000 0.77897  0.47043  0.55653  Biso   1.000  O
  Ag33     1.0000 0.46019  0.86921  0.85274  Biso   1.000  Ag
  P65      1.0000 0.46896  0.91793  0.91829  Biso   1.000  P
  P66      1.0000 0.45694  0.18660  0.93317  Biso   1.000  P
  C1185    1.0000 0.35333  0.99417  0.91057  Biso   1.000  C
  C1186    1.0000 0.37923  0.97277  0.91657  Biso   1.000  C
  C1187    1.0000 0.38993  0.95927  0.87397  Biso   1.000  C
  H897     1.0000 0.37853  0.96147  0.84387  Biso   1.000  H
  C1188    1.0000 0.41663  0.94297  0.87447  Biso   1.000  C
  H898     1.0000 0.42383  0.93467  0.84497  Biso   1.000  H
  C1189    1.0000 0.43303  0.93837  0.91917  Biso   1.000  C
  C1190    1.0000 0.42103  0.94977  0.96047  Biso   1.000  C
  H899     1.0000 0.43053  0.94607  0.99127  Biso   1.000  H
  C1191    1.0000 0.39413  0.96737  0.95757  Biso   1.000  C
  H900     1.0000 0.38643  0.97547  0.98687  Biso   1.000  H
  C1192    1.0000 0.37933  0.04137  0.91647  Biso   1.000  C
  C1193    1.0000 0.39233  0.06607  0.87607  Biso   1.000  C
  H901     1.0000 0.38473  0.05377  0.84467  Biso   1.000  H
  C1194    1.0000 0.41723  0.11027  0.88137  Biso   1.000  C
  H902     1.0000 0.42713  0.12697  0.85277  Biso   1.000  H
  C1195    1.0000 0.42763  0.12997  0.92497  Biso   1.000  C
  C1196    1.0000 0.41603  0.10557  0.96517  Biso   1.000  C
  H903     1.0000 0.42463  0.11847  0.99617  Biso   1.000  H
  C1197    1.0000 0.39203  0.06207  0.96197  Biso   1.000  C
  H904     1.0000 0.38373  0.04577  0.99087  Biso   1.000  H
  C1198    1.0000 0.52033  0.96417  0.91387  Biso   1.000  C
  C1199    1.0000 0.55583  0.95927  0.91377  Biso   1.000  C
  H905     1.0000 0.55263  0.93197  0.91737  Biso   1.000  H
  C1200    1.0000 0.59593  0.99437  0.90847  Biso   1.000  C
  H906     1.0000 0.61983  0.99067  0.90677  Biso   1.000  H
  C1201    1.0000 0.60143  0.03347  0.90557  Biso   1.000  C
  H907     1.0000 0.62903  0.05717  0.90237  Biso   1.000  H
  C1202    1.0000 0.56703  0.03907  0.90717  Biso   1.000  C
  H908     1.0000 0.57103  0.06677  0.90557  Biso   1.000  H
  C1203    1.0000 0.52753  0.00547  0.91097  Biso   1.000  C
  H909     1.0000 0.50413  0.00997  0.91177  Biso   1.000  H
  C1204    1.0000 0.46733  0.89967  0.97967  Biso   1.000  C
  C1205    1.0000 0.43333  0.85917  0.99067  Biso   1.000  C
  H910     1.0000 0.41343  0.84217  0.96677  Biso   1.000  H
  C1206    1.0000 0.43073  0.84527  0.03957  Biso   1.000  C
  H911     1.0000 0.40833  0.81817  0.04817  Biso   1.000  H
  C1207    1.0000 0.45883  0.86887  0.07437  Biso   1.000  C
  H912     1.0000 0.45523  0.85867  0.10667  Biso   1.000  H
  C1208    1.0000 0.49243  0.90767  0.06297  Biso   1.000  C
  H913     1.0000 0.51293  0.92397  0.08687  Biso   1.000  H
  C1209    1.0000 0.49623  0.92317  0.01477  Biso   1.000  C
  H914     1.0000 0.51913  0.95027  0.00677  Biso   1.000  H
  C1210    1.0000 0.50223  0.20477  0.89217  Biso   1.000  C
  C1211    1.0000 0.49793  0.20097  0.84327  Biso   1.000  C
  H915     1.0000 0.47113  0.19007  0.82837  Biso   1.000  H
  C1212    1.0000 0.53393  0.21337  0.81537  Biso   1.000  C
  H916     1.0000 0.53103  0.20987  0.78107  Biso   1.000  H
  C1213    1.0000 0.57133  0.22957  0.83387  Biso   1.000  C
  H917     1.0000 0.59503  0.23807  0.81317  Biso   1.000  H
  C1214    1.0000 0.57693  0.23447  0.88187  Biso   1.000  C
  H918     1.0000 0.60443  0.24617  0.89547  Biso   1.000  H
  C1215    1.0000 0.54123  0.22207  0.91267  Biso   1.000  C
  H919     1.0000 0.54453  0.22577  0.94687  Biso   1.000  H
  C1216    1.0000 0.42683  0.20627  0.90237  Biso   1.000  C
  C1217    1.0000 0.38663  0.18157  0.88787  Biso   1.000  C
  H920     1.0000 0.37333  0.15187  0.89197  Biso   1.000  H
  C1218    1.0000 0.36373  0.19947  0.86657  Biso   1.000  C
  H921     1.0000 0.33583  0.18177  0.85507  Biso   1.000  H
  C1219    1.0000 0.38223  0.24217  0.86277  Biso   1.000  C
  H922     1.0000 0.36613  0.25477  0.85307  Biso   1.000  H
  C1220    1.0000 0.42443  0.26687  0.87307  Biso   1.000  C
  H923     1.0000 0.43893  0.29607  0.86517  Biso   1.000  H
  C1221    1.0000 0.44593  0.24877  0.89517  Biso   1.000  C
  H924     1.0000 0.47433  0.26627  0.90537  Biso   1.000  H
  O33      1.0000 0.44563  0.80377  0.88987  Biso   1.000  O
  Ag34     1.0000 0.07568  0.87314  0.18607  Biso   1.000  Ag
  P67      1.0000 0.11563  0.86437  0.25162  Biso   1.000  P
  P68      1.0000 0.39632  0.87639  0.26650  Biso   1.000  P
  C1222    1.0000 0.30750  0.98000  0.24390  Biso   1.000  C
  C1223    1.0000 0.26020  0.95410  0.24990  Biso   1.000  C
  C1224    1.0000 0.23600  0.94340  0.20730  Biso   1.000  C
  H925     1.0000 0.24960  0.95480  0.17720  Biso   1.000  H
  C1225    1.0000 0.19300  0.91670  0.20780  Biso   1.000  C
  H926     1.0000 0.17750  0.90950  0.17830  Biso   1.000  H
  C1226    1.0000 0.17200  0.90030  0.25250  Biso   1.000  C
  C1227    1.0000 0.19540  0.91230  0.29380  Biso   1.000  C
  H927     1.0000 0.18220  0.90280  0.32460  Biso   1.000  H
  C1228    1.0000 0.23990  0.93920  0.29090  Biso   1.000  C
  H928     1.0000 0.25570  0.94690  0.32020  Biso   1.000  H
  C1229    1.0000 0.32870  0.95400  0.24980  Biso   1.000  C
  C1230    1.0000 0.34040  0.94100  0.20940  Biso   1.000  C
  H929     1.0000 0.33570  0.94860  0.17800  Biso   1.000  H
  C1231    1.0000 0.35970  0.91610  0.21470  Biso   1.000  C
  H930     1.0000 0.36650  0.90620  0.18610  Biso   1.000  H
  C1232    1.0000 0.36900  0.90570  0.25830  Biso   1.000  C
  C1233    1.0000 0.35620  0.91730  0.29850  Biso   1.000  C
  H931     1.0000 0.36050  0.90870  0.32950  Biso   1.000  H
  C1234    1.0000 0.33670  0.94130  0.29530  Biso   1.000  C
  H932     1.0000 0.32870  0.94960  0.32420  Biso   1.000  H
  C1235    1.0000 0.11050  0.81300  0.24720  Biso   1.000  C
  C1236    1.0000 0.07010  0.77750  0.24710  Biso   1.000  C
  H933     1.0000 0.04600  0.78070  0.25070  Biso   1.000  H
  C1237    1.0000 0.06510  0.73740  0.24180  Biso   1.000  C
  H934     1.0000 0.03750  0.71350  0.24010  Biso   1.000  H
  C1238    1.0000 0.09870  0.73190  0.23890  Biso   1.000  C
  H935     1.0000 0.09480  0.70430  0.23570  Biso   1.000  H
  C1239    1.0000 0.13870  0.76630  0.24050  Biso   1.000  C
  H936     1.0000 0.16240  0.76230  0.23890  Biso   1.000  H
  C1240    1.0000 0.14460  0.80580  0.24430  Biso   1.000  C
  H937     1.0000 0.17250  0.82920  0.24510  Biso   1.000  H
  C1241    1.0000 0.09900  0.86600  0.31300  Biso   1.000  C
  C1242    1.0000 0.09250  0.90000  0.32400  Biso   1.000  C
  H938     1.0000 0.09540  0.91990  0.30010  Biso   1.000  H
  C1243    1.0000 0.08120  0.90260  0.37290  Biso   1.000  C
  H939     1.0000 0.07650  0.92500  0.38150  Biso   1.000  H
  C1244    1.0000 0.07670  0.87450  0.40770  Biso   1.000  C
  H940     1.0000 0.07010  0.87810  0.44000  Biso   1.000  H
  C1245    1.0000 0.08190  0.84090  0.39630  Biso   1.000  C
  H941     1.0000 0.07770  0.82040  0.42020  Biso   1.000  H
  C1246    1.0000 0.09360  0.83710  0.34810  Biso   1.000  C
  H942     1.0000 0.09780  0.81420  0.34010  Biso   1.000  H
  C1247    1.0000 0.36920  0.83110  0.22550  Biso   1.000  C
  C1248    1.0000 0.36970  0.83540  0.17660  Biso   1.000  C
  H943     1.0000 0.38560  0.86220  0.16170  Biso   1.000  H
  C1249    1.0000 0.34610  0.79940  0.14870  Biso   1.000  C
  H944     1.0000 0.34550  0.80230  0.11440  Biso   1.000  H
  C1250    1.0000 0.32490  0.76200  0.16720  Biso   1.000  C
  H945     1.0000 0.30970  0.73830  0.14650  Biso   1.000  H
  C1251    1.0000 0.32420  0.75640  0.21520  Biso   1.000  C
  H946     1.0000 0.30840  0.72890  0.22880  Biso   1.000  H
  C1252    1.0000 0.34750  0.79210  0.24600  Biso   1.000  C
  H947     1.0000 0.34790  0.78880  0.28020  Biso   1.000  H
  C1253    1.0000 0.44610  0.90650  0.23570  Biso   1.000  C
  C1254    1.0000 0.46160  0.94670  0.22120  Biso   1.000  C
  H948     1.0000 0.44520  0.96000  0.22530  Biso   1.000  H
  C1255    1.0000 0.50240  0.96960  0.19990  Biso   1.000  C
  H949     1.0000 0.51260  0.99750  0.18840  Biso   1.000  H
  C1256    1.0000 0.52660  0.95110  0.19610  Biso   1.000  C
  H950     1.0000 0.55530  0.96720  0.18640  Biso   1.000  H
  C1257    1.0000 0.50910  0.90890  0.20640  Biso   1.000  C
  H951     1.0000 0.52380  0.89440  0.19850  Biso   1.000  H
  C1258    1.0000 0.46950  0.88740  0.22850  Biso   1.000  C
  H952     1.0000 0.45860  0.85900  0.23870  Biso   1.000  H
  O34      1.0000 0.02480  0.88770  0.22320  Biso   1.000  O
  Ag35     1.0000 0.74235  0.20647  0.51940  Biso   1.000  Ag
  P69      1.0000 0.78230  0.19770  0.58495  Biso   1.000  P
  P70      1.0000 0.06299  0.20972  0.59983  Biso   1.000  P
  C1259    1.0000 0.97417  0.31333  0.57723  Biso   1.000  C
  C1260    1.0000 0.92687  0.28743  0.58323  Biso   1.000  C
  C1261    1.0000 0.90267  0.27673  0.54063  Biso   1.000  C
  H953     1.0000 0.91627  0.28813  0.51053  Biso   1.000  H
  C1262    1.0000 0.85967  0.25003  0.54113  Biso   1.000  C
  H954     1.0000 0.84417  0.24283  0.51163  Biso   1.000  H
  C1263    1.0000 0.83867  0.23363  0.58583  Biso   1.000  C
  C1264    1.0000 0.86207  0.24563  0.62713  Biso   1.000  C
  H955     1.0000 0.84887  0.23613  0.65793  Biso   1.000  H
  C1265    1.0000 0.90657  0.27253  0.62423  Biso   1.000  C
  H956     1.0000 0.92237  0.28023  0.65353  Biso   1.000  H
  C1266    1.0000 0.99537  0.28733  0.58313  Biso   1.000  C
  C1267    1.0000 0.00707  0.27433  0.54273  Biso   1.000  C
  H957     1.0000 0.00237  0.28193  0.51133  Biso   1.000  H
  C1268    1.0000 0.02637  0.24943  0.54803  Biso   1.000  C
  H958     1.0000 0.03317  0.23953  0.51943  Biso   1.000  H
  C1269    1.0000 0.03567  0.23903  0.59163  Biso   1.000  C
  C1270    1.0000 0.02287  0.25063  0.63183  Biso   1.000  C
  H959     1.0000 0.02717  0.24203  0.66283  Biso   1.000  H
  C1271    1.0000 0.00337  0.27463  0.62863  Biso   1.000  C
  H960     1.0000 0.99537  0.28293  0.65753  Biso   1.000  H
  C1272    1.0000 0.77717  0.14633  0.58053  Biso   1.000  C
  C1273    1.0000 0.73677  0.11083  0.58043  Biso   1.000  C
  H961     1.0000 0.71267  0.11403  0.58403  Biso   1.000  H
  C1274    1.0000 0.73177  0.07073  0.57513  Biso   1.000  C
  H962     1.0000 0.70417  0.04683  0.57343  Biso   1.000  H
  C1275    1.0000 0.76537  0.06523  0.57223  Biso   1.000  C
  H963     1.0000 0.76147  0.03763  0.56903  Biso   1.000  H
  C1276    1.0000 0.80537  0.09963  0.57383  Biso   1.000  C
  H964     1.0000 0.82907  0.09563  0.57223  Biso   1.000  H
  C1277    1.0000 0.81127  0.13913  0.57763  Biso   1.000  C
  H965     1.0000 0.83917  0.16253  0.57843  Biso   1.000  H
  C1278    1.0000 0.76567  0.19933  0.64633  Biso   1.000  C
  C1279    1.0000 0.75917  0.23333  0.65733  Biso   1.000  C
  H966     1.0000 0.76207  0.25323  0.63343  Biso   1.000  H
  C1280    1.0000 0.74787  0.23593  0.70623  Biso   1.000  C
  H967     1.0000 0.74317  0.25833  0.71483  Biso   1.000  H
  C1281    1.0000 0.74337  0.20783  0.74103  Biso   1.000  C
  H968     1.0000 0.73677  0.21143  0.77333  Biso   1.000  H
  C1282    1.0000 0.74857  0.17423  0.72963  Biso   1.000  C
  H969     1.0000 0.74437  0.15373  0.75353  Biso   1.000  H
  C1283    1.0000 0.76027  0.17043  0.68143  Biso   1.000  C
  H970     1.0000 0.76447  0.14753  0.67343  Biso   1.000  H
  C1284    1.0000 0.03587  0.16443  0.55883  Biso   1.000  C
  C1285    1.0000 0.03637  0.16873  0.50993  Biso   1.000  C
  H971     1.0000 0.05227  0.19553  0.49503  Biso   1.000  H
  C1286    1.0000 0.01277  0.13273  0.48203  Biso   1.000  C
  H972     1.0000 0.01217  0.13563  0.44773  Biso   1.000  H
  C1287    1.0000 0.99157  0.09533  0.50053  Biso   1.000  C
  H973     1.0000 0.97637  0.07163  0.47983  Biso   1.000  H
  C1288    1.0000 0.99087  0.08973  0.54853  Biso   1.000  C
  H974     1.0000 0.97507  0.06223  0.56213  Biso   1.000  H
  C1289    1.0000 0.01417  0.12543  0.57933  Biso   1.000  C
  H975     1.0000 0.01457  0.12213  0.61353  Biso   1.000  H
  C1290    1.0000 0.11277  0.23983  0.56903  Biso   1.000  C
  C1291    1.0000 0.12827  0.28003  0.55453  Biso   1.000  C
  H976     1.0000 0.11187  0.29333  0.55863  Biso   1.000  H
  C1292    1.0000 0.16907  0.30293  0.53323  Biso   1.000  C
  H977     1.0000 0.17927  0.33083  0.52173  Biso   1.000  H
  C1293    1.0000 0.19327  0.28443  0.52943  Biso   1.000  C
  H978     1.0000 0.22197  0.30053  0.51973  Biso   1.000  H
  C1294    1.0000 0.17577  0.24223  0.53973  Biso   1.000  C
  H979     1.0000 0.19047  0.22773  0.53183  Biso   1.000  H
  C1295    1.0000 0.13617  0.22073  0.56183  Biso   1.000  C
  H980     1.0000 0.12527  0.19233  0.57203  Biso   1.000  H
  O35      1.0000 0.69147  0.22103  0.55653  Biso   1.000  O
  Ag36     1.0000 0.40901  0.53981  0.85274  Biso   1.000  Ag
  P71      1.0000 0.44896  0.53104  0.91829  Biso   1.000  P
  P72      1.0000 0.72965  0.54306  0.93317  Biso   1.000  P
  C1296    1.0000 0.64083  0.64667  0.91057  Biso   1.000  C
  C1297    1.0000 0.59353  0.62077  0.91657  Biso   1.000  C
  C1298    1.0000 0.56933  0.61007  0.87397  Biso   1.000  C
  H981     1.0000 0.58293  0.62147  0.84387  Biso   1.000  H
  C1299    1.0000 0.52633  0.58337  0.87447  Biso   1.000  C
  H982     1.0000 0.51083  0.57617  0.84497  Biso   1.000  H
  C1300    1.0000 0.50533  0.56697  0.91917  Biso   1.000  C
  C1301    1.0000 0.52873  0.57897  0.96047  Biso   1.000  C
  H983     1.0000 0.51553  0.56947  0.99127  Biso   1.000  H
  C1302    1.0000 0.57323  0.60587  0.95757  Biso   1.000  C
  H984     1.0000 0.58903  0.61357  0.98687  Biso   1.000  H
  C1303    1.0000 0.66203  0.62067  0.91647  Biso   1.000  C
  C1304    1.0000 0.67373  0.60767  0.87607  Biso   1.000  C
  H985     1.0000 0.66903  0.61527  0.84467  Biso   1.000  H
  C1305    1.0000 0.69303  0.58277  0.88137  Biso   1.000  C
  H986     1.0000 0.69983  0.57287  0.85277  Biso   1.000  H
  C1306    1.0000 0.70233  0.57237  0.92497  Biso   1.000  C
  C1307    1.0000 0.68953  0.58397  0.96517  Biso   1.000  C
  H987     1.0000 0.69383  0.57537  0.99617  Biso   1.000  H
  C1308    1.0000 0.67003  0.60797  0.96197  Biso   1.000  C
  H988     1.0000 0.66203  0.61627  0.99087  Biso   1.000  H
  C1309    1.0000 0.44383  0.47967  0.91387  Biso   1.000  C
  C1310    1.0000 0.40343  0.44417  0.91377  Biso   1.000  C
  H989     1.0000 0.37933  0.44737  0.91737  Biso   1.000  H
  C1311    1.0000 0.39843  0.40407  0.90847  Biso   1.000  C
  H990     1.0000 0.37083  0.38017  0.90677  Biso   1.000  H
  C1312    1.0000 0.43203  0.39857  0.90557  Biso   1.000  C
  H991     1.0000 0.42813  0.37097  0.90237  Biso   1.000  H
  C1313    1.0000 0.47203  0.43297  0.90717  Biso   1.000  C
  H992     1.0000 0.49573  0.42897  0.90557  Biso   1.000  H
  C1314    1.0000 0.47793  0.47247  0.91097  Biso   1.000  C
  H993     1.0000 0.50583  0.49587  0.91177  Biso   1.000  H
  C1315    1.0000 0.43233  0.53267  0.97967  Biso   1.000  C
  C1316    1.0000 0.42583  0.56667  0.99067  Biso   1.000  C
  H994     1.0000 0.42873  0.58657  0.96677  Biso   1.000  H
  C1317    1.0000 0.41453  0.56927  0.03957  Biso   1.000  C
  H995     1.0000 0.40983  0.59167  0.04817  Biso   1.000  H
  C1318    1.0000 0.41003  0.54117  0.07437  Biso   1.000  C
  H996     1.0000 0.40343  0.54477  0.10667  Biso   1.000  H
  C1319    1.0000 0.41523  0.50757  0.06297  Biso   1.000  C
  H997     1.0000 0.41103  0.48707  0.08687  Biso   1.000  H
  C1320    1.0000 0.42693  0.50377  0.01477  Biso   1.000  C
  H998     1.0000 0.43113  0.48087  0.00677  Biso   1.000  H
  C1321    1.0000 0.70253  0.49777  0.89217  Biso   1.000  C
  C1322    1.0000 0.70303  0.50207  0.84327  Biso   1.000  C
  H999     1.0000 0.71893  0.52887  0.82837  Biso   1.000  H
  C1323    1.0000 0.67943  0.46607  0.81537  Biso   1.000  C
  H1000    1.0000 0.67883  0.46897  0.78107  Biso   1.000  H
  C1324    1.0000 0.65823  0.42867  0.83387  Biso   1.000  C
  H1001    1.0000 0.64303  0.40497  0.81317  Biso   1.000  H
  C1325    1.0000 0.65753  0.42307  0.88187  Biso   1.000  C
  H1002    1.0000 0.64173  0.39557  0.89547  Biso   1.000  H
  C1326    1.0000 0.68083  0.45877  0.91267  Biso   1.000  C
  H1003    1.0000 0.68123  0.45547  0.94687  Biso   1.000  H
  C1327    1.0000 0.77943  0.57317  0.90237  Biso   1.000  C
  C1328    1.0000 0.79493  0.61337  0.88787  Biso   1.000  C
  H1004    1.0000 0.77853  0.62667  0.89197  Biso   1.000  H
  C1329    1.0000 0.83573  0.63627  0.86657  Biso   1.000  C
  H1005    1.0000 0.84593  0.66417  0.85507  Biso   1.000  H
  C1330    1.0000 0.85993  0.61777  0.86277  Biso   1.000  C
  H1006    1.0000 0.88863  0.63387  0.85307  Biso   1.000  H
  C1331    1.0000 0.84243  0.57557  0.87307  Biso   1.000  C
  H1007    1.0000 0.85713  0.56107  0.86517  Biso   1.000  H
  C1332    1.0000 0.80283  0.55407  0.89517  Biso   1.000  C
  H1008    1.0000 0.79193  0.52567  0.90537  Biso   1.000  H
  O36      1.0000 0.35813  0.55437  0.88987  Biso   1.000  O
  C1333    1.0000 0.00000  0.14350  0.75000  Biso   1.000  C
  O37      1.0000 0.00000  0.17680  0.75000  Biso   1.000  O
  C1334    1.0000 0.66667  0.47683  0.08333  Biso   1.000  C
  O38      1.0000 0.66667  0.51013  0.08333  Biso   1.000  O
  C1335    1.0000 0.33333  0.81017  0.41667  Biso   1.000  C
  O39      1.0000 0.33333  0.84347  0.41667  Biso   1.000  O
  C1336    1.0000 0.85650  0.85650  0.75000  Biso   1.000  C
  O40      1.0000 0.82320  0.82320  0.75000  Biso   1.000  O
  C1337    1.0000 0.52317  0.18983  0.08333  Biso   1.000  C
  O41      1.0000 0.48987  0.15653  0.08333  Biso   1.000  O
  C1338    1.0000 0.18983  0.52317  0.41667  Biso   1.000  C
  O42      1.0000 0.15653  0.48987  0.41667  Biso   1.000  O
  C1339    1.0000 0.14350  0.00000  0.75000  Biso   1.000  C
  O43      1.0000 0.17680  0.00000  0.75000  Biso   1.000  O
  C1340    1.0000 0.81017  0.33333  0.08333  Biso   1.000  C
  O44      1.0000 0.84347  0.33333  0.08333  Biso   1.000  O
  C1341    1.0000 0.47683  0.66667  0.41667  Biso   1.000  C
  O45      1.0000 0.51013  0.66667  0.41667  Biso   1.000  O
  C1342    1.0000 0.00000  0.85650  0.25000  Biso   1.000  C
  O46      1.0000 0.00000  0.82320  0.25000  Biso   1.000  O
  C1343    1.0000 0.66667  0.18983  0.58333  Biso   1.000  C
  O47      1.0000 0.66667  0.15653  0.58333  Biso   1.000  O
  C1344    1.0000 0.33333  0.52317  0.91667  Biso   1.000  C
  O48      1.0000 0.33333  0.48987  0.91667  Biso   1.000  O
  C1345    1.0000 0.14350  0.14350  0.25000  Biso   1.000  C
  O49      1.0000 0.17680  0.17680  0.25000  Biso   1.000  O
  C1346    1.0000 0.81017  0.47683  0.58333  Biso   1.000  C
  O50      1.0000 0.84347  0.51013  0.58333  Biso   1.000  O
  C1347    1.0000 0.47683  0.81017  0.91667  Biso   1.000  C
  O51      1.0000 0.51013  0.84347  0.91667  Biso   1.000  O
  C1348    1.0000 0.85650  0.00000  0.25000  Biso   1.000  C
  O52      1.0000 0.82320  0.00000  0.25000  Biso   1.000  O
  C1349    1.0000 0.52317  0.33333  0.58333  Biso   1.000  C
  O53      1.0000 0.48987  0.33333  0.58333  Biso   1.000  O
  C1350    1.0000 0.18983  0.66667  0.91667  Biso   1.000  C
  O54      1.0000 0.15653  0.66667  0.91667  Biso   1.000  O
