data_image0
_cell_length_a       16.18
_cell_length_b       43.077
_cell_length_c       45.485
_cell_angle_alpha    90
_cell_angle_beta     90
_cell_angle_gamma    90

_symmetry_space_group_name_H-M    "P 1"
_symmetry_int_tables_number       1

loop_
  _symmetry_equiv_pos_as_xyz
  'x, y, z'

loop_
  _atom_site_label
  _atom_site_occupancy
  _atom_site_fract_x
  _atom_site_fract_y
  _atom_site_fract_z
  _atom_site_thermal_displace_type
  _atom_site_B_iso_or_equiv
  _atom_site_type_symbol
  Cu1      1.0000 0.50118  0.42879  0.06245  Biso   1.000  Cu
  Cu2      1.0000 0.43155  0.40796  0.98948  Biso   1.000  Cu
  C1       1.0000 0.53330  0.49541  0.16348  Biso   1.000  C
  C2       1.0000 0.58230  0.47863  0.18251  Biso   1.000  C
  H1       1.0000 0.59620  0.45830  0.17780  Biso   1.000  H
  C3       1.0000 0.61160  0.49157  0.20858  Biso   1.000  C
  C4       1.0000 0.59090  0.52226  0.21518  Biso   1.000  C
  H2       1.0000 0.61000  0.53130  0.23250  Biso   1.000  H
  C5       1.0000 0.54210  0.53926  0.19614  Biso   1.000  C
  C6       1.0000 0.51180  0.52553  0.17050  Biso   1.000  C
  H3       1.0000 0.47700  0.53670  0.15810  Biso   1.000  H
  C7       1.0000 0.30260  0.36899  0.12112  Biso   1.000  C
  H4       1.0000 0.25400  0.36500  0.11090  Biso   1.000  H
  C8       1.0000 0.30230  0.36891  0.15178  Biso   1.000  C
  N1       1.0000 0.43470  0.49453  0.12222  Biso   1.000  N
  C9       1.0000 0.49940  0.48255  0.13639  Biso   1.000  C
  N2       1.0000 0.52790  0.45872  0.12062  Biso   1.000  N
  N3       1.0000 0.48074  0.45600  0.09671  Biso   1.000  N
  N4       1.0000 0.42310  0.47812  0.09769  Biso   1.000  N
  N5       1.0000 0.71463  0.45163  0.22553  Biso   1.000  N
  N6       1.0000 0.74250  0.44224  0.25162  Biso   1.000  N
  N7       1.0000 0.70570  0.45930  0.27226  Biso   1.000  N
  N8       1.0000 0.65510  0.47923  0.25892  Biso   1.000  N
  C10      1.0000 0.66062  0.47448  0.23004  Biso   1.000  C
  N9       1.0000 0.52510  0.61853  0.21847  Biso   1.000  N
  N10      1.0000 0.45690  0.61507  0.20313  Biso   1.000  N
  N11      1.0000 0.45290  0.58603  0.19246  Biso   1.000  N
  N12      1.0000 0.39860  0.38740  0.02872  Biso   1.000  N
  N13      1.0000 0.41500  0.39574  0.05676  Biso   1.000  N
  C11      1.0000 0.22713  0.36390  0.16880  Biso   1.000  C
  N14      1.0000 0.21830  0.37230  0.19679  Biso   1.000  N
  N15      1.0000 0.14379  0.36321  0.20574  Biso   1.000  N
  N16      1.0000 0.10657  0.34919  0.18326  Biso   1.000  N
  N17      1.0000 0.15806  0.34961  0.16044  Biso   1.000  N
  C12      1.0000 0.52080  0.57175  0.20259  Biso   1.000  C
  N18      1.0000 0.56760  0.59127  0.21874  Biso   1.000  N
  Cu3      1.0000 0.50118  0.92879  0.56245  Biso   1.000  Cu
  Cu4      1.0000 0.43155  0.90796  0.48948  Biso   1.000  Cu
  C13      1.0000 0.53330  0.99541  0.66348  Biso   1.000  C
  C14      1.0000 0.58230  0.97863  0.68251  Biso   1.000  C
  H5       1.0000 0.59620  0.95830  0.67780  Biso   1.000  H
  C15      1.0000 0.61160  0.99157  0.70858  Biso   1.000  C
  C16      1.0000 0.59090  0.02226  0.71518  Biso   1.000  C
  H6       1.0000 0.61000  0.03130  0.73250  Biso   1.000  H
  C17      1.0000 0.54210  0.03926  0.69614  Biso   1.000  C
  C18      1.0000 0.51180  0.02553  0.67050  Biso   1.000  C
  H7       1.0000 0.47700  0.03670  0.65810  Biso   1.000  H
  C19      1.0000 0.30260  0.86899  0.62112  Biso   1.000  C
  H8       1.0000 0.25400  0.86500  0.61090  Biso   1.000  H
  C20      1.0000 0.30230  0.86891  0.65178  Biso   1.000  C
  N19      1.0000 0.43470  0.99453  0.62222  Biso   1.000  N
  C21      1.0000 0.49940  0.98255  0.63639  Biso   1.000  C
  N20      1.0000 0.52790  0.95872  0.62062  Biso   1.000  N
  N21      1.0000 0.48074  0.95600  0.59671  Biso   1.000  N
  N22      1.0000 0.42310  0.97812  0.59769  Biso   1.000  N
  N23      1.0000 0.71463  0.95163  0.72553  Biso   1.000  N
  N24      1.0000 0.74250  0.94224  0.75162  Biso   1.000  N
  N25      1.0000 0.70570  0.95930  0.77226  Biso   1.000  N
  N26      1.0000 0.65510  0.97923  0.75892  Biso   1.000  N
  C22      1.0000 0.66062  0.97448  0.73004  Biso   1.000  C
  N27      1.0000 0.52510  0.11853  0.71847  Biso   1.000  N
  N28      1.0000 0.45690  0.11507  0.70313  Biso   1.000  N
  N29      1.0000 0.45290  0.08603  0.69246  Biso   1.000  N
  N30      1.0000 0.39860  0.88740  0.52872  Biso   1.000  N
  N31      1.0000 0.41500  0.89574  0.55676  Biso   1.000  N
  C23      1.0000 0.22713  0.86390  0.66880  Biso   1.000  C
  N32      1.0000 0.21830  0.87230  0.69679  Biso   1.000  N
  N33      1.0000 0.14379  0.86321  0.70574  Biso   1.000  N
  N34      1.0000 0.10657  0.84919  0.68326  Biso   1.000  N
  N35      1.0000 0.15806  0.84961  0.66044  Biso   1.000  N
  C24      1.0000 0.52080  0.07175  0.70259  Biso   1.000  C
  N36      1.0000 0.56760  0.09127  0.71874  Biso   1.000  N
  Cu5      1.0000 0.00118  0.42879  0.56245  Biso   1.000  Cu
  Cu6      1.0000 0.93155  0.40796  0.48948  Biso   1.000  Cu
  C25      1.0000 0.03330  0.49541  0.66348  Biso   1.000  C
  C26      1.0000 0.08230  0.47863  0.68251  Biso   1.000  C
  H9       1.0000 0.09620  0.45830  0.67780  Biso   1.000  H
  C27      1.0000 0.11160  0.49157  0.70858  Biso   1.000  C
  C28      1.0000 0.09090  0.52226  0.71518  Biso   1.000  C
  H10      1.0000 0.11000  0.53130  0.73250  Biso   1.000  H
  C29      1.0000 0.04210  0.53926  0.69614  Biso   1.000  C
  C30      1.0000 0.01180  0.52553  0.67050  Biso   1.000  C
  H11      1.0000 0.97700  0.53670  0.65810  Biso   1.000  H
  C31      1.0000 0.80260  0.36899  0.62112  Biso   1.000  C
  H12      1.0000 0.75400  0.36500  0.61090  Biso   1.000  H
  C32      1.0000 0.80230  0.36891  0.65178  Biso   1.000  C
  N37      1.0000 0.93470  0.49453  0.62222  Biso   1.000  N
  C33      1.0000 0.99940  0.48255  0.63639  Biso   1.000  C
  N38      1.0000 0.02790  0.45872  0.62062  Biso   1.000  N
  N39      1.0000 0.98074  0.45600  0.59671  Biso   1.000  N
  N40      1.0000 0.92310  0.47812  0.59769  Biso   1.000  N
  N41      1.0000 0.21463  0.45163  0.72553  Biso   1.000  N
  N42      1.0000 0.24250  0.44224  0.75162  Biso   1.000  N
  N43      1.0000 0.20570  0.45930  0.77226  Biso   1.000  N
  N44      1.0000 0.15510  0.47923  0.75892  Biso   1.000  N
  C34      1.0000 0.16062  0.47448  0.73004  Biso   1.000  C
  N45      1.0000 0.02510  0.61853  0.71847  Biso   1.000  N
  N46      1.0000 0.95690  0.61507  0.70313  Biso   1.000  N
  N47      1.0000 0.95290  0.58603  0.69246  Biso   1.000  N
  N48      1.0000 0.89860  0.38740  0.52872  Biso   1.000  N
  N49      1.0000 0.91500  0.39574  0.55676  Biso   1.000  N
  C35      1.0000 0.72713  0.36390  0.66880  Biso   1.000  C
  N50      1.0000 0.71830  0.37230  0.69679  Biso   1.000  N
  N51      1.0000 0.64379  0.36321  0.70574  Biso   1.000  N
  N52      1.0000 0.60657  0.34919  0.68326  Biso   1.000  N
  N53      1.0000 0.65806  0.34961  0.66044  Biso   1.000  N
  C36      1.0000 0.02080  0.57175  0.70259  Biso   1.000  C
  N54      1.0000 0.06760  0.59127  0.71874  Biso   1.000  N
  Cu7      1.0000 0.00118  0.92879  0.06245  Biso   1.000  Cu
  Cu8      1.0000 0.93155  0.90796  0.98948  Biso   1.000  Cu
  C37      1.0000 0.03330  0.99541  0.16348  Biso   1.000  C
  C38      1.0000 0.08230  0.97863  0.18251  Biso   1.000  C
  H13      1.0000 0.09620  0.95830  0.17780  Biso   1.000  H
  C39      1.0000 0.11160  0.99157  0.20858  Biso   1.000  C
  C40      1.0000 0.09090  0.02226  0.21518  Biso   1.000  C
  H14      1.0000 0.11000  0.03130  0.23250  Biso   1.000  H
  C41      1.0000 0.04210  0.03926  0.19614  Biso   1.000  C
  C42      1.0000 0.01180  0.02553  0.17050  Biso   1.000  C
  H15      1.0000 0.97700  0.03670  0.15810  Biso   1.000  H
  C43      1.0000 0.80260  0.86899  0.12112  Biso   1.000  C
  H16      1.0000 0.75400  0.86500  0.11090  Biso   1.000  H
  C44      1.0000 0.80230  0.86891  0.15178  Biso   1.000  C
  N55      1.0000 0.93470  0.99453  0.12222  Biso   1.000  N
  C45      1.0000 0.99940  0.98255  0.13639  Biso   1.000  C
  N56      1.0000 0.02790  0.95872  0.12062  Biso   1.000  N
  N57      1.0000 0.98074  0.95600  0.09671  Biso   1.000  N
  N58      1.0000 0.92310  0.97812  0.09769  Biso   1.000  N
  N59      1.0000 0.21463  0.95163  0.22553  Biso   1.000  N
  N60      1.0000 0.24250  0.94224  0.25162  Biso   1.000  N
  N61      1.0000 0.20570  0.95930  0.27226  Biso   1.000  N
  N62      1.0000 0.15510  0.97923  0.25892  Biso   1.000  N
  C46      1.0000 0.16062  0.97448  0.23004  Biso   1.000  C
  N63      1.0000 0.02510  0.11853  0.21847  Biso   1.000  N
  N64      1.0000 0.95690  0.11507  0.20313  Biso   1.000  N
  N65      1.0000 0.95290  0.08603  0.19246  Biso   1.000  N
  N66      1.0000 0.89860  0.88740  0.02872  Biso   1.000  N
  N67      1.0000 0.91500  0.89574  0.05676  Biso   1.000  N
  C47      1.0000 0.72713  0.86390  0.16880  Biso   1.000  C
  N68      1.0000 0.71830  0.87230  0.19679  Biso   1.000  N
  N69      1.0000 0.64379  0.86321  0.20574  Biso   1.000  N
  N70      1.0000 0.60657  0.84919  0.18326  Biso   1.000  N
  N71      1.0000 0.65806  0.84961  0.16044  Biso   1.000  N
  C48      1.0000 0.02080  0.07175  0.20259  Biso   1.000  C
  N72      1.0000 0.06760  0.09127  0.21874  Biso   1.000  N
  Cu9      1.0000 0.24882  0.32121  0.06245  Biso   1.000  Cu
  Cu10     1.0000 0.31845  0.34204  0.98948  Biso   1.000  Cu
  C49      1.0000 0.21670  0.25459  0.16348  Biso   1.000  C
  C50      1.0000 0.16770  0.27137  0.18251  Biso   1.000  C
  H17      1.0000 0.15380  0.29170  0.17780  Biso   1.000  H
  C51      1.0000 0.13840  0.25843  0.20858  Biso   1.000  C
  C52      1.0000 0.15910  0.22774  0.21518  Biso   1.000  C
  H18      1.0000 0.14000  0.21870  0.23250  Biso   1.000  H
  C53      1.0000 0.20790  0.21074  0.19614  Biso   1.000  C
  C54      1.0000 0.23820  0.22447  0.17050  Biso   1.000  C
  H19      1.0000 0.27300  0.21330  0.15810  Biso   1.000  H
  C55      1.0000 0.44740  0.38101  0.12112  Biso   1.000  C
  H20      1.0000 0.49600  0.38500  0.11090  Biso   1.000  H
  C56      1.0000 0.44770  0.38109  0.15178  Biso   1.000  C
  N73      1.0000 0.31530  0.25547  0.12222  Biso   1.000  N
  C57      1.0000 0.25060  0.26745  0.13639  Biso   1.000  C
  N74      1.0000 0.22210  0.29128  0.12062  Biso   1.000  N
  N75      1.0000 0.26926  0.29400  0.09671  Biso   1.000  N
  N76      1.0000 0.32690  0.27188  0.09769  Biso   1.000  N
  N77      1.0000 0.03537  0.29837  0.22553  Biso   1.000  N
  N78      1.0000 0.00750  0.30776  0.25162  Biso   1.000  N
  N79      1.0000 0.04430  0.29070  0.27226  Biso   1.000  N
  N80      1.0000 0.09490  0.27077  0.25892  Biso   1.000  N
  C58      1.0000 0.08938  0.27552  0.23004  Biso   1.000  C
  N81      1.0000 0.22490  0.13147  0.21847  Biso   1.000  N
  N82      1.0000 0.29310  0.13493  0.20313  Biso   1.000  N
  N83      1.0000 0.29710  0.16397  0.19246  Biso   1.000  N
  N84      1.0000 0.35140  0.36260  0.02872  Biso   1.000  N
  N85      1.0000 0.33500  0.35426  0.05676  Biso   1.000  N
  C59      1.0000 0.52287  0.38610  0.16880  Biso   1.000  C
  N86      1.0000 0.53170  0.37770  0.19679  Biso   1.000  N
  N87      1.0000 0.60621  0.38679  0.20574  Biso   1.000  N
  N88      1.0000 0.64343  0.40081  0.18326  Biso   1.000  N
  N89      1.0000 0.59194  0.40039  0.16044  Biso   1.000  N
  C60      1.0000 0.22920  0.17825  0.20259  Biso   1.000  C
  N90      1.0000 0.18240  0.15873  0.21874  Biso   1.000  N
  Cu11     1.0000 0.24882  0.82121  0.56245  Biso   1.000  Cu
  Cu12     1.0000 0.31845  0.84204  0.48948  Biso   1.000  Cu
  C61      1.0000 0.21670  0.75459  0.66348  Biso   1.000  C
  C62      1.0000 0.16770  0.77137  0.68251  Biso   1.000  C
  H21      1.0000 0.15380  0.79170  0.67780  Biso   1.000  H
  C63      1.0000 0.13840  0.75843  0.70858  Biso   1.000  C
  C64      1.0000 0.15910  0.72774  0.71518  Biso   1.000  C
  H22      1.0000 0.14000  0.71870  0.73250  Biso   1.000  H
  C65      1.0000 0.20790  0.71074  0.69614  Biso   1.000  C
  C66      1.0000 0.23820  0.72447  0.67050  Biso   1.000  C
  H23      1.0000 0.27300  0.71330  0.65810  Biso   1.000  H
  C67      1.0000 0.44740  0.88101  0.62112  Biso   1.000  C
  H24      1.0000 0.49600  0.88500  0.61090  Biso   1.000  H
  C68      1.0000 0.44770  0.88109  0.65178  Biso   1.000  C
  N91      1.0000 0.31530  0.75547  0.62222  Biso   1.000  N
  C69      1.0000 0.25060  0.76745  0.63639  Biso   1.000  C
  N92      1.0000 0.22210  0.79128  0.62062  Biso   1.000  N
  N93      1.0000 0.26926  0.79400  0.59671  Biso   1.000  N
  N94      1.0000 0.32690  0.77188  0.59769  Biso   1.000  N
  N95      1.0000 0.03537  0.79837  0.72553  Biso   1.000  N
  N96      1.0000 0.00750  0.80776  0.75162  Biso   1.000  N
  N97      1.0000 0.04430  0.79070  0.77226  Biso   1.000  N
  N98      1.0000 0.09490  0.77077  0.75892  Biso   1.000  N
  C70      1.0000 0.08938  0.77552  0.73004  Biso   1.000  C
  N99      1.0000 0.22490  0.63147  0.71847  Biso   1.000  N
  N100     1.0000 0.29310  0.63493  0.70313  Biso   1.000  N
  N101     1.0000 0.29710  0.66397  0.69246  Biso   1.000  N
  N102     1.0000 0.35140  0.86260  0.52872  Biso   1.000  N
  N103     1.0000 0.33500  0.85426  0.55676  Biso   1.000  N
  C71      1.0000 0.52287  0.88610  0.66880  Biso   1.000  C
  N104     1.0000 0.53170  0.87770  0.69679  Biso   1.000  N
  N105     1.0000 0.60621  0.88679  0.70574  Biso   1.000  N
  N106     1.0000 0.64343  0.90081  0.68326  Biso   1.000  N
  N107     1.0000 0.59194  0.90039  0.66044  Biso   1.000  N
  C72      1.0000 0.22920  0.67825  0.70259  Biso   1.000  C
  N108     1.0000 0.18240  0.65873  0.71874  Biso   1.000  N
  Cu13     1.0000 0.74882  0.32121  0.56245  Biso   1.000  Cu
  Cu14     1.0000 0.81845  0.34204  0.48948  Biso   1.000  Cu
  C73      1.0000 0.71670  0.25459  0.66348  Biso   1.000  C
  C74      1.0000 0.66770  0.27137  0.68251  Biso   1.000  C
  H25      1.0000 0.65380  0.29170  0.67780  Biso   1.000  H
  C75      1.0000 0.63840  0.25843  0.70858  Biso   1.000  C
  C76      1.0000 0.65910  0.22774  0.71518  Biso   1.000  C
  H26      1.0000 0.64000  0.21870  0.73250  Biso   1.000  H
  C77      1.0000 0.70790  0.21074  0.69614  Biso   1.000  C
  C78      1.0000 0.73820  0.22447  0.67050  Biso   1.000  C
  H27      1.0000 0.77300  0.21330  0.65810  Biso   1.000  H
  C79      1.0000 0.94740  0.38101  0.62112  Biso   1.000  C
  H28      1.0000 0.99600  0.38500  0.61090  Biso   1.000  H
  C80      1.0000 0.94770  0.38109  0.65178  Biso   1.000  C
  N109     1.0000 0.81530  0.25547  0.62222  Biso   1.000  N
  C81      1.0000 0.75060  0.26745  0.63639  Biso   1.000  C
  N110     1.0000 0.72210  0.29128  0.62062  Biso   1.000  N
  N111     1.0000 0.76926  0.29400  0.59671  Biso   1.000  N
  N112     1.0000 0.82690  0.27188  0.59769  Biso   1.000  N
  N113     1.0000 0.53537  0.29837  0.72553  Biso   1.000  N
  N114     1.0000 0.50750  0.30776  0.75162  Biso   1.000  N
  N115     1.0000 0.54430  0.29070  0.77226  Biso   1.000  N
  N116     1.0000 0.59490  0.27077  0.75892  Biso   1.000  N
  C82      1.0000 0.58938  0.27552  0.73004  Biso   1.000  C
  N117     1.0000 0.72490  0.13147  0.71847  Biso   1.000  N
  N118     1.0000 0.79310  0.13493  0.70313  Biso   1.000  N
  N119     1.0000 0.79710  0.16397  0.69246  Biso   1.000  N
  N120     1.0000 0.85140  0.36260  0.52872  Biso   1.000  N
  N121     1.0000 0.83500  0.35426  0.55676  Biso   1.000  N
  C83      1.0000 0.02287  0.38610  0.66880  Biso   1.000  C
  N122     1.0000 0.03170  0.37770  0.69679  Biso   1.000  N
  N123     1.0000 0.10621  0.38679  0.70574  Biso   1.000  N
  N124     1.0000 0.14343  0.40081  0.68326  Biso   1.000  N
  N125     1.0000 0.09194  0.40039  0.66044  Biso   1.000  N
  C84      1.0000 0.72920  0.17825  0.70259  Biso   1.000  C
  N126     1.0000 0.68240  0.15873  0.71874  Biso   1.000  N
  Cu15     1.0000 0.74882  0.82121  0.06245  Biso   1.000  Cu
  Cu16     1.0000 0.81845  0.84204  0.98948  Biso   1.000  Cu
  C85      1.0000 0.71670  0.75459  0.16348  Biso   1.000  C
  C86      1.0000 0.66770  0.77137  0.18251  Biso   1.000  C
  H29      1.0000 0.65380  0.79170  0.17780  Biso   1.000  H
  C87      1.0000 0.63840  0.75843  0.20858  Biso   1.000  C
  C88      1.0000 0.65910  0.72774  0.21518  Biso   1.000  C
  H30      1.0000 0.64000  0.71870  0.23250  Biso   1.000  H
  C89      1.0000 0.70790  0.71074  0.19614  Biso   1.000  C
  C90      1.0000 0.73820  0.72447  0.17050  Biso   1.000  C
  H31      1.0000 0.77300  0.71330  0.15810  Biso   1.000  H
  C91      1.0000 0.94740  0.88101  0.12112  Biso   1.000  C
  H32      1.0000 0.99600  0.88500  0.11090  Biso   1.000  H
  C92      1.0000 0.94770  0.88109  0.15178  Biso   1.000  C
  N127     1.0000 0.81530  0.75547  0.12222  Biso   1.000  N
  C93      1.0000 0.75060  0.76745  0.13639  Biso   1.000  C
  N128     1.0000 0.72210  0.79128  0.12062  Biso   1.000  N
  N129     1.0000 0.76926  0.79400  0.09671  Biso   1.000  N
  N130     1.0000 0.82690  0.77188  0.09769  Biso   1.000  N
  N131     1.0000 0.53537  0.79837  0.22553  Biso   1.000  N
  N132     1.0000 0.50750  0.80776  0.25162  Biso   1.000  N
  N133     1.0000 0.54430  0.79070  0.27226  Biso   1.000  N
  N134     1.0000 0.59490  0.77077  0.25892  Biso   1.000  N
  C94      1.0000 0.58938  0.77552  0.23004  Biso   1.000  C
  N135     1.0000 0.72490  0.63147  0.21847  Biso   1.000  N
  N136     1.0000 0.79310  0.63493  0.20313  Biso   1.000  N
  N137     1.0000 0.79710  0.66397  0.19246  Biso   1.000  N
  N138     1.0000 0.85140  0.86260  0.02872  Biso   1.000  N
  N139     1.0000 0.83500  0.85426  0.05676  Biso   1.000  N
  C95      1.0000 0.02287  0.88610  0.16880  Biso   1.000  C
  N140     1.0000 0.03170  0.87770  0.19679  Biso   1.000  N
  N141     1.0000 0.10621  0.88679  0.20574  Biso   1.000  N
  N142     1.0000 0.14343  0.90081  0.18326  Biso   1.000  N
  N143     1.0000 0.09194  0.90039  0.16044  Biso   1.000  N
  C96      1.0000 0.72920  0.67825  0.20259  Biso   1.000  C
  N144     1.0000 0.68240  0.65873  0.21874  Biso   1.000  N
  Cu17     1.0000 0.24882  0.42879  0.68755  Biso   1.000  Cu
  Cu18     1.0000 0.31845  0.40796  0.76052  Biso   1.000  Cu
  C97      1.0000 0.21670  0.49541  0.58652  Biso   1.000  C
  C98      1.0000 0.16770  0.47863  0.56749  Biso   1.000  C
  H33      1.0000 0.15380  0.45830  0.57220  Biso   1.000  H
  C99      1.0000 0.13840  0.49157  0.54142  Biso   1.000  C
  C100     1.0000 0.15910  0.52226  0.53482  Biso   1.000  C
  H34      1.0000 0.14000  0.53130  0.51750  Biso   1.000  H
  C101     1.0000 0.20790  0.53926  0.55386  Biso   1.000  C
  C102     1.0000 0.23820  0.52553  0.57950  Biso   1.000  C
  H35      1.0000 0.27300  0.53670  0.59190  Biso   1.000  H
  C103     1.0000 0.44740  0.36899  0.62888  Biso   1.000  C
  H36      1.0000 0.49600  0.36500  0.63910  Biso   1.000  H
  C104     1.0000 0.44770  0.36891  0.59822  Biso   1.000  C
  N145     1.0000 0.31530  0.49453  0.62778  Biso   1.000  N
  C105     1.0000 0.25060  0.48255  0.61361  Biso   1.000  C
  N146     1.0000 0.22210  0.45872  0.62938  Biso   1.000  N
  N147     1.0000 0.26926  0.45600  0.65329  Biso   1.000  N
  N148     1.0000 0.32690  0.47812  0.65231  Biso   1.000  N
  N149     1.0000 0.03537  0.45163  0.52447  Biso   1.000  N
  N150     1.0000 0.00750  0.44224  0.49838  Biso   1.000  N
  N151     1.0000 0.04430  0.45930  0.47774  Biso   1.000  N
  N152     1.0000 0.09490  0.47923  0.49108  Biso   1.000  N
  C106     1.0000 0.08938  0.47448  0.51996  Biso   1.000  C
  N153     1.0000 0.22490  0.61853  0.53153  Biso   1.000  N
  N154     1.0000 0.29310  0.61507  0.54687  Biso   1.000  N
  N155     1.0000 0.29710  0.58603  0.55754  Biso   1.000  N
  N156     1.0000 0.35140  0.38740  0.72128  Biso   1.000  N
  N157     1.0000 0.33500  0.39574  0.69324  Biso   1.000  N
  C107     1.0000 0.52287  0.36390  0.58120  Biso   1.000  C
  N158     1.0000 0.53170  0.37230  0.55321  Biso   1.000  N
  N159     1.0000 0.60621  0.36321  0.54426  Biso   1.000  N
  N160     1.0000 0.64343  0.34919  0.56674  Biso   1.000  N
  N161     1.0000 0.59194  0.34961  0.58956  Biso   1.000  N
  C108     1.0000 0.22920  0.57175  0.54741  Biso   1.000  C
  N162     1.0000 0.18240  0.59127  0.53126  Biso   1.000  N
  Cu19     1.0000 0.24882  0.92879  0.18755  Biso   1.000  Cu
  Cu20     1.0000 0.31845  0.90796  0.26052  Biso   1.000  Cu
  C109     1.0000 0.21670  0.99541  0.08652  Biso   1.000  C
  C110     1.0000 0.16770  0.97863  0.06749  Biso   1.000  C
  H37      1.0000 0.15380  0.95830  0.07220  Biso   1.000  H
  C111     1.0000 0.13840  0.99157  0.04142  Biso   1.000  C
  C112     1.0000 0.15910  0.02226  0.03482  Biso   1.000  C
  H38      1.0000 0.14000  0.03130  0.01750  Biso   1.000  H
  C113     1.0000 0.20790  0.03926  0.05386  Biso   1.000  C
  C114     1.0000 0.23820  0.02553  0.07950  Biso   1.000  C
  H39      1.0000 0.27300  0.03670  0.09190  Biso   1.000  H
  C115     1.0000 0.44740  0.86899  0.12888  Biso   1.000  C
  H40      1.0000 0.49600  0.86500  0.13910  Biso   1.000  H
  C116     1.0000 0.44770  0.86891  0.09822  Biso   1.000  C
  N163     1.0000 0.31530  0.99453  0.12778  Biso   1.000  N
  C117     1.0000 0.25060  0.98255  0.11361  Biso   1.000  C
  N164     1.0000 0.22210  0.95872  0.12938  Biso   1.000  N
  N165     1.0000 0.26926  0.95600  0.15329  Biso   1.000  N
  N166     1.0000 0.32690  0.97812  0.15231  Biso   1.000  N
  N167     1.0000 0.03537  0.95163  0.02447  Biso   1.000  N
  N168     1.0000 0.00750  0.94224  0.99838  Biso   1.000  N
  N169     1.0000 0.04430  0.95930  0.97774  Biso   1.000  N
  N170     1.0000 0.09490  0.97923  0.99108  Biso   1.000  N
  C118     1.0000 0.08938  0.97448  0.01996  Biso   1.000  C
  N171     1.0000 0.22490  0.11853  0.03153  Biso   1.000  N
  N172     1.0000 0.29310  0.11507  0.04687  Biso   1.000  N
  N173     1.0000 0.29710  0.08603  0.05754  Biso   1.000  N
  N174     1.0000 0.35140  0.88740  0.22128  Biso   1.000  N
  N175     1.0000 0.33500  0.89574  0.19324  Biso   1.000  N
  C119     1.0000 0.52287  0.86390  0.08120  Biso   1.000  C
  N176     1.0000 0.53170  0.87230  0.05321  Biso   1.000  N
  N177     1.0000 0.60621  0.86321  0.04426  Biso   1.000  N
  N178     1.0000 0.64343  0.84919  0.06674  Biso   1.000  N
  N179     1.0000 0.59194  0.84961  0.08956  Biso   1.000  N
  C120     1.0000 0.22920  0.07175  0.04741  Biso   1.000  C
  N180     1.0000 0.18240  0.09127  0.03126  Biso   1.000  N
  Cu21     1.0000 0.74882  0.42879  0.18755  Biso   1.000  Cu
  Cu22     1.0000 0.81845  0.40796  0.26052  Biso   1.000  Cu
  C121     1.0000 0.71670  0.49541  0.08652  Biso   1.000  C
  C122     1.0000 0.66770  0.47863  0.06749  Biso   1.000  C
  H41      1.0000 0.65380  0.45830  0.07220  Biso   1.000  H
  C123     1.0000 0.63840  0.49157  0.04142  Biso   1.000  C
  C124     1.0000 0.65910  0.52226  0.03482  Biso   1.000  C
  H42      1.0000 0.64000  0.53130  0.01750  Biso   1.000  H
  C125     1.0000 0.70790  0.53926  0.05386  Biso   1.000  C
  C126     1.0000 0.73820  0.52553  0.07950  Biso   1.000  C
  H43      1.0000 0.77300  0.53670  0.09190  Biso   1.000  H
  C127     1.0000 0.94740  0.36899  0.12888  Biso   1.000  C
  H44      1.0000 0.99600  0.36500  0.13910  Biso   1.000  H
  C128     1.0000 0.94770  0.36891  0.09822  Biso   1.000  C
  N181     1.0000 0.81530  0.49453  0.12778  Biso   1.000  N
  C129     1.0000 0.75060  0.48255  0.11361  Biso   1.000  C
  N182     1.0000 0.72210  0.45872  0.12938  Biso   1.000  N
  N183     1.0000 0.76926  0.45600  0.15329  Biso   1.000  N
  N184     1.0000 0.82690  0.47812  0.15231  Biso   1.000  N
  N185     1.0000 0.53537  0.45163  0.02447  Biso   1.000  N
  N186     1.0000 0.50750  0.44224  0.99838  Biso   1.000  N
  N187     1.0000 0.54430  0.45930  0.97774  Biso   1.000  N
  N188     1.0000 0.59490  0.47923  0.99108  Biso   1.000  N
  C130     1.0000 0.58938  0.47448  0.01996  Biso   1.000  C
  N189     1.0000 0.72490  0.61853  0.03153  Biso   1.000  N
  N190     1.0000 0.79310  0.61507  0.04687  Biso   1.000  N
  N191     1.0000 0.79710  0.58603  0.05754  Biso   1.000  N
  N192     1.0000 0.85140  0.38740  0.22128  Biso   1.000  N
  N193     1.0000 0.83500  0.39574  0.19324  Biso   1.000  N
  C131     1.0000 0.02287  0.36390  0.08120  Biso   1.000  C
  N194     1.0000 0.03170  0.37230  0.05321  Biso   1.000  N
  N195     1.0000 0.10621  0.36321  0.04426  Biso   1.000  N
  N196     1.0000 0.14343  0.34919  0.06674  Biso   1.000  N
  N197     1.0000 0.09194  0.34961  0.08956  Biso   1.000  N
  C132     1.0000 0.72920  0.57175  0.04741  Biso   1.000  C
  N198     1.0000 0.68240  0.59127  0.03126  Biso   1.000  N
  Cu23     1.0000 0.74882  0.92879  0.68755  Biso   1.000  Cu
  Cu24     1.0000 0.81845  0.90796  0.76052  Biso   1.000  Cu
  C133     1.0000 0.71670  0.99541  0.58652  Biso   1.000  C
  C134     1.0000 0.66770  0.97863  0.56749  Biso   1.000  C
  H45      1.0000 0.65380  0.95830  0.57220  Biso   1.000  H
  C135     1.0000 0.63840  0.99157  0.54142  Biso   1.000  C
  C136     1.0000 0.65910  0.02226  0.53482  Biso   1.000  C
  H46      1.0000 0.64000  0.03130  0.51750  Biso   1.000  H
  C137     1.0000 0.70790  0.03926  0.55386  Biso   1.000  C
  C138     1.0000 0.73820  0.02553  0.57950  Biso   1.000  C
  H47      1.0000 0.77300  0.03670  0.59190  Biso   1.000  H
  C139     1.0000 0.94740  0.86899  0.62888  Biso   1.000  C
  H48      1.0000 0.99600  0.86500  0.63910  Biso   1.000  H
  C140     1.0000 0.94770  0.86891  0.59822  Biso   1.000  C
  N199     1.0000 0.81530  0.99453  0.62778  Biso   1.000  N
  C141     1.0000 0.75060  0.98255  0.61361  Biso   1.000  C
  N200     1.0000 0.72210  0.95872  0.62938  Biso   1.000  N
  N201     1.0000 0.76926  0.95600  0.65329  Biso   1.000  N
  N202     1.0000 0.82690  0.97812  0.65231  Biso   1.000  N
  N203     1.0000 0.53537  0.95163  0.52447  Biso   1.000  N
  N204     1.0000 0.50750  0.94224  0.49838  Biso   1.000  N
  N205     1.0000 0.54430  0.95930  0.47774  Biso   1.000  N
  N206     1.0000 0.59490  0.97923  0.49108  Biso   1.000  N
  C142     1.0000 0.58938  0.97448  0.51996  Biso   1.000  C
  N207     1.0000 0.72490  0.11853  0.53153  Biso   1.000  N
  N208     1.0000 0.79310  0.11507  0.54687  Biso   1.000  N
  N209     1.0000 0.79710  0.08603  0.55754  Biso   1.000  N
  N210     1.0000 0.85140  0.88740  0.72128  Biso   1.000  N
  N211     1.0000 0.83500  0.89574  0.69324  Biso   1.000  N
  C143     1.0000 0.02287  0.86390  0.58120  Biso   1.000  C
  N212     1.0000 0.03170  0.87230  0.55321  Biso   1.000  N
  N213     1.0000 0.10621  0.86321  0.54426  Biso   1.000  N
  N214     1.0000 0.14343  0.84919  0.56674  Biso   1.000  N
  N215     1.0000 0.09194  0.84961  0.58956  Biso   1.000  N
  C144     1.0000 0.72920  0.07175  0.54741  Biso   1.000  C
  N216     1.0000 0.68240  0.09127  0.53126  Biso   1.000  N
  Cu25     1.0000 0.50118  0.32121  0.68755  Biso   1.000  Cu
  Cu26     1.0000 0.43155  0.34204  0.76052  Biso   1.000  Cu
  C145     1.0000 0.53330  0.25459  0.58652  Biso   1.000  C
  C146     1.0000 0.58230  0.27137  0.56749  Biso   1.000  C
  H49      1.0000 0.59620  0.29170  0.57220  Biso   1.000  H
  C147     1.0000 0.61160  0.25843  0.54142  Biso   1.000  C
  C148     1.0000 0.59090  0.22774  0.53482  Biso   1.000  C
  H50      1.0000 0.61000  0.21870  0.51750  Biso   1.000  H
  C149     1.0000 0.54210  0.21074  0.55386  Biso   1.000  C
  C150     1.0000 0.51180  0.22447  0.57950  Biso   1.000  C
  H51      1.0000 0.47700  0.21330  0.59190  Biso   1.000  H
  C151     1.0000 0.30260  0.38101  0.62888  Biso   1.000  C
  H52      1.0000 0.25400  0.38500  0.63910  Biso   1.000  H
  C152     1.0000 0.30230  0.38109  0.59822  Biso   1.000  C
  N217     1.0000 0.43470  0.25547  0.62778  Biso   1.000  N
  C153     1.0000 0.49940  0.26745  0.61361  Biso   1.000  C
  N218     1.0000 0.52790  0.29128  0.62938  Biso   1.000  N
  N219     1.0000 0.48074  0.29400  0.65329  Biso   1.000  N
  N220     1.0000 0.42310  0.27188  0.65231  Biso   1.000  N
  N221     1.0000 0.71463  0.29837  0.52447  Biso   1.000  N
  N222     1.0000 0.74250  0.30776  0.49838  Biso   1.000  N
  N223     1.0000 0.70570  0.29070  0.47774  Biso   1.000  N
  N224     1.0000 0.65510  0.27077  0.49108  Biso   1.000  N
  C154     1.0000 0.66062  0.27552  0.51996  Biso   1.000  C
  N225     1.0000 0.52510  0.13147  0.53153  Biso   1.000  N
  N226     1.0000 0.45690  0.13493  0.54687  Biso   1.000  N
  N227     1.0000 0.45290  0.16397  0.55754  Biso   1.000  N
  N228     1.0000 0.39860  0.36260  0.72128  Biso   1.000  N
  N229     1.0000 0.41500  0.35426  0.69324  Biso   1.000  N
  C155     1.0000 0.22713  0.38610  0.58120  Biso   1.000  C
  N230     1.0000 0.21830  0.37770  0.55321  Biso   1.000  N
  N231     1.0000 0.14379  0.38679  0.54426  Biso   1.000  N
  N232     1.0000 0.10657  0.40081  0.56674  Biso   1.000  N
  N233     1.0000 0.15806  0.40039  0.58956  Biso   1.000  N
  C156     1.0000 0.52080  0.17825  0.54741  Biso   1.000  C
  N234     1.0000 0.56760  0.15873  0.53126  Biso   1.000  N
  Cu27     1.0000 0.50118  0.82121  0.18755  Biso   1.000  Cu
  Cu28     1.0000 0.43155  0.84204  0.26052  Biso   1.000  Cu
  C157     1.0000 0.53330  0.75459  0.08652  Biso   1.000  C
  C158     1.0000 0.58230  0.77137  0.06749  Biso   1.000  C
  H53      1.0000 0.59620  0.79170  0.07220  Biso   1.000  H
  C159     1.0000 0.61160  0.75843  0.04142  Biso   1.000  C
  C160     1.0000 0.59090  0.72774  0.03482  Biso   1.000  C
  H54      1.0000 0.61000  0.71870  0.01750  Biso   1.000  H
  C161     1.0000 0.54210  0.71074  0.05386  Biso   1.000  C
  C162     1.0000 0.51180  0.72447  0.07950  Biso   1.000  C
  H55      1.0000 0.47700  0.71330  0.09190  Biso   1.000  H
  C163     1.0000 0.30260  0.88101  0.12888  Biso   1.000  C
  H56      1.0000 0.25400  0.88500  0.13910  Biso   1.000  H
  C164     1.0000 0.30230  0.88109  0.09822  Biso   1.000  C
  N235     1.0000 0.43470  0.75547  0.12778  Biso   1.000  N
  C165     1.0000 0.49940  0.76745  0.11361  Biso   1.000  C
  N236     1.0000 0.52790  0.79128  0.12938  Biso   1.000  N
  N237     1.0000 0.48074  0.79400  0.15329  Biso   1.000  N
  N238     1.0000 0.42310  0.77188  0.15231  Biso   1.000  N
  N239     1.0000 0.71463  0.79837  0.02447  Biso   1.000  N
  N240     1.0000 0.74250  0.80776  0.99838  Biso   1.000  N
  N241     1.0000 0.70570  0.79070  0.97774  Biso   1.000  N
  N242     1.0000 0.65510  0.77077  0.99108  Biso   1.000  N
  C166     1.0000 0.66062  0.77552  0.01996  Biso   1.000  C
  N243     1.0000 0.52510  0.63147  0.03153  Biso   1.000  N
  N244     1.0000 0.45690  0.63493  0.04687  Biso   1.000  N
  N245     1.0000 0.45290  0.66397  0.05754  Biso   1.000  N
  N246     1.0000 0.39860  0.86260  0.22128  Biso   1.000  N
  N247     1.0000 0.41500  0.85426  0.19324  Biso   1.000  N
  C167     1.0000 0.22713  0.88610  0.08120  Biso   1.000  C
  N248     1.0000 0.21830  0.87770  0.05321  Biso   1.000  N
  N249     1.0000 0.14379  0.88679  0.04426  Biso   1.000  N
  N250     1.0000 0.10657  0.90081  0.06674  Biso   1.000  N
  N251     1.0000 0.15806  0.90039  0.08956  Biso   1.000  N
  C168     1.0000 0.52080  0.67825  0.04741  Biso   1.000  C
  N252     1.0000 0.56760  0.65873  0.03126  Biso   1.000  N
  Cu29     1.0000 0.00118  0.32121  0.18755  Biso   1.000  Cu
  Cu30     1.0000 0.93155  0.34204  0.26052  Biso   1.000  Cu
  C169     1.0000 0.03330  0.25459  0.08652  Biso   1.000  C
  C170     1.0000 0.08230  0.27137  0.06749  Biso   1.000  C
  H57      1.0000 0.09620  0.29170  0.07220  Biso   1.000  H
  C171     1.0000 0.11160  0.25843  0.04142  Biso   1.000  C
  C172     1.0000 0.09090  0.22774  0.03482  Biso   1.000  C
  H58      1.0000 0.11000  0.21870  0.01750  Biso   1.000  H
  C173     1.0000 0.04210  0.21074  0.05386  Biso   1.000  C
  C174     1.0000 0.01180  0.22447  0.07950  Biso   1.000  C
  H59      1.0000 0.97700  0.21330  0.09190  Biso   1.000  H
  C175     1.0000 0.80260  0.38101  0.12888  Biso   1.000  C
  H60      1.0000 0.75400  0.38500  0.13910  Biso   1.000  H
  C176     1.0000 0.80230  0.38109  0.09822  Biso   1.000  C
  N253     1.0000 0.93470  0.25547  0.12778  Biso   1.000  N
  C177     1.0000 0.99940  0.26745  0.11361  Biso   1.000  C
  N254     1.0000 0.02790  0.29128  0.12938  Biso   1.000  N
  N255     1.0000 0.98074  0.29400  0.15329  Biso   1.000  N
  N256     1.0000 0.92310  0.27188  0.15231  Biso   1.000  N
  N257     1.0000 0.21463  0.29837  0.02447  Biso   1.000  N
  N258     1.0000 0.24250  0.30776  0.99838  Biso   1.000  N
  N259     1.0000 0.20570  0.29070  0.97774  Biso   1.000  N
  N260     1.0000 0.15510  0.27077  0.99108  Biso   1.000  N
  C178     1.0000 0.16062  0.27552  0.01996  Biso   1.000  C
  N261     1.0000 0.02510  0.13147  0.03153  Biso   1.000  N
  N262     1.0000 0.95690  0.13493  0.04687  Biso   1.000  N
  N263     1.0000 0.95290  0.16397  0.05754  Biso   1.000  N
  N264     1.0000 0.89860  0.36260  0.22128  Biso   1.000  N
  N265     1.0000 0.91500  0.35426  0.19324  Biso   1.000  N
  C179     1.0000 0.72713  0.38610  0.08120  Biso   1.000  C
  N266     1.0000 0.71830  0.37770  0.05321  Biso   1.000  N
  N267     1.0000 0.64379  0.38679  0.04426  Biso   1.000  N
  N268     1.0000 0.60657  0.40081  0.06674  Biso   1.000  N
  N269     1.0000 0.65806  0.40039  0.08956  Biso   1.000  N
  C180     1.0000 0.02080  0.17825  0.04741  Biso   1.000  C
  N270     1.0000 0.06760  0.15873  0.03126  Biso   1.000  N
  Cu31     1.0000 0.00118  0.82121  0.68755  Biso   1.000  Cu
  Cu32     1.0000 0.93155  0.84204  0.76052  Biso   1.000  Cu
  C181     1.0000 0.03330  0.75459  0.58652  Biso   1.000  C
  C182     1.0000 0.08230  0.77137  0.56749  Biso   1.000  C
  H61      1.0000 0.09620  0.79170  0.57220  Biso   1.000  H
  C183     1.0000 0.11160  0.75843  0.54142  Biso   1.000  C
  C184     1.0000 0.09090  0.72774  0.53482  Biso   1.000  C
  H62      1.0000 0.11000  0.71870  0.51750  Biso   1.000  H
  C185     1.0000 0.04210  0.71074  0.55386  Biso   1.000  C
  C186     1.0000 0.01180  0.72447  0.57950  Biso   1.000  C
  H63      1.0000 0.97700  0.71330  0.59190  Biso   1.000  H
  C187     1.0000 0.80260  0.88101  0.62888  Biso   1.000  C
  H64      1.0000 0.75400  0.88500  0.63910  Biso   1.000  H
  C188     1.0000 0.80230  0.88109  0.59822  Biso   1.000  C
  N271     1.0000 0.93470  0.75547  0.62778  Biso   1.000  N
  C189     1.0000 0.99940  0.76745  0.61361  Biso   1.000  C
  N272     1.0000 0.02790  0.79128  0.62938  Biso   1.000  N
  N273     1.0000 0.98074  0.79400  0.65329  Biso   1.000  N
  N274     1.0000 0.92310  0.77188  0.65231  Biso   1.000  N
  N275     1.0000 0.21463  0.79837  0.52447  Biso   1.000  N
  N276     1.0000 0.24250  0.80776  0.49838  Biso   1.000  N
  N277     1.0000 0.20570  0.79070  0.47774  Biso   1.000  N
  N278     1.0000 0.15510  0.77077  0.49108  Biso   1.000  N
  C190     1.0000 0.16062  0.77552  0.51996  Biso   1.000  C
  N279     1.0000 0.02510  0.63147  0.53153  Biso   1.000  N
  N280     1.0000 0.95690  0.63493  0.54687  Biso   1.000  N
  N281     1.0000 0.95290  0.66397  0.55754  Biso   1.000  N
  N282     1.0000 0.89860  0.86260  0.72128  Biso   1.000  N
  N283     1.0000 0.91500  0.85426  0.69324  Biso   1.000  N
  C191     1.0000 0.72713  0.88610  0.58120  Biso   1.000  C
  N284     1.0000 0.71830  0.87770  0.55321  Biso   1.000  N
  N285     1.0000 0.64379  0.88679  0.54426  Biso   1.000  N
  N286     1.0000 0.60657  0.90081  0.56674  Biso   1.000  N
  N287     1.0000 0.65806  0.90039  0.58956  Biso   1.000  N
  C192     1.0000 0.02080  0.67825  0.54741  Biso   1.000  C
  N288     1.0000 0.06760  0.65873  0.53126  Biso   1.000  N
  Cu33     1.0000 0.49882  0.57121  0.93755  Biso   1.000  Cu
  Cu34     1.0000 0.56845  0.59204  0.01052  Biso   1.000  Cu
  C193     1.0000 0.46670  0.50459  0.83652  Biso   1.000  C
  C194     1.0000 0.41770  0.52137  0.81749  Biso   1.000  C
  H65      1.0000 0.40380  0.54170  0.82220  Biso   1.000  H
  C195     1.0000 0.38840  0.50843  0.79142  Biso   1.000  C
  C196     1.0000 0.40910  0.47774  0.78482  Biso   1.000  C
  H66      1.0000 0.39000  0.46870  0.76750  Biso   1.000  H
  C197     1.0000 0.45790  0.46074  0.80386  Biso   1.000  C
  C198     1.0000 0.48820  0.47447  0.82950  Biso   1.000  C
  H67      1.0000 0.52300  0.46330  0.84190  Biso   1.000  H
  C199     1.0000 0.69740  0.63101  0.87888  Biso   1.000  C
  H68      1.0000 0.74600  0.63500  0.88910  Biso   1.000  H
  C200     1.0000 0.69770  0.63109  0.84822  Biso   1.000  C
  N289     1.0000 0.56530  0.50547  0.87778  Biso   1.000  N
  C201     1.0000 0.50060  0.51745  0.86361  Biso   1.000  C
  N290     1.0000 0.47210  0.54128  0.87938  Biso   1.000  N
  N291     1.0000 0.51926  0.54400  0.90329  Biso   1.000  N
  N292     1.0000 0.57690  0.52188  0.90231  Biso   1.000  N
  N293     1.0000 0.28537  0.54837  0.77447  Biso   1.000  N
  N294     1.0000 0.25750  0.55776  0.74838  Biso   1.000  N
  N295     1.0000 0.29430  0.54070  0.72774  Biso   1.000  N
  N296     1.0000 0.34490  0.52077  0.74108  Biso   1.000  N
  C202     1.0000 0.33938  0.52552  0.76996  Biso   1.000  C
  N297     1.0000 0.47490  0.38147  0.78153  Biso   1.000  N
  N298     1.0000 0.54310  0.38493  0.79687  Biso   1.000  N
  N299     1.0000 0.54710  0.41397  0.80754  Biso   1.000  N
  N300     1.0000 0.60140  0.61260  0.97128  Biso   1.000  N
  N301     1.0000 0.58500  0.60426  0.94324  Biso   1.000  N
  C203     1.0000 0.77287  0.63610  0.83120  Biso   1.000  C
  N302     1.0000 0.78170  0.62770  0.80321  Biso   1.000  N
  N303     1.0000 0.85621  0.63679  0.79426  Biso   1.000  N
  N304     1.0000 0.89343  0.65081  0.81674  Biso   1.000  N
  N305     1.0000 0.84194  0.65039  0.83956  Biso   1.000  N
  C204     1.0000 0.47920  0.42825  0.79741  Biso   1.000  C
  N306     1.0000 0.43240  0.40873  0.78126  Biso   1.000  N
  Cu35     1.0000 0.49882  0.07121  0.43755  Biso   1.000  Cu
  Cu36     1.0000 0.56845  0.09204  0.51052  Biso   1.000  Cu
  C205     1.0000 0.46670  0.00459  0.33652  Biso   1.000  C
  C206     1.0000 0.41770  0.02137  0.31749  Biso   1.000  C
  H69      1.0000 0.40380  0.04170  0.32220  Biso   1.000  H
  C207     1.0000 0.38840  0.00843  0.29142  Biso   1.000  C
  C208     1.0000 0.40910  0.97774  0.28482  Biso   1.000  C
  H70      1.0000 0.39000  0.96870  0.26750  Biso   1.000  H
  C209     1.0000 0.45790  0.96074  0.30386  Biso   1.000  C
  C210     1.0000 0.48820  0.97447  0.32950  Biso   1.000  C
  H71      1.0000 0.52300  0.96330  0.34190  Biso   1.000  H
  C211     1.0000 0.69740  0.13101  0.37888  Biso   1.000  C
  H72      1.0000 0.74600  0.13500  0.38910  Biso   1.000  H
  C212     1.0000 0.69770  0.13109  0.34822  Biso   1.000  C
  N307     1.0000 0.56530  0.00547  0.37778  Biso   1.000  N
  C213     1.0000 0.50060  0.01745  0.36361  Biso   1.000  C
  N308     1.0000 0.47210  0.04128  0.37938  Biso   1.000  N
  N309     1.0000 0.51926  0.04400  0.40329  Biso   1.000  N
  N310     1.0000 0.57690  0.02188  0.40231  Biso   1.000  N
  N311     1.0000 0.28537  0.04837  0.27447  Biso   1.000  N
  N312     1.0000 0.25750  0.05776  0.24838  Biso   1.000  N
  N313     1.0000 0.29430  0.04070  0.22774  Biso   1.000  N
  N314     1.0000 0.34490  0.02077  0.24108  Biso   1.000  N
  C214     1.0000 0.33938  0.02552  0.26996  Biso   1.000  C
  N315     1.0000 0.47490  0.88147  0.28153  Biso   1.000  N
  N316     1.0000 0.54310  0.88493  0.29687  Biso   1.000  N
  N317     1.0000 0.54710  0.91397  0.30754  Biso   1.000  N
  N318     1.0000 0.60140  0.11260  0.47128  Biso   1.000  N
  N319     1.0000 0.58500  0.10426  0.44324  Biso   1.000  N
  C215     1.0000 0.77287  0.13610  0.33120  Biso   1.000  C
  N320     1.0000 0.78170  0.12770  0.30321  Biso   1.000  N
  N321     1.0000 0.85621  0.13679  0.29426  Biso   1.000  N
  N322     1.0000 0.89343  0.15081  0.31674  Biso   1.000  N
  N323     1.0000 0.84194  0.15039  0.33956  Biso   1.000  N
  C216     1.0000 0.47920  0.92825  0.29741  Biso   1.000  C
  N324     1.0000 0.43240  0.90873  0.28126  Biso   1.000  N
  Cu37     1.0000 0.99882  0.57121  0.43755  Biso   1.000  Cu
  Cu38     1.0000 0.06845  0.59204  0.51052  Biso   1.000  Cu
  C217     1.0000 0.96670  0.50459  0.33652  Biso   1.000  C
  C218     1.0000 0.91770  0.52137  0.31749  Biso   1.000  C
  H73      1.0000 0.90380  0.54170  0.32220  Biso   1.000  H
  C219     1.0000 0.88840  0.50843  0.29142  Biso   1.000  C
  C220     1.0000 0.90910  0.47774  0.28482  Biso   1.000  C
  H74      1.0000 0.89000  0.46870  0.26750  Biso   1.000  H
  C221     1.0000 0.95790  0.46074  0.30386  Biso   1.000  C
  C222     1.0000 0.98820  0.47447  0.32950  Biso   1.000  C
  H75      1.0000 0.02300  0.46330  0.34190  Biso   1.000  H
  C223     1.0000 0.19740  0.63101  0.37888  Biso   1.000  C
  H76      1.0000 0.24600  0.63500  0.38910  Biso   1.000  H
  C224     1.0000 0.19770  0.63109  0.34822  Biso   1.000  C
  N325     1.0000 0.06530  0.50547  0.37778  Biso   1.000  N
  C225     1.0000 0.00060  0.51745  0.36361  Biso   1.000  C
  N326     1.0000 0.97210  0.54128  0.37938  Biso   1.000  N
  N327     1.0000 0.01926  0.54400  0.40329  Biso   1.000  N
  N328     1.0000 0.07690  0.52188  0.40231  Biso   1.000  N
  N329     1.0000 0.78537  0.54837  0.27447  Biso   1.000  N
  N330     1.0000 0.75750  0.55776  0.24838  Biso   1.000  N
  N331     1.0000 0.79430  0.54070  0.22774  Biso   1.000  N
  N332     1.0000 0.84490  0.52077  0.24108  Biso   1.000  N
  C226     1.0000 0.83938  0.52552  0.26996  Biso   1.000  C
  N333     1.0000 0.97490  0.38147  0.28153  Biso   1.000  N
  N334     1.0000 0.04310  0.38493  0.29687  Biso   1.000  N
  N335     1.0000 0.04710  0.41397  0.30754  Biso   1.000  N
  N336     1.0000 0.10140  0.61260  0.47128  Biso   1.000  N
  N337     1.0000 0.08500  0.60426  0.44324  Biso   1.000  N
  C227     1.0000 0.27287  0.63610  0.33120  Biso   1.000  C
  N338     1.0000 0.28170  0.62770  0.30321  Biso   1.000  N
  N339     1.0000 0.35621  0.63679  0.29426  Biso   1.000  N
  N340     1.0000 0.39343  0.65081  0.31674  Biso   1.000  N
  N341     1.0000 0.34194  0.65039  0.33956  Biso   1.000  N
  C228     1.0000 0.97920  0.42825  0.29741  Biso   1.000  C
  N342     1.0000 0.93240  0.40873  0.28126  Biso   1.000  N
  Cu39     1.0000 0.99882  0.07121  0.93755  Biso   1.000  Cu
  Cu40     1.0000 0.06845  0.09204  0.01052  Biso   1.000  Cu
  C229     1.0000 0.96670  0.00459  0.83652  Biso   1.000  C
  C230     1.0000 0.91770  0.02137  0.81749  Biso   1.000  C
  H77      1.0000 0.90380  0.04170  0.82220  Biso   1.000  H
  C231     1.0000 0.88840  0.00843  0.79142  Biso   1.000  C
  C232     1.0000 0.90910  0.97774  0.78482  Biso   1.000  C
  H78      1.0000 0.89000  0.96870  0.76750  Biso   1.000  H
  C233     1.0000 0.95790  0.96074  0.80386  Biso   1.000  C
  C234     1.0000 0.98820  0.97447  0.82950  Biso   1.000  C
  H79      1.0000 0.02300  0.96330  0.84190  Biso   1.000  H
  C235     1.0000 0.19740  0.13101  0.87888  Biso   1.000  C
  H80      1.0000 0.24600  0.13500  0.88910  Biso   1.000  H
  C236     1.0000 0.19770  0.13109  0.84822  Biso   1.000  C
  N343     1.0000 0.06530  0.00547  0.87778  Biso   1.000  N
  C237     1.0000 0.00060  0.01745  0.86361  Biso   1.000  C
  N344     1.0000 0.97210  0.04128  0.87938  Biso   1.000  N
  N345     1.0000 0.01926  0.04400  0.90329  Biso   1.000  N
  N346     1.0000 0.07690  0.02188  0.90231  Biso   1.000  N
  N347     1.0000 0.78537  0.04837  0.77447  Biso   1.000  N
  N348     1.0000 0.75750  0.05776  0.74838  Biso   1.000  N
  N349     1.0000 0.79430  0.04070  0.72774  Biso   1.000  N
  N350     1.0000 0.84490  0.02077  0.74108  Biso   1.000  N
  C238     1.0000 0.83938  0.02552  0.76996  Biso   1.000  C
  N351     1.0000 0.97490  0.88147  0.78153  Biso   1.000  N
  N352     1.0000 0.04310  0.88493  0.79687  Biso   1.000  N
  N353     1.0000 0.04710  0.91397  0.80754  Biso   1.000  N
  N354     1.0000 0.10140  0.11260  0.97128  Biso   1.000  N
  N355     1.0000 0.08500  0.10426  0.94324  Biso   1.000  N
  C239     1.0000 0.27287  0.13610  0.83120  Biso   1.000  C
  N356     1.0000 0.28170  0.12770  0.80321  Biso   1.000  N
  N357     1.0000 0.35621  0.13679  0.79426  Biso   1.000  N
  N358     1.0000 0.39343  0.15081  0.81674  Biso   1.000  N
  N359     1.0000 0.34194  0.15039  0.83956  Biso   1.000  N
  C240     1.0000 0.97920  0.92825  0.79741  Biso   1.000  C
  N360     1.0000 0.93240  0.90873  0.78126  Biso   1.000  N
  Cu41     1.0000 0.75118  0.67879  0.93755  Biso   1.000  Cu
  Cu42     1.0000 0.68155  0.65796  0.01052  Biso   1.000  Cu
  C241     1.0000 0.78330  0.74541  0.83652  Biso   1.000  C
  C242     1.0000 0.83230  0.72863  0.81749  Biso   1.000  C
  H81      1.0000 0.84620  0.70830  0.82220  Biso   1.000  H
  C243     1.0000 0.86160  0.74157  0.79142  Biso   1.000  C
  C244     1.0000 0.84090  0.77226  0.78482  Biso   1.000  C
  H82      1.0000 0.86000  0.78130  0.76750  Biso   1.000  H
  C245     1.0000 0.79210  0.78926  0.80386  Biso   1.000  C
  C246     1.0000 0.76180  0.77553  0.82950  Biso   1.000  C
  H83      1.0000 0.72700  0.78670  0.84190  Biso   1.000  H
  C247     1.0000 0.55260  0.61899  0.87888  Biso   1.000  C
  H84      1.0000 0.50400  0.61500  0.88910  Biso   1.000  H
  C248     1.0000 0.55230  0.61891  0.84822  Biso   1.000  C
  N361     1.0000 0.68470  0.74453  0.87778  Biso   1.000  N
  C249     1.0000 0.74940  0.73255  0.86361  Biso   1.000  C
  N362     1.0000 0.77790  0.70872  0.87938  Biso   1.000  N
  N363     1.0000 0.73074  0.70600  0.90329  Biso   1.000  N
  N364     1.0000 0.67310  0.72812  0.90231  Biso   1.000  N
  N365     1.0000 0.96463  0.70163  0.77447  Biso   1.000  N
  N366     1.0000 0.99250  0.69224  0.74838  Biso   1.000  N
  N367     1.0000 0.95570  0.70930  0.72774  Biso   1.000  N
  N368     1.0000 0.90510  0.72923  0.74108  Biso   1.000  N
  C250     1.0000 0.91062  0.72448  0.76996  Biso   1.000  C
  N369     1.0000 0.77510  0.86853  0.78153  Biso   1.000  N
  N370     1.0000 0.70690  0.86507  0.79687  Biso   1.000  N
  N371     1.0000 0.70290  0.83603  0.80754  Biso   1.000  N
  N372     1.0000 0.64860  0.63740  0.97128  Biso   1.000  N
  N373     1.0000 0.66500  0.64574  0.94324  Biso   1.000  N
  C251     1.0000 0.47713  0.61390  0.83120  Biso   1.000  C
  N374     1.0000 0.46830  0.62230  0.80321  Biso   1.000  N
  N375     1.0000 0.39379  0.61321  0.79426  Biso   1.000  N
  N376     1.0000 0.35657  0.59919  0.81674  Biso   1.000  N
  N377     1.0000 0.40806  0.59961  0.83956  Biso   1.000  N
  C252     1.0000 0.77080  0.82175  0.79741  Biso   1.000  C
  N378     1.0000 0.81760  0.84127  0.78126  Biso   1.000  N
  Cu43     1.0000 0.75118  0.17879  0.43755  Biso   1.000  Cu
  Cu44     1.0000 0.68155  0.15796  0.51052  Biso   1.000  Cu
  C253     1.0000 0.78330  0.24541  0.33652  Biso   1.000  C
  C254     1.0000 0.83230  0.22863  0.31749  Biso   1.000  C
  H85      1.0000 0.84620  0.20830  0.32220  Biso   1.000  H
  C255     1.0000 0.86160  0.24157  0.29142  Biso   1.000  C
  C256     1.0000 0.84090  0.27226  0.28482  Biso   1.000  C
  H86      1.0000 0.86000  0.28130  0.26750  Biso   1.000  H
  C257     1.0000 0.79210  0.28926  0.30386  Biso   1.000  C
  C258     1.0000 0.76180  0.27553  0.32950  Biso   1.000  C
  H87      1.0000 0.72700  0.28670  0.34190  Biso   1.000  H
  C259     1.0000 0.55260  0.11899  0.37888  Biso   1.000  C
  H88      1.0000 0.50400  0.11500  0.38910  Biso   1.000  H
  C260     1.0000 0.55230  0.11891  0.34822  Biso   1.000  C
  N379     1.0000 0.68470  0.24453  0.37778  Biso   1.000  N
  C261     1.0000 0.74940  0.23255  0.36361  Biso   1.000  C
  N380     1.0000 0.77790  0.20872  0.37938  Biso   1.000  N
  N381     1.0000 0.73074  0.20600  0.40329  Biso   1.000  N
  N382     1.0000 0.67310  0.22812  0.40231  Biso   1.000  N
  N383     1.0000 0.96463  0.20163  0.27447  Biso   1.000  N
  N384     1.0000 0.99250  0.19224  0.24838  Biso   1.000  N
  N385     1.0000 0.95570  0.20930  0.22774  Biso   1.000  N
  N386     1.0000 0.90510  0.22923  0.24108  Biso   1.000  N
  C262     1.0000 0.91062  0.22448  0.26996  Biso   1.000  C
  N387     1.0000 0.77510  0.36853  0.28153  Biso   1.000  N
  N388     1.0000 0.70690  0.36507  0.29687  Biso   1.000  N
  N389     1.0000 0.70290  0.33603  0.30754  Biso   1.000  N
  N390     1.0000 0.64860  0.13740  0.47128  Biso   1.000  N
  N391     1.0000 0.66500  0.14574  0.44324  Biso   1.000  N
  C263     1.0000 0.47713  0.11390  0.33120  Biso   1.000  C
  N392     1.0000 0.46830  0.12230  0.30321  Biso   1.000  N
  N393     1.0000 0.39379  0.11321  0.29426  Biso   1.000  N
  N394     1.0000 0.35657  0.09919  0.31674  Biso   1.000  N
  N395     1.0000 0.40806  0.09961  0.33956  Biso   1.000  N
  C264     1.0000 0.77080  0.32175  0.29741  Biso   1.000  C
  N396     1.0000 0.81760  0.34127  0.28126  Biso   1.000  N
  Cu45     1.0000 0.25118  0.67879  0.43755  Biso   1.000  Cu
  Cu46     1.0000 0.18155  0.65796  0.51052  Biso   1.000  Cu
  C265     1.0000 0.28330  0.74541  0.33652  Biso   1.000  C
  C266     1.0000 0.33230  0.72863  0.31749  Biso   1.000  C
  H89      1.0000 0.34620  0.70830  0.32220  Biso   1.000  H
  C267     1.0000 0.36160  0.74157  0.29142  Biso   1.000  C
  C268     1.0000 0.34090  0.77226  0.28482  Biso   1.000  C
  H90      1.0000 0.36000  0.78130  0.26750  Biso   1.000  H
  C269     1.0000 0.29210  0.78926  0.30386  Biso   1.000  C
  C270     1.0000 0.26180  0.77553  0.32950  Biso   1.000  C
  H91      1.0000 0.22700  0.78670  0.34190  Biso   1.000  H
  C271     1.0000 0.05260  0.61899  0.37888  Biso   1.000  C
  H92      1.0000 0.00400  0.61500  0.38910  Biso   1.000  H
  C272     1.0000 0.05230  0.61891  0.34822  Biso   1.000  C
  N397     1.0000 0.18470  0.74453  0.37778  Biso   1.000  N
  C273     1.0000 0.24940  0.73255  0.36361  Biso   1.000  C
  N398     1.0000 0.27790  0.70872  0.37938  Biso   1.000  N
  N399     1.0000 0.23074  0.70600  0.40329  Biso   1.000  N
  N400     1.0000 0.17310  0.72812  0.40231  Biso   1.000  N
  N401     1.0000 0.46463  0.70163  0.27447  Biso   1.000  N
  N402     1.0000 0.49250  0.69224  0.24838  Biso   1.000  N
  N403     1.0000 0.45570  0.70930  0.22774  Biso   1.000  N
  N404     1.0000 0.40510  0.72923  0.24108  Biso   1.000  N
  C274     1.0000 0.41062  0.72448  0.26996  Biso   1.000  C
  N405     1.0000 0.27510  0.86853  0.28153  Biso   1.000  N
  N406     1.0000 0.20690  0.86507  0.29687  Biso   1.000  N
  N407     1.0000 0.20290  0.83603  0.30754  Biso   1.000  N
  N408     1.0000 0.14860  0.63740  0.47128  Biso   1.000  N
  N409     1.0000 0.16500  0.64574  0.44324  Biso   1.000  N
  C275     1.0000 0.97713  0.61390  0.33120  Biso   1.000  C
  N410     1.0000 0.96830  0.62230  0.30321  Biso   1.000  N
  N411     1.0000 0.89379  0.61321  0.29426  Biso   1.000  N
  N412     1.0000 0.85657  0.59919  0.31674  Biso   1.000  N
  N413     1.0000 0.90806  0.59961  0.33956  Biso   1.000  N
  C276     1.0000 0.27080  0.82175  0.29741  Biso   1.000  C
  N414     1.0000 0.31760  0.84127  0.28126  Biso   1.000  N
  Cu47     1.0000 0.25118  0.17879  0.93755  Biso   1.000  Cu
  Cu48     1.0000 0.18155  0.15796  0.01052  Biso   1.000  Cu
  C277     1.0000 0.28330  0.24541  0.83652  Biso   1.000  C
  C278     1.0000 0.33230  0.22863  0.81749  Biso   1.000  C
  H93      1.0000 0.34620  0.20830  0.82220  Biso   1.000  H
  C279     1.0000 0.36160  0.24157  0.79142  Biso   1.000  C
  C280     1.0000 0.34090  0.27226  0.78482  Biso   1.000  C
  H94      1.0000 0.36000  0.28130  0.76750  Biso   1.000  H
  C281     1.0000 0.29210  0.28926  0.80386  Biso   1.000  C
  C282     1.0000 0.26180  0.27553  0.82950  Biso   1.000  C
  H95      1.0000 0.22700  0.28670  0.84190  Biso   1.000  H
  C283     1.0000 0.05260  0.11899  0.87888  Biso   1.000  C
  H96      1.0000 0.00400  0.11500  0.88910  Biso   1.000  H
  C284     1.0000 0.05230  0.11891  0.84822  Biso   1.000  C
  N415     1.0000 0.18470  0.24453  0.87778  Biso   1.000  N
  C285     1.0000 0.24940  0.23255  0.86361  Biso   1.000  C
  N416     1.0000 0.27790  0.20872  0.87938  Biso   1.000  N
  N417     1.0000 0.23074  0.20600  0.90329  Biso   1.000  N
  N418     1.0000 0.17310  0.22812  0.90231  Biso   1.000  N
  N419     1.0000 0.46463  0.20163  0.77447  Biso   1.000  N
  N420     1.0000 0.49250  0.19224  0.74838  Biso   1.000  N
  N421     1.0000 0.45570  0.20930  0.72774  Biso   1.000  N
  N422     1.0000 0.40510  0.22923  0.74108  Biso   1.000  N
  C286     1.0000 0.41062  0.22448  0.76996  Biso   1.000  C
  N423     1.0000 0.27510  0.36853  0.78153  Biso   1.000  N
  N424     1.0000 0.20690  0.36507  0.79687  Biso   1.000  N
  N425     1.0000 0.20290  0.33603  0.80754  Biso   1.000  N
  N426     1.0000 0.14860  0.13740  0.97128  Biso   1.000  N
  N427     1.0000 0.16500  0.14574  0.94324  Biso   1.000  N
  C287     1.0000 0.97713  0.11390  0.83120  Biso   1.000  C
  N428     1.0000 0.96830  0.12230  0.80321  Biso   1.000  N
  N429     1.0000 0.89379  0.11321  0.79426  Biso   1.000  N
  N430     1.0000 0.85657  0.09919  0.81674  Biso   1.000  N
  N431     1.0000 0.90806  0.09961  0.83956  Biso   1.000  N
  C288     1.0000 0.27080  0.32175  0.79741  Biso   1.000  C
  N432     1.0000 0.31760  0.34127  0.78126  Biso   1.000  N
  Cu49     1.0000 0.75118  0.57121  0.31245  Biso   1.000  Cu
  Cu50     1.0000 0.68155  0.59204  0.23948  Biso   1.000  Cu
  C289     1.0000 0.78330  0.50459  0.41348  Biso   1.000  C
  C290     1.0000 0.83230  0.52137  0.43251  Biso   1.000  C
  H97      1.0000 0.84620  0.54170  0.42780  Biso   1.000  H
  C291     1.0000 0.86160  0.50843  0.45858  Biso   1.000  C
  C292     1.0000 0.84090  0.47774  0.46518  Biso   1.000  C
  H98      1.0000 0.86000  0.46870  0.48250  Biso   1.000  H
  C293     1.0000 0.79210  0.46074  0.44614  Biso   1.000  C
  C294     1.0000 0.76180  0.47447  0.42050  Biso   1.000  C
  H99      1.0000 0.72700  0.46330  0.40810  Biso   1.000  H
  C295     1.0000 0.55260  0.63101  0.37112  Biso   1.000  C
  H100     1.0000 0.50400  0.63500  0.36090  Biso   1.000  H
  C296     1.0000 0.55230  0.63109  0.40178  Biso   1.000  C
  N433     1.0000 0.68470  0.50547  0.37222  Biso   1.000  N
  C297     1.0000 0.74940  0.51745  0.38639  Biso   1.000  C
  N434     1.0000 0.77790  0.54128  0.37062  Biso   1.000  N
  N435     1.0000 0.73074  0.54400  0.34671  Biso   1.000  N
  N436     1.0000 0.67310  0.52188  0.34769  Biso   1.000  N
  N437     1.0000 0.96463  0.54837  0.47553  Biso   1.000  N
  N438     1.0000 0.99250  0.55776  0.50162  Biso   1.000  N
  N439     1.0000 0.95570  0.54070  0.52226  Biso   1.000  N
  N440     1.0000 0.90510  0.52077  0.50892  Biso   1.000  N
  C298     1.0000 0.91062  0.52552  0.48004  Biso   1.000  C
  N441     1.0000 0.77510  0.38147  0.46847  Biso   1.000  N
  N442     1.0000 0.70690  0.38493  0.45313  Biso   1.000  N
  N443     1.0000 0.70290  0.41397  0.44246  Biso   1.000  N
  N444     1.0000 0.64860  0.61260  0.27872  Biso   1.000  N
  N445     1.0000 0.66500  0.60426  0.30676  Biso   1.000  N
  C299     1.0000 0.47713  0.63610  0.41880  Biso   1.000  C
  N446     1.0000 0.46830  0.62770  0.44679  Biso   1.000  N
  N447     1.0000 0.39379  0.63679  0.45574  Biso   1.000  N
  N448     1.0000 0.35657  0.65081  0.43326  Biso   1.000  N
  N449     1.0000 0.40806  0.65039  0.41044  Biso   1.000  N
  C300     1.0000 0.77080  0.42825  0.45259  Biso   1.000  C
  N450     1.0000 0.81760  0.40873  0.46874  Biso   1.000  N
  Cu51     1.0000 0.75118  0.07121  0.81245  Biso   1.000  Cu
  Cu52     1.0000 0.68155  0.09204  0.73948  Biso   1.000  Cu
  C301     1.0000 0.78330  0.00459  0.91348  Biso   1.000  C
  C302     1.0000 0.83230  0.02137  0.93251  Biso   1.000  C
  H101     1.0000 0.84620  0.04170  0.92780  Biso   1.000  H
  C303     1.0000 0.86160  0.00843  0.95858  Biso   1.000  C
  C304     1.0000 0.84090  0.97774  0.96518  Biso   1.000  C
  H102     1.0000 0.86000  0.96870  0.98250  Biso   1.000  H
  C305     1.0000 0.79210  0.96074  0.94614  Biso   1.000  C
  C306     1.0000 0.76180  0.97447  0.92050  Biso   1.000  C
  H103     1.0000 0.72700  0.96330  0.90810  Biso   1.000  H
  C307     1.0000 0.55260  0.13101  0.87112  Biso   1.000  C
  H104     1.0000 0.50400  0.13500  0.86090  Biso   1.000  H
  C308     1.0000 0.55230  0.13109  0.90178  Biso   1.000  C
  N451     1.0000 0.68470  0.00547  0.87222  Biso   1.000  N
  C309     1.0000 0.74940  0.01745  0.88639  Biso   1.000  C
  N452     1.0000 0.77790  0.04128  0.87062  Biso   1.000  N
  N453     1.0000 0.73074  0.04400  0.84671  Biso   1.000  N
  N454     1.0000 0.67310  0.02188  0.84769  Biso   1.000  N
  N455     1.0000 0.96463  0.04837  0.97553  Biso   1.000  N
  N456     1.0000 0.99250  0.05776  0.00162  Biso   1.000  N
  N457     1.0000 0.95570  0.04070  0.02226  Biso   1.000  N
  N458     1.0000 0.90510  0.02077  0.00892  Biso   1.000  N
  C310     1.0000 0.91062  0.02552  0.98004  Biso   1.000  C
  N459     1.0000 0.77510  0.88147  0.96847  Biso   1.000  N
  N460     1.0000 0.70690  0.88493  0.95313  Biso   1.000  N
  N461     1.0000 0.70290  0.91397  0.94246  Biso   1.000  N
  N462     1.0000 0.64860  0.11260  0.77872  Biso   1.000  N
  N463     1.0000 0.66500  0.10426  0.80676  Biso   1.000  N
  C311     1.0000 0.47713  0.13610  0.91880  Biso   1.000  C
  N464     1.0000 0.46830  0.12770  0.94679  Biso   1.000  N
  N465     1.0000 0.39379  0.13679  0.95574  Biso   1.000  N
  N466     1.0000 0.35657  0.15081  0.93326  Biso   1.000  N
  N467     1.0000 0.40806  0.15039  0.91044  Biso   1.000  N
  C312     1.0000 0.77080  0.92825  0.95259  Biso   1.000  C
  N468     1.0000 0.81760  0.90873  0.96874  Biso   1.000  N
  Cu53     1.0000 0.25118  0.57121  0.81245  Biso   1.000  Cu
  Cu54     1.0000 0.18155  0.59204  0.73948  Biso   1.000  Cu
  C313     1.0000 0.28330  0.50459  0.91348  Biso   1.000  C
  C314     1.0000 0.33230  0.52137  0.93251  Biso   1.000  C
  H105     1.0000 0.34620  0.54170  0.92780  Biso   1.000  H
  C315     1.0000 0.36160  0.50843  0.95858  Biso   1.000  C
  C316     1.0000 0.34090  0.47774  0.96518  Biso   1.000  C
  H106     1.0000 0.36000  0.46870  0.98250  Biso   1.000  H
  C317     1.0000 0.29210  0.46074  0.94614  Biso   1.000  C
  C318     1.0000 0.26180  0.47447  0.92050  Biso   1.000  C
  H107     1.0000 0.22700  0.46330  0.90810  Biso   1.000  H
  C319     1.0000 0.05260  0.63101  0.87112  Biso   1.000  C
  H108     1.0000 0.00400  0.63500  0.86090  Biso   1.000  H
  C320     1.0000 0.05230  0.63109  0.90178  Biso   1.000  C
  N469     1.0000 0.18470  0.50547  0.87222  Biso   1.000  N
  C321     1.0000 0.24940  0.51745  0.88639  Biso   1.000  C
  N470     1.0000 0.27790  0.54128  0.87062  Biso   1.000  N
  N471     1.0000 0.23074  0.54400  0.84671  Biso   1.000  N
  N472     1.0000 0.17310  0.52188  0.84769  Biso   1.000  N
  N473     1.0000 0.46463  0.54837  0.97553  Biso   1.000  N
  N474     1.0000 0.49250  0.55776  0.00162  Biso   1.000  N
  N475     1.0000 0.45570  0.54070  0.02226  Biso   1.000  N
  N476     1.0000 0.40510  0.52077  0.00892  Biso   1.000  N
  C322     1.0000 0.41062  0.52552  0.98004  Biso   1.000  C
  N477     1.0000 0.27510  0.38147  0.96847  Biso   1.000  N
  N478     1.0000 0.20690  0.38493  0.95313  Biso   1.000  N
  N479     1.0000 0.20290  0.41397  0.94246  Biso   1.000  N
  N480     1.0000 0.14860  0.61260  0.77872  Biso   1.000  N
  N481     1.0000 0.16500  0.60426  0.80676  Biso   1.000  N
  C323     1.0000 0.97713  0.63610  0.91880  Biso   1.000  C
  N482     1.0000 0.96830  0.62770  0.94679  Biso   1.000  N
  N483     1.0000 0.89379  0.63679  0.95574  Biso   1.000  N
  N484     1.0000 0.85657  0.65081  0.93326  Biso   1.000  N
  N485     1.0000 0.90806  0.65039  0.91044  Biso   1.000  N
  C324     1.0000 0.27080  0.42825  0.95259  Biso   1.000  C
  N486     1.0000 0.31760  0.40873  0.96874  Biso   1.000  N
  Cu55     1.0000 0.25118  0.07121  0.31245  Biso   1.000  Cu
  Cu56     1.0000 0.18155  0.09204  0.23948  Biso   1.000  Cu
  C325     1.0000 0.28330  0.00459  0.41348  Biso   1.000  C
  C326     1.0000 0.33230  0.02137  0.43251  Biso   1.000  C
  H109     1.0000 0.34620  0.04170  0.42780  Biso   1.000  H
  C327     1.0000 0.36160  0.00843  0.45858  Biso   1.000  C
  C328     1.0000 0.34090  0.97774  0.46518  Biso   1.000  C
  H110     1.0000 0.36000  0.96870  0.48250  Biso   1.000  H
  C329     1.0000 0.29210  0.96074  0.44614  Biso   1.000  C
  C330     1.0000 0.26180  0.97447  0.42050  Biso   1.000  C
  H111     1.0000 0.22700  0.96330  0.40810  Biso   1.000  H
  C331     1.0000 0.05260  0.13101  0.37112  Biso   1.000  C
  H112     1.0000 0.00400  0.13500  0.36090  Biso   1.000  H
  C332     1.0000 0.05230  0.13109  0.40178  Biso   1.000  C
  N487     1.0000 0.18470  0.00547  0.37222  Biso   1.000  N
  C333     1.0000 0.24940  0.01745  0.38639  Biso   1.000  C
  N488     1.0000 0.27790  0.04128  0.37062  Biso   1.000  N
  N489     1.0000 0.23074  0.04400  0.34671  Biso   1.000  N
  N490     1.0000 0.17310  0.02188  0.34769  Biso   1.000  N
  N491     1.0000 0.46463  0.04837  0.47553  Biso   1.000  N
  N492     1.0000 0.49250  0.05776  0.50162  Biso   1.000  N
  N493     1.0000 0.45570  0.04070  0.52226  Biso   1.000  N
  N494     1.0000 0.40510  0.02077  0.50892  Biso   1.000  N
  C334     1.0000 0.41062  0.02552  0.48004  Biso   1.000  C
  N495     1.0000 0.27510  0.88147  0.46847  Biso   1.000  N
  N496     1.0000 0.20690  0.88493  0.45313  Biso   1.000  N
  N497     1.0000 0.20290  0.91397  0.44246  Biso   1.000  N
  N498     1.0000 0.14860  0.11260  0.27872  Biso   1.000  N
  N499     1.0000 0.16500  0.10426  0.30676  Biso   1.000  N
  C335     1.0000 0.97713  0.13610  0.41880  Biso   1.000  C
  N500     1.0000 0.96830  0.12770  0.44679  Biso   1.000  N
  N501     1.0000 0.89379  0.13679  0.45574  Biso   1.000  N
  N502     1.0000 0.85657  0.15081  0.43326  Biso   1.000  N
  N503     1.0000 0.90806  0.15039  0.41044  Biso   1.000  N
  C336     1.0000 0.27080  0.92825  0.45259  Biso   1.000  C
  N504     1.0000 0.31760  0.90873  0.46874  Biso   1.000  N
  Cu57     1.0000 0.49882  0.67879  0.31245  Biso   1.000  Cu
  Cu58     1.0000 0.56845  0.65796  0.23948  Biso   1.000  Cu
  C337     1.0000 0.46670  0.74541  0.41348  Biso   1.000  C
  C338     1.0000 0.41770  0.72863  0.43251  Biso   1.000  C
  H113     1.0000 0.40380  0.70830  0.42780  Biso   1.000  H
  C339     1.0000 0.38840  0.74157  0.45858  Biso   1.000  C
  C340     1.0000 0.40910  0.77226  0.46518  Biso   1.000  C
  H114     1.0000 0.39000  0.78130  0.48250  Biso   1.000  H
  C341     1.0000 0.45790  0.78926  0.44614  Biso   1.000  C
  C342     1.0000 0.48820  0.77553  0.42050  Biso   1.000  C
  H115     1.0000 0.52300  0.78670  0.40810  Biso   1.000  H
  C343     1.0000 0.69740  0.61899  0.37112  Biso   1.000  C
  H116     1.0000 0.74600  0.61500  0.36090  Biso   1.000  H
  C344     1.0000 0.69770  0.61891  0.40178  Biso   1.000  C
  N505     1.0000 0.56530  0.74453  0.37222  Biso   1.000  N
  C345     1.0000 0.50060  0.73255  0.38639  Biso   1.000  C
  N506     1.0000 0.47210  0.70872  0.37062  Biso   1.000  N
  N507     1.0000 0.51926  0.70600  0.34671  Biso   1.000  N
  N508     1.0000 0.57690  0.72812  0.34769  Biso   1.000  N
  N509     1.0000 0.28537  0.70163  0.47553  Biso   1.000  N
  N510     1.0000 0.25750  0.69224  0.50162  Biso   1.000  N
  N511     1.0000 0.29430  0.70930  0.52226  Biso   1.000  N
  N512     1.0000 0.34490  0.72923  0.50892  Biso   1.000  N
  C346     1.0000 0.33938  0.72448  0.48004  Biso   1.000  C
  N513     1.0000 0.47490  0.86853  0.46847  Biso   1.000  N
  N514     1.0000 0.54310  0.86507  0.45313  Biso   1.000  N
  N515     1.0000 0.54710  0.83603  0.44246  Biso   1.000  N
  N516     1.0000 0.60140  0.63740  0.27872  Biso   1.000  N
  N517     1.0000 0.58500  0.64574  0.30676  Biso   1.000  N
  C347     1.0000 0.77287  0.61390  0.41880  Biso   1.000  C
  N518     1.0000 0.78170  0.62230  0.44679  Biso   1.000  N
  N519     1.0000 0.85621  0.61321  0.45574  Biso   1.000  N
  N520     1.0000 0.89343  0.59919  0.43326  Biso   1.000  N
  N521     1.0000 0.84194  0.59961  0.41044  Biso   1.000  N
  C348     1.0000 0.47920  0.82175  0.45259  Biso   1.000  C
  N522     1.0000 0.43240  0.84127  0.46874  Biso   1.000  N
  Cu59     1.0000 0.49882  0.17879  0.81245  Biso   1.000  Cu
  Cu60     1.0000 0.56845  0.15796  0.73948  Biso   1.000  Cu
  C349     1.0000 0.46670  0.24541  0.91348  Biso   1.000  C
  C350     1.0000 0.41770  0.22863  0.93251  Biso   1.000  C
  H117     1.0000 0.40380  0.20830  0.92780  Biso   1.000  H
  C351     1.0000 0.38840  0.24157  0.95858  Biso   1.000  C
  C352     1.0000 0.40910  0.27226  0.96518  Biso   1.000  C
  H118     1.0000 0.39000  0.28130  0.98250  Biso   1.000  H
  C353     1.0000 0.45790  0.28926  0.94614  Biso   1.000  C
  C354     1.0000 0.48820  0.27553  0.92050  Biso   1.000  C
  H119     1.0000 0.52300  0.28670  0.90810  Biso   1.000  H
  C355     1.0000 0.69740  0.11899  0.87112  Biso   1.000  C
  H120     1.0000 0.74600  0.11500  0.86090  Biso   1.000  H
  C356     1.0000 0.69770  0.11891  0.90178  Biso   1.000  C
  N523     1.0000 0.56530  0.24453  0.87222  Biso   1.000  N
  C357     1.0000 0.50060  0.23255  0.88639  Biso   1.000  C
  N524     1.0000 0.47210  0.20872  0.87062  Biso   1.000  N
  N525     1.0000 0.51926  0.20600  0.84671  Biso   1.000  N
  N526     1.0000 0.57690  0.22812  0.84769  Biso   1.000  N
  N527     1.0000 0.28537  0.20163  0.97553  Biso   1.000  N
  N528     1.0000 0.25750  0.19224  0.00162  Biso   1.000  N
  N529     1.0000 0.29430  0.20930  0.02226  Biso   1.000  N
  N530     1.0000 0.34490  0.22923  0.00892  Biso   1.000  N
  C358     1.0000 0.33938  0.22448  0.98004  Biso   1.000  C
  N531     1.0000 0.47490  0.36853  0.96847  Biso   1.000  N
  N532     1.0000 0.54310  0.36507  0.95313  Biso   1.000  N
  N533     1.0000 0.54710  0.33603  0.94246  Biso   1.000  N
  N534     1.0000 0.60140  0.13740  0.77872  Biso   1.000  N
  N535     1.0000 0.58500  0.14574  0.80676  Biso   1.000  N
  C359     1.0000 0.77287  0.11390  0.91880  Biso   1.000  C
  N536     1.0000 0.78170  0.12230  0.94679  Biso   1.000  N
  N537     1.0000 0.85621  0.11321  0.95574  Biso   1.000  N
  N538     1.0000 0.89343  0.09919  0.93326  Biso   1.000  N
  N539     1.0000 0.84194  0.09961  0.91044  Biso   1.000  N
  C360     1.0000 0.47920  0.32175  0.95259  Biso   1.000  C
  N540     1.0000 0.43240  0.34127  0.96874  Biso   1.000  N
  Cu61     1.0000 0.99882  0.67879  0.81245  Biso   1.000  Cu
  Cu62     1.0000 0.06845  0.65796  0.73948  Biso   1.000  Cu
  C361     1.0000 0.96670  0.74541  0.91348  Biso   1.000  C
  C362     1.0000 0.91770  0.72863  0.93251  Biso   1.000  C
  H121     1.0000 0.90380  0.70830  0.92780  Biso   1.000  H
  C363     1.0000 0.88840  0.74157  0.95858  Biso   1.000  C
  C364     1.0000 0.90910  0.77226  0.96518  Biso   1.000  C
  H122     1.0000 0.89000  0.78130  0.98250  Biso   1.000  H
  C365     1.0000 0.95790  0.78926  0.94614  Biso   1.000  C
  C366     1.0000 0.98820  0.77553  0.92050  Biso   1.000  C
  H123     1.0000 0.02300  0.78670  0.90810  Biso   1.000  H
  C367     1.0000 0.19740  0.61899  0.87112  Biso   1.000  C
  H124     1.0000 0.24600  0.61500  0.86090  Biso   1.000  H
  C368     1.0000 0.19770  0.61891  0.90178  Biso   1.000  C
  N541     1.0000 0.06530  0.74453  0.87222  Biso   1.000  N
  C369     1.0000 0.00060  0.73255  0.88639  Biso   1.000  C
  N542     1.0000 0.97210  0.70872  0.87062  Biso   1.000  N
  N543     1.0000 0.01926  0.70600  0.84671  Biso   1.000  N
  N544     1.0000 0.07690  0.72812  0.84769  Biso   1.000  N
  N545     1.0000 0.78537  0.70163  0.97553  Biso   1.000  N
  N546     1.0000 0.75750  0.69224  0.00162  Biso   1.000  N
  N547     1.0000 0.79430  0.70930  0.02226  Biso   1.000  N
  N548     1.0000 0.84490  0.72923  0.00892  Biso   1.000  N
  C370     1.0000 0.83938  0.72448  0.98004  Biso   1.000  C
  N549     1.0000 0.97490  0.86853  0.96847  Biso   1.000  N
  N550     1.0000 0.04310  0.86507  0.95313  Biso   1.000  N
  N551     1.0000 0.04710  0.83603  0.94246  Biso   1.000  N
  N552     1.0000 0.10140  0.63740  0.77872  Biso   1.000  N
  N553     1.0000 0.08500  0.64574  0.80676  Biso   1.000  N
  C371     1.0000 0.27287  0.61390  0.91880  Biso   1.000  C
  N554     1.0000 0.28170  0.62230  0.94679  Biso   1.000  N
  N555     1.0000 0.35621  0.61321  0.95574  Biso   1.000  N
  N556     1.0000 0.39343  0.59919  0.93326  Biso   1.000  N
  N557     1.0000 0.34194  0.59961  0.91044  Biso   1.000  N
  C372     1.0000 0.97920  0.82175  0.95259  Biso   1.000  C
  N558     1.0000 0.93240  0.84127  0.96874  Biso   1.000  N
  Cu63     1.0000 0.99882  0.17879  0.31245  Biso   1.000  Cu
  Cu64     1.0000 0.06845  0.15796  0.23948  Biso   1.000  Cu
  C373     1.0000 0.96670  0.24541  0.41348  Biso   1.000  C
  C374     1.0000 0.91770  0.22863  0.43251  Biso   1.000  C
  H125     1.0000 0.90380  0.20830  0.42780  Biso   1.000  H
  C375     1.0000 0.88840  0.24157  0.45858  Biso   1.000  C
  C376     1.0000 0.90910  0.27226  0.46518  Biso   1.000  C
  H126     1.0000 0.89000  0.28130  0.48250  Biso   1.000  H
  C377     1.0000 0.95790  0.28926  0.44614  Biso   1.000  C
  C378     1.0000 0.98820  0.27553  0.42050  Biso   1.000  C
  H127     1.0000 0.02300  0.28670  0.40810  Biso   1.000  H
  C379     1.0000 0.19740  0.11899  0.37112  Biso   1.000  C
  H128     1.0000 0.24600  0.11500  0.36090  Biso   1.000  H
  C380     1.0000 0.19770  0.11891  0.40178  Biso   1.000  C
  N559     1.0000 0.06530  0.24453  0.37222  Biso   1.000  N
  C381     1.0000 0.00060  0.23255  0.38639  Biso   1.000  C
  N560     1.0000 0.97210  0.20872  0.37062  Biso   1.000  N
  N561     1.0000 0.01926  0.20600  0.34671  Biso   1.000  N
  N562     1.0000 0.07690  0.22812  0.34769  Biso   1.000  N
  N563     1.0000 0.78537  0.20163  0.47553  Biso   1.000  N
  N564     1.0000 0.75750  0.19224  0.50162  Biso   1.000  N
  N565     1.0000 0.79430  0.20930  0.52226  Biso   1.000  N
  N566     1.0000 0.84490  0.22923  0.50892  Biso   1.000  N
  C382     1.0000 0.83938  0.22448  0.48004  Biso   1.000  C
  N567     1.0000 0.97490  0.36853  0.46847  Biso   1.000  N
  N568     1.0000 0.04310  0.36507  0.45313  Biso   1.000  N
  N569     1.0000 0.04710  0.33603  0.44246  Biso   1.000  N
  N570     1.0000 0.10140  0.13740  0.27872  Biso   1.000  N
  N571     1.0000 0.08500  0.14574  0.30676  Biso   1.000  N
  C383     1.0000 0.27287  0.11390  0.41880  Biso   1.000  C
  N572     1.0000 0.28170  0.12230  0.44679  Biso   1.000  N
  N573     1.0000 0.35621  0.11321  0.45574  Biso   1.000  N
  N574     1.0000 0.39343  0.09919  0.43326  Biso   1.000  N
  N575     1.0000 0.34194  0.09961  0.41044  Biso   1.000  N
  C384     1.0000 0.97920  0.32175  0.45259  Biso   1.000  C
  N576     1.0000 0.93240  0.34127  0.46874  Biso   1.000  N
  Cu65     1.0000 0.62500  0.42783  0.12500  Biso   1.000  Cu
  Cu66     1.0000 0.62500  0.92783  0.62500  Biso   1.000  Cu
  Cu67     1.0000 0.12500  0.32217  0.12500  Biso   1.000  Cu
  Cu68     1.0000 0.12500  0.82217  0.62500  Biso   1.000  Cu
  Cu69     1.0000 0.62500  0.32217  0.62500  Biso   1.000  Cu
  Cu70     1.0000 0.12500  0.42783  0.62500  Biso   1.000  Cu
  Cu71     1.0000 0.12500  0.92783  0.12500  Biso   1.000  Cu
  Cu72     1.0000 0.62500  0.82217  0.12500  Biso   1.000  Cu
  Cu73     1.0000 0.37500  0.57217  0.87500  Biso   1.000  Cu
  Cu74     1.0000 0.37500  0.07217  0.37500  Biso   1.000  Cu
  Cu75     1.0000 0.87500  0.67783  0.87500  Biso   1.000  Cu
  Cu76     1.0000 0.87500  0.17783  0.37500  Biso   1.000  Cu
  Cu77     1.0000 0.87500  0.57217  0.37500  Biso   1.000  Cu
  Cu78     1.0000 0.87500  0.07217  0.87500  Biso   1.000  Cu
  Cu79     1.0000 0.37500  0.67783  0.37500  Biso   1.000  Cu
  Cu80     1.0000 0.37500  0.17783  0.87500  Biso   1.000  Cu
  C385     1.0000 0.37500  0.37500  0.10576  Biso   1.000  C
  C386     1.0000 0.37500  0.37500  0.16647  Biso   1.000  C
  H129     1.0000 0.37500  0.37500  0.18690  Biso   1.000  H
  C387     1.0000 0.37500  0.37500  0.07342  Biso   1.000  C
  C388     1.0000 0.37500  0.87500  0.60576  Biso   1.000  C
  C389     1.0000 0.37500  0.87500  0.66647  Biso   1.000  C
  H130     1.0000 0.37500  0.87500  0.68690  Biso   1.000  H
  C390     1.0000 0.37500  0.87500  0.57342  Biso   1.000  C
  C391     1.0000 0.87500  0.37500  0.60576  Biso   1.000  C
  C392     1.0000 0.87500  0.37500  0.66647  Biso   1.000  C
  H131     1.0000 0.87500  0.37500  0.68690  Biso   1.000  H
  C393     1.0000 0.87500  0.37500  0.57342  Biso   1.000  C
  C394     1.0000 0.87500  0.87500  0.10576  Biso   1.000  C
  C395     1.0000 0.87500  0.87500  0.16647  Biso   1.000  C
  H132     1.0000 0.87500  0.87500  0.18690  Biso   1.000  H
  C396     1.0000 0.87500  0.87500  0.07342  Biso   1.000  C
  C397     1.0000 0.37500  0.37500  0.64424  Biso   1.000  C
  C398     1.0000 0.37500  0.37500  0.58353  Biso   1.000  C
  H133     1.0000 0.37500  0.37500  0.56310  Biso   1.000  H
  C399     1.0000 0.37500  0.37500  0.67658  Biso   1.000  C
  C400     1.0000 0.37500  0.87500  0.14424  Biso   1.000  C
  C401     1.0000 0.37500  0.87500  0.08353  Biso   1.000  C
  H134     1.0000 0.37500  0.87500  0.06310  Biso   1.000  H
  C402     1.0000 0.37500  0.87500  0.17658  Biso   1.000  C
  C403     1.0000 0.87500  0.37500  0.14424  Biso   1.000  C
  C404     1.0000 0.87500  0.37500  0.08353  Biso   1.000  C
  H135     1.0000 0.87500  0.37500  0.06310  Biso   1.000  H
  C405     1.0000 0.87500  0.37500  0.17658  Biso   1.000  C
  C406     1.0000 0.87500  0.87500  0.64424  Biso   1.000  C
  C407     1.0000 0.87500  0.87500  0.58353  Biso   1.000  C
  H136     1.0000 0.87500  0.87500  0.56310  Biso   1.000  H
  C408     1.0000 0.87500  0.87500  0.67658  Biso   1.000  C
  C409     1.0000 0.62500  0.62500  0.89424  Biso   1.000  C
  C410     1.0000 0.62500  0.62500  0.83353  Biso   1.000  C
  H137     1.0000 0.62500  0.62500  0.81310  Biso   1.000  H
  C411     1.0000 0.62500  0.62500  0.92658  Biso   1.000  C
  C412     1.0000 0.62500  0.12500  0.39424  Biso   1.000  C
  C413     1.0000 0.62500  0.12500  0.33353  Biso   1.000  C
  H138     1.0000 0.62500  0.12500  0.31310  Biso   1.000  H
  C414     1.0000 0.62500  0.12500  0.42658  Biso   1.000  C
  C415     1.0000 0.12500  0.62500  0.39424  Biso   1.000  C
  C416     1.0000 0.12500  0.62500  0.33353  Biso   1.000  C
  H139     1.0000 0.12500  0.62500  0.31310  Biso   1.000  H
  C417     1.0000 0.12500  0.62500  0.42658  Biso   1.000  C
  C418     1.0000 0.12500  0.12500  0.89424  Biso   1.000  C
  C419     1.0000 0.12500  0.12500  0.83353  Biso   1.000  C
  H140     1.0000 0.12500  0.12500  0.81310  Biso   1.000  H
  C420     1.0000 0.12500  0.12500  0.92658  Biso   1.000  C
  C421     1.0000 0.62500  0.62500  0.35576  Biso   1.000  C
  C422     1.0000 0.62500  0.62500  0.41647  Biso   1.000  C
  H141     1.0000 0.62500  0.62500  0.43690  Biso   1.000  H
  C423     1.0000 0.62500  0.62500  0.32342  Biso   1.000  C
  C424     1.0000 0.62500  0.12500  0.85576  Biso   1.000  C
  C425     1.0000 0.62500  0.12500  0.91647  Biso   1.000  C
  H142     1.0000 0.62500  0.12500  0.93690  Biso   1.000  H
  C426     1.0000 0.62500  0.12500  0.82342  Biso   1.000  C
  C427     1.0000 0.12500  0.62500  0.85576  Biso   1.000  C
  C428     1.0000 0.12500  0.62500  0.91647  Biso   1.000  C
  H143     1.0000 0.12500  0.62500  0.93690  Biso   1.000  H
  C429     1.0000 0.12500  0.62500  0.82342  Biso   1.000  C
  C430     1.0000 0.12500  0.12500  0.35576  Biso   1.000  C
  C431     1.0000 0.12500  0.12500  0.41647  Biso   1.000  C
  H144     1.0000 0.12500  0.12500  0.43690  Biso   1.000  H
  C432     1.0000 0.12500  0.12500  0.32342  Biso   1.000  C
