data_image0
_cell_length_a       38.012
_cell_length_b       38.012
_cell_length_c       29.603
_cell_angle_alpha    90
_cell_angle_beta     90
_cell_angle_gamma    120

_symmetry_space_group_name_H-M    "P 1"
_symmetry_int_tables_number       1

loop_
  _symmetry_equiv_pos_as_xyz
  'x, y, z'

loop_
  _atom_site_label
  _atom_site_occupancy
  _atom_site_fract_x
  _atom_site_fract_y
  _atom_site_fract_z
  _atom_site_thermal_displace_type
  _atom_site_B_iso_or_equiv
  _atom_site_type_symbol
  Co1      1.0000 0.23329  0.10742  0.95255  Biso   1.000  Co
  O1       1.0000 0.24285  0.08148  0.01165  Biso   1.000  O
  O2       1.0000 0.29570  0.13040  0.97715  Biso   1.000  O
  O3       1.0000 0.49771  0.10114  0.24473  Biso   1.000  O
  O4       1.0000 0.42890  0.24002  0.93220  Biso   1.000  O
  O5       1.0000 0.36367  0.20459  0.95099  Biso   1.000  O
  O6       1.0000 0.46199  0.03555  0.22508  Biso   1.000  O
  N1       1.0000 0.02244  0.04167  0.94285  Biso   1.000  N
  N2       1.0000 0.16931  0.07812  0.95111  Biso   1.000  N
  C1       1.0000 0.37467  0.12688  0.07630  Biso   1.000  C
  H1       1.0000 0.40210  0.14630  0.07690  Biso   1.000  H
  C2       1.0000 0.03951  0.01835  0.94293  Biso   1.000  C
  C3       1.0000 0.08476  0.03903  0.94478  Biso   1.000  C
  C4       1.0000 0.38709  0.08973  0.13882  Biso   1.000  C
  C5       1.0000 0.34939  0.13033  0.04462  Biso   1.000  C
  H2       1.0000 0.36020  0.15160  0.02400  Biso   1.000  H
  C6       1.0000 0.40663  0.26410  0.99245  Biso   1.000  C
  C7       1.0000 0.44008  0.07859  0.19582  Biso   1.000  C
  C8       1.0000 0.30805  0.10208  0.04379  Biso   1.000  C
  C9       1.0000 0.46927  0.07126  0.22390  Biso   1.000  C
  C10      1.0000 0.10491  0.01742  0.94783  Biso   1.000  C
  H3       1.0000 0.09040  0.98920  0.94800  Biso   1.000  H
  C11      1.0000 0.28071  0.10461  0.00899  Biso   1.000  C
  C12      1.0000 0.10843  0.08137  0.94488  Biso   1.000  C
  H4       1.0000 0.09620  0.09730  0.94280  Biso   1.000  H
  C13      1.0000 0.35937  0.09475  0.10722  Biso   1.000  C
  C14      1.0000 0.44984  0.11722  0.18163  Biso   1.000  C
  H5       1.0000 0.47400  0.13970  0.19100  Biso   1.000  H
  C15      1.0000 0.39884  0.23367  0.95568  Biso   1.000  C
  C16      1.0000 0.14993  0.09921  0.94809  Biso   1.000  C
  H6       1.0000 0.16530  0.12740  0.94820  Biso   1.000  H
  C17      1.0000 0.40398  0.04567  0.18165  Biso   1.000  C
  H7       1.0000 0.39720  0.01960  0.19080  Biso   1.000  H
  C18      1.0000 0.29230  0.07086  0.07533  Biso   1.000  C
  H8       1.0000 0.26460  0.05210  0.07560  Biso   1.000  H
  C19      1.0000 0.39504  0.27957  0.06739  Biso   1.000  C
  H9       1.0000 0.38030  0.27110  0.09410  Biso   1.000  H
  C20      1.0000 0.37770  0.05111  0.15393  Biso   1.000  C
  H10      1.0000 0.35330  0.02860  0.14520  Biso   1.000  H
  C21      1.0000 0.31785  0.06757  0.10643  Biso   1.000  C
  H11      1.0000 0.30680  0.04650  0.12740  Biso   1.000  H
  C22      1.0000 0.42369  0.12243  0.15358  Biso   1.000  C
  H12      1.0000 0.43070  0.14850  0.14430  Biso   1.000  H
  C23      1.0000 0.14663  0.03788  0.95063  Biso   1.000  C
  H13      1.0000 0.15970  0.02270  0.95230  Biso   1.000  H
  C24      1.0000 0.38543  0.25205  0.03147  Biso   1.000  C
  H14      1.0000 0.36440  0.22540  0.03460  Biso   1.000  H
  C25      1.0000 0.44590  0.33135  0.02232  Biso   1.000  C
  H15      1.0000 0.46560  0.35840  0.01820  Biso   1.000  H
  C26      1.0000 0.42620  0.31900  0.06310  Biso   1.000  C
  C27      1.0000 0.43675  0.30400  0.98745  Biso   1.000  C
  H16      1.0000 0.45100  0.31260  0.96040  Biso   1.000  H
  Co2      1.0000 0.89995  0.44075  0.28589  Biso   1.000  Co
  O7       1.0000 0.90952  0.41481  0.34498  Biso   1.000  O
  O8       1.0000 0.96237  0.46373  0.31048  Biso   1.000  O
  O9       1.0000 0.16438  0.43447  0.57806  Biso   1.000  O
  O10      1.0000 0.09557  0.57335  0.26553  Biso   1.000  O
  O11      1.0000 0.03034  0.53792  0.28432  Biso   1.000  O
  O12      1.0000 0.12866  0.36888  0.55841  Biso   1.000  O
  N3       1.0000 0.68911  0.37500  0.27618  Biso   1.000  N
  N4       1.0000 0.83598  0.41145  0.28444  Biso   1.000  N
  C28      1.0000 0.04134  0.46021  0.40963  Biso   1.000  C
  H17      1.0000 0.06877  0.47963  0.41023  Biso   1.000  H
  C29      1.0000 0.70618  0.35168  0.27626  Biso   1.000  C
  C30      1.0000 0.75143  0.37236  0.27811  Biso   1.000  C
  C31      1.0000 0.05376  0.42306  0.47215  Biso   1.000  C
  C32      1.0000 0.01606  0.46366  0.37795  Biso   1.000  C
  H18      1.0000 0.02687  0.48493  0.35733  Biso   1.000  H
  C33      1.0000 0.07330  0.59743  0.32578  Biso   1.000  C
  C34      1.0000 0.10675  0.41192  0.52915  Biso   1.000  C
  C35      1.0000 0.97472  0.43541  0.37712  Biso   1.000  C
  C36      1.0000 0.13594  0.40459  0.55723  Biso   1.000  C
  C37      1.0000 0.77158  0.35075  0.28116  Biso   1.000  C
  H19      1.0000 0.75707  0.32253  0.28133  Biso   1.000  H
  C38      1.0000 0.94738  0.43794  0.34232  Biso   1.000  C
  C39      1.0000 0.77510  0.41470  0.27821  Biso   1.000  C
  H20      1.0000 0.76287  0.43063  0.27613  Biso   1.000  H
  C40      1.0000 0.02604  0.42808  0.44055  Biso   1.000  C
  C41      1.0000 0.11651  0.45055  0.51496  Biso   1.000  C
  H21      1.0000 0.14067  0.47303  0.52433  Biso   1.000  H
  C42      1.0000 0.06551  0.56700  0.28901  Biso   1.000  C
  C43      1.0000 0.81660  0.43254  0.28142  Biso   1.000  C
  H22      1.0000 0.83197  0.46073  0.28153  Biso   1.000  H
  C44      1.0000 0.07065  0.37900  0.51498  Biso   1.000  C
  H23      1.0000 0.06387  0.35293  0.52413  Biso   1.000  H
  C45      1.0000 0.95897  0.40419  0.40866  Biso   1.000  C
  H24      1.0000 0.93127  0.38543  0.40893  Biso   1.000  H
  C46      1.0000 0.06171  0.61290  0.40072  Biso   1.000  C
  H25      1.0000 0.04697  0.60443  0.42743  Biso   1.000  H
  C47      1.0000 0.04437  0.38444  0.48726  Biso   1.000  C
  H26      1.0000 0.01997  0.36193  0.47853  Biso   1.000  H
  C48      1.0000 0.98452  0.40090  0.43976  Biso   1.000  C
  H27      1.0000 0.97347  0.37983  0.46073  Biso   1.000  H
  C49      1.0000 0.09036  0.45576  0.48691  Biso   1.000  C
  H28      1.0000 0.09737  0.48183  0.47763  Biso   1.000  H
  C50      1.0000 0.81330  0.37121  0.28396  Biso   1.000  C
  H29      1.0000 0.82637  0.35603  0.28563  Biso   1.000  H
  C51      1.0000 0.05210  0.58538  0.36480  Biso   1.000  C
  H30      1.0000 0.03107  0.55873  0.36793  Biso   1.000  H
  C52      1.0000 0.11257  0.66468  0.35565  Biso   1.000  C
  H31      1.0000 0.13227  0.69173  0.35153  Biso   1.000  H
  C53      1.0000 0.09287  0.65233  0.39643  Biso   1.000  C
  C54      1.0000 0.10342  0.63733  0.32078  Biso   1.000  C
  H32      1.0000 0.11767  0.64593  0.29373  Biso   1.000  H
  Co3      1.0000 0.56662  0.77408  0.61922  Biso   1.000  Co
  O13      1.0000 0.57618  0.74815  0.67832  Biso   1.000  O
  O14      1.0000 0.62903  0.79707  0.64382  Biso   1.000  O
  O15      1.0000 0.83104  0.76781  0.91140  Biso   1.000  O
  O16      1.0000 0.76223  0.90669  0.59887  Biso   1.000  O
  O17      1.0000 0.69700  0.87126  0.61766  Biso   1.000  O
  O18      1.0000 0.79532  0.70222  0.89175  Biso   1.000  O
  N5       1.0000 0.35577  0.70834  0.60952  Biso   1.000  N
  N6       1.0000 0.50264  0.74479  0.61778  Biso   1.000  N
  C55      1.0000 0.70800  0.79355  0.74297  Biso   1.000  C
  H33      1.0000 0.73543  0.81297  0.74357  Biso   1.000  H
  C56      1.0000 0.37284  0.68502  0.60960  Biso   1.000  C
  C57      1.0000 0.41809  0.70570  0.61145  Biso   1.000  C
  C58      1.0000 0.72042  0.75640  0.80549  Biso   1.000  C
  C59      1.0000 0.68272  0.79700  0.71129  Biso   1.000  C
  H34      1.0000 0.69353  0.81827  0.69067  Biso   1.000  H
  C60      1.0000 0.73996  0.93077  0.65912  Biso   1.000  C
  C61      1.0000 0.77341  0.74526  0.86249  Biso   1.000  C
  C62      1.0000 0.64138  0.76875  0.71046  Biso   1.000  C
  C63      1.0000 0.80260  0.73793  0.89057  Biso   1.000  C
  C64      1.0000 0.43824  0.68409  0.61450  Biso   1.000  C
  H35      1.0000 0.42373  0.65587  0.61467  Biso   1.000  H
  C65      1.0000 0.61404  0.77128  0.67566  Biso   1.000  C
  C66      1.0000 0.44176  0.74804  0.61155  Biso   1.000  C
  H36      1.0000 0.42953  0.76397  0.60947  Biso   1.000  H
  C67      1.0000 0.69270  0.76142  0.77389  Biso   1.000  C
  C68      1.0000 0.78317  0.78389  0.84830  Biso   1.000  C
  H37      1.0000 0.80733  0.80637  0.85767  Biso   1.000  H
  C69      1.0000 0.73217  0.90034  0.62235  Biso   1.000  C
  C70      1.0000 0.48326  0.76588  0.61476  Biso   1.000  C
  H38      1.0000 0.49863  0.79407  0.61487  Biso   1.000  H
  C71      1.0000 0.73731  0.71234  0.84832  Biso   1.000  C
  H39      1.0000 0.73053  0.68627  0.85747  Biso   1.000  H
  C72      1.0000 0.62563  0.73753  0.74200  Biso   1.000  C
  H40      1.0000 0.59793  0.71877  0.74227  Biso   1.000  H
  C73      1.0000 0.72837  0.94624  0.73406  Biso   1.000  C
  H41      1.0000 0.71363  0.93777  0.76077  Biso   1.000  H
  C74      1.0000 0.71103  0.71778  0.82060  Biso   1.000  C
  H42      1.0000 0.68663  0.69527  0.81187  Biso   1.000  H
  C75      1.0000 0.65118  0.73424  0.77310  Biso   1.000  C
  H43      1.0000 0.64013  0.71317  0.79407  Biso   1.000  H
  C76      1.0000 0.75702  0.78910  0.82025  Biso   1.000  C
  H44      1.0000 0.76403  0.81517  0.81097  Biso   1.000  H
  C77      1.0000 0.47996  0.70455  0.61730  Biso   1.000  C
  H45      1.0000 0.49303  0.68937  0.61897  Biso   1.000  H
  C78      1.0000 0.71876  0.91872  0.69814  Biso   1.000  C
  H46      1.0000 0.69773  0.89207  0.70127  Biso   1.000  H
  C79      1.0000 0.77923  0.99802  0.68899  Biso   1.000  C
  H47      1.0000 0.79893  0.02507  0.68487  Biso   1.000  H
  C80      1.0000 0.75953  0.98567  0.72977  Biso   1.000  C
  C81      1.0000 0.77008  0.97067  0.65412  Biso   1.000  C
  H48      1.0000 0.78433  0.97927  0.62707  Biso   1.000  H
  Co4      1.0000 0.89258  0.12587  0.95255  Biso   1.000  Co
  O19      1.0000 0.91852  0.16137  0.01165  Biso   1.000  O
  O20      1.0000 0.86960  0.16530  0.97715  Biso   1.000  O
  O21      1.0000 0.89886  0.39657  0.24473  Biso   1.000  O
  O22      1.0000 0.75998  0.18888  0.93220  Biso   1.000  O
  O23      1.0000 0.79541  0.15908  0.95099  Biso   1.000  O
  O24      1.0000 0.96445  0.42644  0.22508  Biso   1.000  O
  N7       1.0000 0.95833  0.98077  0.94285  Biso   1.000  N
  N8       1.0000 0.92188  0.09119  0.95111  Biso   1.000  N
  C82      1.0000 0.87312  0.24779  0.07630  Biso   1.000  C
  H49      1.0000 0.85370  0.25580  0.07690  Biso   1.000  H
  C83      1.0000 0.98165  0.02116  0.94293  Biso   1.000  C
  C84      1.0000 0.96097  0.04573  0.94478  Biso   1.000  C
  C85      1.0000 0.91027  0.29736  0.13882  Biso   1.000  C
  C86      1.0000 0.86967  0.21906  0.04462  Biso   1.000  C
  H50      1.0000 0.84840  0.20860  0.02400  Biso   1.000  H
  C87      1.0000 0.73590  0.14253  0.99245  Biso   1.000  C
  C88      1.0000 0.92141  0.36149  0.19582  Biso   1.000  C
  C89      1.0000 0.89792  0.20597  0.04379  Biso   1.000  C
  C90      1.0000 0.92874  0.39801  0.22390  Biso   1.000  C
  C91      1.0000 0.98258  0.08749  0.94783  Biso   1.000  C
  H51      1.0000 0.01080  0.10120  0.94800  Biso   1.000  H
  C92      1.0000 0.89539  0.17610  0.00899  Biso   1.000  C
  C93      1.0000 0.91863  0.02706  0.94488  Biso   1.000  C
  H52      1.0000 0.90270  0.99890  0.94280  Biso   1.000  H
  C94      1.0000 0.90525  0.26462  0.10722  Biso   1.000  C
  C95      1.0000 0.88278  0.33262  0.18163  Biso   1.000  C
  H53      1.0000 0.86030  0.33430  0.19100  Biso   1.000  H
  C96      1.0000 0.76633  0.16517  0.95568  Biso   1.000  C
  C97      1.0000 0.90079  0.05072  0.94809  Biso   1.000  C
  H54      1.0000 0.87260  0.03790  0.94820  Biso   1.000  H
  C98      1.0000 0.95433  0.35831  0.18165  Biso   1.000  C
  H55      1.0000 0.98040  0.37760  0.19080  Biso   1.000  H
  C99      1.0000 0.92914  0.22144  0.07533  Biso   1.000  C
  H56      1.0000 0.94790  0.21250  0.07560  Biso   1.000  H
  C100     1.0000 0.72043  0.11547  0.06739  Biso   1.000  C
  H57      1.0000 0.72890  0.10920  0.09410  Biso   1.000  H
  C101     1.0000 0.94889  0.32659  0.15393  Biso   1.000  C
  H58      1.0000 0.97140  0.32470  0.14520  Biso   1.000  H
  C102     1.0000 0.93243  0.25028  0.10643  Biso   1.000  C
  H59      1.0000 0.95350  0.26030  0.12740  Biso   1.000  H
  C103     1.0000 0.87757  0.30126  0.15358  Biso   1.000  C
  H60      1.0000 0.85150  0.28220  0.14430  Biso   1.000  H
  C104     1.0000 0.96212  0.10875  0.95063  Biso   1.000  C
  H61      1.0000 0.97730  0.13700  0.95230  Biso   1.000  H
  C105     1.0000 0.74795  0.13338  0.03147  Biso   1.000  C
  H62      1.0000 0.77460  0.13900  0.03460  Biso   1.000  H
  C106     1.0000 0.66865  0.11455  0.02232  Biso   1.000  C
  H63      1.0000 0.64160  0.10720  0.01820  Biso   1.000  H
  C107     1.0000 0.68100  0.10720  0.06310  Biso   1.000  C
  C108     1.0000 0.69600  0.13275  0.98745  Biso   1.000  C
  H64      1.0000 0.68740  0.13840  0.96040  Biso   1.000  H
  Co5      1.0000 0.55925  0.45920  0.28589  Biso   1.000  Co
  O25      1.0000 0.58519  0.49470  0.34498  Biso   1.000  O
  O26      1.0000 0.53627  0.49863  0.31048  Biso   1.000  O
  O27      1.0000 0.56553  0.72990  0.57806  Biso   1.000  O
  O28      1.0000 0.42665  0.52221  0.26553  Biso   1.000  O
  O29      1.0000 0.46208  0.49241  0.28432  Biso   1.000  O
  O30      1.0000 0.63112  0.75977  0.55841  Biso   1.000  O
  N9       1.0000 0.62500  0.31410  0.27618  Biso   1.000  N
  N10      1.0000 0.58855  0.42452  0.28444  Biso   1.000  N
  C109     1.0000 0.53979  0.58112  0.40963  Biso   1.000  C
  H65      1.0000 0.52037  0.58913  0.41023  Biso   1.000  H
  C110     1.0000 0.64832  0.35449  0.27626  Biso   1.000  C
  C111     1.0000 0.62764  0.37906  0.27811  Biso   1.000  C
  C112     1.0000 0.57694  0.63069  0.47215  Biso   1.000  C
  C113     1.0000 0.53634  0.55239  0.37795  Biso   1.000  C
  H66      1.0000 0.51507  0.54193  0.35733  Biso   1.000  H
  C114     1.0000 0.40257  0.47586  0.32578  Biso   1.000  C
  C115     1.0000 0.58808  0.69482  0.52915  Biso   1.000  C
  C116     1.0000 0.56459  0.53930  0.37712  Biso   1.000  C
  C117     1.0000 0.59541  0.73134  0.55723  Biso   1.000  C
  C118     1.0000 0.64925  0.42082  0.28116  Biso   1.000  C
  H67      1.0000 0.67747  0.43453  0.28133  Biso   1.000  H
  C119     1.0000 0.56206  0.50943  0.34232  Biso   1.000  C
  C120     1.0000 0.58530  0.36039  0.27821  Biso   1.000  C
  H68      1.0000 0.56937  0.33223  0.27613  Biso   1.000  H
  C121     1.0000 0.57192  0.59795  0.44055  Biso   1.000  C
  C122     1.0000 0.54945  0.66595  0.51496  Biso   1.000  C
  H69      1.0000 0.52697  0.66763  0.52433  Biso   1.000  H
  C123     1.0000 0.43300  0.49850  0.28901  Biso   1.000  C
  C124     1.0000 0.56746  0.38405  0.28142  Biso   1.000  C
  H70      1.0000 0.53927  0.37123  0.28153  Biso   1.000  H
  C125     1.0000 0.62100  0.69164  0.51498  Biso   1.000  C
  H71      1.0000 0.64707  0.71093  0.52413  Biso   1.000  H
  C126     1.0000 0.59581  0.55477  0.40866  Biso   1.000  C
  H72      1.0000 0.61457  0.54583  0.40893  Biso   1.000  H
  C127     1.0000 0.38710  0.44880  0.40072  Biso   1.000  C
  H73      1.0000 0.39557  0.44253  0.42743  Biso   1.000  H
  C128     1.0000 0.61556  0.65992  0.48726  Biso   1.000  C
  H74      1.0000 0.63807  0.65803  0.47853  Biso   1.000  H
  C129     1.0000 0.59910  0.58361  0.43976  Biso   1.000  C
  H75      1.0000 0.62017  0.59363  0.46073  Biso   1.000  H
  C130     1.0000 0.54424  0.63459  0.48691  Biso   1.000  C
  H76      1.0000 0.51817  0.61553  0.47763  Biso   1.000  H
  C131     1.0000 0.62879  0.44208  0.28396  Biso   1.000  C
  H77      1.0000 0.64397  0.47033  0.28563  Biso   1.000  H
  C132     1.0000 0.41462  0.46671  0.36480  Biso   1.000  C
  H78      1.0000 0.44127  0.47233  0.36793  Biso   1.000  H
  C133     1.0000 0.33532  0.44788  0.35565  Biso   1.000  C
  H79      1.0000 0.30827  0.44053  0.35153  Biso   1.000  H
  C134     1.0000 0.34767  0.44053  0.39643  Biso   1.000  C
  C135     1.0000 0.36267  0.46608  0.32078  Biso   1.000  C
  H80      1.0000 0.35407  0.47173  0.29373  Biso   1.000  H
  Co6      1.0000 0.22592  0.79254  0.61922  Biso   1.000  Co
  O31      1.0000 0.25185  0.82804  0.67832  Biso   1.000  O
  O32      1.0000 0.20293  0.83197  0.64382  Biso   1.000  O
  O33      1.0000 0.23219  0.06324  0.91140  Biso   1.000  O
  O34      1.0000 0.09331  0.85555  0.59887  Biso   1.000  O
  O35      1.0000 0.12874  0.82575  0.61766  Biso   1.000  O
  O36      1.0000 0.29778  0.09311  0.89175  Biso   1.000  O
  N11      1.0000 0.29166  0.64744  0.60952  Biso   1.000  N
  N12      1.0000 0.25521  0.75786  0.61778  Biso   1.000  N
  C136     1.0000 0.20645  0.91446  0.74297  Biso   1.000  C
  H81      1.0000 0.18703  0.92247  0.74357  Biso   1.000  H
  C137     1.0000 0.31498  0.68783  0.60960  Biso   1.000  C
  C138     1.0000 0.29430  0.71240  0.61145  Biso   1.000  C
  C139     1.0000 0.24360  0.96403  0.80549  Biso   1.000  C
  C140     1.0000 0.20300  0.88573  0.71129  Biso   1.000  C
  H82      1.0000 0.18173  0.87527  0.69067  Biso   1.000  H
  C141     1.0000 0.06923  0.80920  0.65912  Biso   1.000  C
  C142     1.0000 0.25474  0.02816  0.86249  Biso   1.000  C
  C143     1.0000 0.23125  0.87264  0.71046  Biso   1.000  C
  C144     1.0000 0.26207  0.06468  0.89057  Biso   1.000  C
  C145     1.0000 0.31591  0.75416  0.61450  Biso   1.000  C
  H83      1.0000 0.34413  0.76787  0.61467  Biso   1.000  H
  C146     1.0000 0.22872  0.84277  0.67566  Biso   1.000  C
  C147     1.0000 0.25196  0.69373  0.61155  Biso   1.000  C
  H84      1.0000 0.23603  0.66557  0.60947  Biso   1.000  H
  C148     1.0000 0.23858  0.93129  0.77389  Biso   1.000  C
  C149     1.0000 0.21611  0.99929  0.84830  Biso   1.000  C
  H85      1.0000 0.19363  0.00097  0.85767  Biso   1.000  H
  C150     1.0000 0.09966  0.83184  0.62235  Biso   1.000  C
  C151     1.0000 0.23412  0.71739  0.61476  Biso   1.000  C
  H86      1.0000 0.20593  0.70457  0.61487  Biso   1.000  H
  C152     1.0000 0.28766  0.02498  0.84832  Biso   1.000  C
  H87      1.0000 0.31373  0.04427  0.85747  Biso   1.000  H
  C153     1.0000 0.26247  0.88811  0.74200  Biso   1.000  C
  H88      1.0000 0.28123  0.87917  0.74227  Biso   1.000  H
  C154     1.0000 0.05376  0.78214  0.73406  Biso   1.000  C
  H89      1.0000 0.06223  0.77587  0.76077  Biso   1.000  H
  C155     1.0000 0.28222  0.99326  0.82060  Biso   1.000  C
  H90      1.0000 0.30473  0.99137  0.81187  Biso   1.000  H
  C156     1.0000 0.26576  0.91695  0.77310  Biso   1.000  C
  H91      1.0000 0.28683  0.92697  0.79407  Biso   1.000  H
  C157     1.0000 0.21090  0.96793  0.82025  Biso   1.000  C
  H92      1.0000 0.18483  0.94887  0.81097  Biso   1.000  H
  C158     1.0000 0.29545  0.77542  0.61730  Biso   1.000  C
  H93      1.0000 0.31063  0.80367  0.61897  Biso   1.000  H
  C159     1.0000 0.08128  0.80005  0.69814  Biso   1.000  C
  H94      1.0000 0.10793  0.80567  0.70127  Biso   1.000  H
  C160     1.0000 0.00198  0.78122  0.68899  Biso   1.000  C
  H95      1.0000 0.97493  0.77387  0.68487  Biso   1.000  H
  C161     1.0000 0.01433  0.77387  0.72977  Biso   1.000  C
  C162     1.0000 0.02933  0.79942  0.65412  Biso   1.000  C
  H96      1.0000 0.02073  0.80507  0.62707  Biso   1.000  H
  Co7      1.0000 0.87413  0.76671  0.95255  Biso   1.000  Co
  O37      1.0000 0.83863  0.75715  0.01165  Biso   1.000  O
  O38      1.0000 0.83470  0.70430  0.97715  Biso   1.000  O
  O39      1.0000 0.60343  0.50229  0.24473  Biso   1.000  O
  O40      1.0000 0.81112  0.57110  0.93220  Biso   1.000  O
  O41      1.0000 0.84092  0.63633  0.95099  Biso   1.000  O
  O42      1.0000 0.57356  0.53801  0.22508  Biso   1.000  O
  N13      1.0000 0.01923  0.97756  0.94285  Biso   1.000  N
  N14      1.0000 0.90881  0.83069  0.95111  Biso   1.000  N
  C163     1.0000 0.75221  0.62533  0.07630  Biso   1.000  C
  H97      1.0000 0.74420  0.59790  0.07690  Biso   1.000  H
  C164     1.0000 0.97884  0.96049  0.94293  Biso   1.000  C
  C165     1.0000 0.95427  0.91524  0.94478  Biso   1.000  C
  C166     1.0000 0.70264  0.61291  0.13882  Biso   1.000  C
  C167     1.0000 0.78094  0.65061  0.04462  Biso   1.000  C
  H98      1.0000 0.79140  0.63980  0.02400  Biso   1.000  H
  C168     1.0000 0.85747  0.59337  0.99245  Biso   1.000  C
  C169     1.0000 0.63851  0.55992  0.19582  Biso   1.000  C
  C170     1.0000 0.79403  0.69195  0.04379  Biso   1.000  C
  C171     1.0000 0.60199  0.53073  0.22390  Biso   1.000  C
  C172     1.0000 0.91251  0.89509  0.94783  Biso   1.000  C
  H99      1.0000 0.89880  0.90960  0.94800  Biso   1.000  H
  C173     1.0000 0.82390  0.71929  0.00899  Biso   1.000  C
  C174     1.0000 0.97294  0.89157  0.94488  Biso   1.000  C
  H100     1.0000 0.00110  0.90380  0.94280  Biso   1.000  H
  C175     1.0000 0.73538  0.64063  0.10722  Biso   1.000  C
  C176     1.0000 0.66738  0.55016  0.18163  Biso   1.000  C
  H101     1.0000 0.66570  0.52600  0.19100  Biso   1.000  H
  C177     1.0000 0.83483  0.60116  0.95568  Biso   1.000  C
  C178     1.0000 0.94928  0.85007  0.94809  Biso   1.000  C
  H102     1.0000 0.96210  0.83470  0.94820  Biso   1.000  H
  C179     1.0000 0.64169  0.59602  0.18165  Biso   1.000  C
  H103     1.0000 0.62240  0.60280  0.19080  Biso   1.000  H
  C180     1.0000 0.77856  0.70770  0.07533  Biso   1.000  C
  H104     1.0000 0.78750  0.73540  0.07560  Biso   1.000  H
  C181     1.0000 0.88453  0.60496  0.06739  Biso   1.000  C
  H105     1.0000 0.89080  0.61970  0.09410  Biso   1.000  H
  C182     1.0000 0.67341  0.62230  0.15393  Biso   1.000  C
  H106     1.0000 0.67530  0.64670  0.14520  Biso   1.000  H
  C183     1.0000 0.74972  0.68215  0.10643  Biso   1.000  C
  H107     1.0000 0.73970  0.69320  0.12740  Biso   1.000  H
  C184     1.0000 0.69874  0.57631  0.15358  Biso   1.000  C
  H108     1.0000 0.71780  0.56930  0.14430  Biso   1.000  H
  C185     1.0000 0.89125  0.85337  0.95063  Biso   1.000  C
  H109     1.0000 0.86300  0.84030  0.95230  Biso   1.000  H
  C186     1.0000 0.86662  0.61457  0.03147  Biso   1.000  C
  H110     1.0000 0.86100  0.63560  0.03460  Biso   1.000  H
  C187     1.0000 0.88545  0.55410  0.02232  Biso   1.000  C
  H111     1.0000 0.89280  0.53440  0.01820  Biso   1.000  H
  C188     1.0000 0.89280  0.57380  0.06310  Biso   1.000  C
  C189     1.0000 0.86725  0.56325  0.98745  Biso   1.000  C
  H112     1.0000 0.86160  0.54900  0.96040  Biso   1.000  H
  Co8      1.0000 0.54080  0.10005  0.28589  Biso   1.000  Co
  O43      1.0000 0.50530  0.09048  0.34498  Biso   1.000  O
  O44      1.0000 0.50137  0.03763  0.31048  Biso   1.000  O
  O45      1.0000 0.27010  0.83562  0.57806  Biso   1.000  O
  O46      1.0000 0.47779  0.90443  0.26553  Biso   1.000  O
  O47      1.0000 0.50759  0.96966  0.28432  Biso   1.000  O
  O48      1.0000 0.24023  0.87134  0.55841  Biso   1.000  O
  N15      1.0000 0.68590  0.31089  0.27618  Biso   1.000  N
  N16      1.0000 0.57548  0.16402  0.28444  Biso   1.000  N
  C190     1.0000 0.41888  0.95866  0.40963  Biso   1.000  C
  H113     1.0000 0.41087  0.93123  0.41023  Biso   1.000  H
  C191     1.0000 0.64551  0.29382  0.27626  Biso   1.000  C
  C192     1.0000 0.62094  0.24857  0.27811  Biso   1.000  C
  C193     1.0000 0.36931  0.94624  0.47215  Biso   1.000  C
  C194     1.0000 0.44761  0.98394  0.37795  Biso   1.000  C
  H114     1.0000 0.45807  0.97313  0.35733  Biso   1.000  H
  C195     1.0000 0.52414  0.92670  0.32578  Biso   1.000  C
  C196     1.0000 0.30518  0.89325  0.52915  Biso   1.000  C
  C197     1.0000 0.46070  0.02528  0.37712  Biso   1.000  C
  C198     1.0000 0.26866  0.86406  0.55723  Biso   1.000  C
  C199     1.0000 0.57918  0.22842  0.28116  Biso   1.000  C
  H115     1.0000 0.56547  0.24293  0.28133  Biso   1.000  H
  C200     1.0000 0.49057  0.05262  0.34232  Biso   1.000  C
  C201     1.0000 0.63961  0.22490  0.27821  Biso   1.000  C
  H116     1.0000 0.66777  0.23713  0.27613  Biso   1.000  H
  C202     1.0000 0.40205  0.97396  0.44055  Biso   1.000  C
  C203     1.0000 0.33405  0.88349  0.51496  Biso   1.000  C
  H117     1.0000 0.33237  0.85933  0.52433  Biso   1.000  H
  C204     1.0000 0.50150  0.93449  0.28901  Biso   1.000  C
  C205     1.0000 0.61595  0.18340  0.28142  Biso   1.000  C
  H118     1.0000 0.62877  0.16803  0.28153  Biso   1.000  H
  C206     1.0000 0.30836  0.92935  0.51498  Biso   1.000  C
  H119     1.0000 0.28907  0.93613  0.52413  Biso   1.000  H
  C207     1.0000 0.44523  0.04103  0.40866  Biso   1.000  C
  H120     1.0000 0.45417  0.06873  0.40893  Biso   1.000  H
  C208     1.0000 0.55120  0.93829  0.40072  Biso   1.000  C
  H121     1.0000 0.55747  0.95303  0.42743  Biso   1.000  H
  C209     1.0000 0.34008  0.95563  0.48726  Biso   1.000  C
  H122     1.0000 0.34197  0.98003  0.47853  Biso   1.000  H
  C210     1.0000 0.41639  0.01548  0.43976  Biso   1.000  C
  H123     1.0000 0.40637  0.02653  0.46073  Biso   1.000  H
  C211     1.0000 0.36541  0.90964  0.48691  Biso   1.000  C
  H124     1.0000 0.38447  0.90263  0.47763  Biso   1.000  H
  C212     1.0000 0.55792  0.18670  0.28396  Biso   1.000  C
  H125     1.0000 0.52967  0.17363  0.28563  Biso   1.000  H
  C213     1.0000 0.53329  0.94790  0.36480  Biso   1.000  C
  H126     1.0000 0.52767  0.96893  0.36793  Biso   1.000  H
  C214     1.0000 0.55212  0.88743  0.35565  Biso   1.000  C
  H127     1.0000 0.55947  0.86773  0.35153  Biso   1.000  H
  C215     1.0000 0.55947  0.90713  0.39643  Biso   1.000  C
  C216     1.0000 0.53392  0.89658  0.32078  Biso   1.000  C
  H128     1.0000 0.52827  0.88233  0.29373  Biso   1.000  H
  Co9      1.0000 0.20746  0.43338  0.61922  Biso   1.000  Co
  O49      1.0000 0.17196  0.42382  0.67832  Biso   1.000  O
  O50      1.0000 0.16803  0.37097  0.64382  Biso   1.000  O
  O51      1.0000 0.93676  0.16896  0.91140  Biso   1.000  O
  O52      1.0000 0.14445  0.23777  0.59887  Biso   1.000  O
  O53      1.0000 0.17425  0.30300  0.61766  Biso   1.000  O
  O54      1.0000 0.90689  0.20468  0.89175  Biso   1.000  O
  N17      1.0000 0.35256  0.64423  0.60952  Biso   1.000  N
  N18      1.0000 0.24214  0.49736  0.61778  Biso   1.000  N
  C217     1.0000 0.08554  0.29200  0.74297  Biso   1.000  C
  H129     1.0000 0.07753  0.26457  0.74357  Biso   1.000  H
  C218     1.0000 0.31217  0.62716  0.60960  Biso   1.000  C
  C219     1.0000 0.28760  0.58191  0.61145  Biso   1.000  C
  C220     1.0000 0.03597  0.27958  0.80549  Biso   1.000  C
  C221     1.0000 0.11427  0.31728  0.71129  Biso   1.000  C
  H130     1.0000 0.12473  0.30647  0.69067  Biso   1.000  H
  C222     1.0000 0.19080  0.26004  0.65912  Biso   1.000  C
  C223     1.0000 0.97184  0.22659  0.86249  Biso   1.000  C
  C224     1.0000 0.12736  0.35862  0.71046  Biso   1.000  C
  C225     1.0000 0.93532  0.19740  0.89057  Biso   1.000  C
  C226     1.0000 0.24584  0.56176  0.61450  Biso   1.000  C
  H131     1.0000 0.23213  0.57627  0.61467  Biso   1.000  H
  C227     1.0000 0.15723  0.38596  0.67566  Biso   1.000  C
  C228     1.0000 0.30627  0.55824  0.61155  Biso   1.000  C
  H132     1.0000 0.33443  0.57047  0.60947  Biso   1.000  H
  C229     1.0000 0.06871  0.30730  0.77389  Biso   1.000  C
  C230     1.0000 0.00071  0.21683  0.84830  Biso   1.000  C
  H133     1.0000 0.99903  0.19267  0.85767  Biso   1.000  H
  C231     1.0000 0.16816  0.26783  0.62235  Biso   1.000  C
  C232     1.0000 0.28261  0.51674  0.61476  Biso   1.000  C
  H134     1.0000 0.29543  0.50137  0.61487  Biso   1.000  H
  C233     1.0000 0.97502  0.26269  0.84832  Biso   1.000  C
  H135     1.0000 0.95573  0.26947  0.85747  Biso   1.000  H
  C234     1.0000 0.11189  0.37437  0.74200  Biso   1.000  C
  H136     1.0000 0.12083  0.40207  0.74227  Biso   1.000  H
  C235     1.0000 0.21786  0.27163  0.73406  Biso   1.000  C
  H137     1.0000 0.22413  0.28637  0.76077  Biso   1.000  H
  C236     1.0000 0.00674  0.28897  0.82060  Biso   1.000  C
  H138     1.0000 0.00863  0.31337  0.81187  Biso   1.000  H
  C237     1.0000 0.08305  0.34882  0.77310  Biso   1.000  C
  H139     1.0000 0.07303  0.35987  0.79407  Biso   1.000  H
  C238     1.0000 0.03207  0.24298  0.82025  Biso   1.000  C
  H140     1.0000 0.05113  0.23597  0.81097  Biso   1.000  H
  C239     1.0000 0.22458  0.52004  0.61730  Biso   1.000  C
  H141     1.0000 0.19633  0.50697  0.61897  Biso   1.000  H
  C240     1.0000 0.19995  0.28124  0.69814  Biso   1.000  C
  H142     1.0000 0.19433  0.30227  0.70127  Biso   1.000  H
  C241     1.0000 0.21878  0.22077  0.68899  Biso   1.000  C
  H143     1.0000 0.22613  0.20107  0.68487  Biso   1.000  H
  C242     1.0000 0.22613  0.24047  0.72977  Biso   1.000  C
  C243     1.0000 0.20058  0.22992  0.65412  Biso   1.000  C
  H144     1.0000 0.19493  0.21567  0.62707  Biso   1.000  H
  Co10     1.0000 0.10742  0.23329  0.54745  Biso   1.000  Co
  O55      1.0000 0.08148  0.24285  0.48835  Biso   1.000  O
  O56      1.0000 0.13040  0.29570  0.52285  Biso   1.000  O
  O57      1.0000 0.10114  0.49771  0.25527  Biso   1.000  O
  O58      1.0000 0.24002  0.42890  0.56780  Biso   1.000  O
  O59      1.0000 0.20459  0.36367  0.54901  Biso   1.000  O
  O60      1.0000 0.03555  0.46199  0.27492  Biso   1.000  O
  N19      1.0000 0.04167  0.02244  0.55715  Biso   1.000  N
  N20      1.0000 0.07812  0.16931  0.54889  Biso   1.000  N
  C244     1.0000 0.12688  0.37467  0.42370  Biso   1.000  C
  H145     1.0000 0.14630  0.40210  0.42310  Biso   1.000  H
  C245     1.0000 0.01835  0.03951  0.55707  Biso   1.000  C
  C246     1.0000 0.03903  0.08476  0.55522  Biso   1.000  C
  C247     1.0000 0.08973  0.38709  0.36118  Biso   1.000  C
  C248     1.0000 0.13033  0.34939  0.45538  Biso   1.000  C
  H146     1.0000 0.15160  0.36020  0.47600  Biso   1.000  H
  C249     1.0000 0.26410  0.40663  0.50755  Biso   1.000  C
  C250     1.0000 0.07859  0.44008  0.30418  Biso   1.000  C
  C251     1.0000 0.10208  0.30805  0.45621  Biso   1.000  C
  C252     1.0000 0.07126  0.46927  0.27610  Biso   1.000  C
  C253     1.0000 0.01742  0.10491  0.55217  Biso   1.000  C
  H147     1.0000 0.98920  0.09040  0.55200  Biso   1.000  H
  C254     1.0000 0.10461  0.28071  0.49101  Biso   1.000  C
  C255     1.0000 0.08137  0.10843  0.55512  Biso   1.000  C
  H148     1.0000 0.09730  0.09620  0.55720  Biso   1.000  H
  C256     1.0000 0.09475  0.35937  0.39278  Biso   1.000  C
  C257     1.0000 0.11722  0.44984  0.31837  Biso   1.000  C
  H149     1.0000 0.13970  0.47400  0.30900  Biso   1.000  H
  C258     1.0000 0.23367  0.39884  0.54432  Biso   1.000  C
  C259     1.0000 0.09921  0.14993  0.55191  Biso   1.000  C
  H150     1.0000 0.12740  0.16530  0.55180  Biso   1.000  H
  C260     1.0000 0.04567  0.40398  0.31835  Biso   1.000  C
  H151     1.0000 0.01960  0.39720  0.30920  Biso   1.000  H
  C261     1.0000 0.07086  0.29230  0.42467  Biso   1.000  C
  H152     1.0000 0.05210  0.26460  0.42440  Biso   1.000  H
  C262     1.0000 0.27957  0.39504  0.43261  Biso   1.000  C
  H153     1.0000 0.27110  0.38030  0.40590  Biso   1.000  H
  C263     1.0000 0.05111  0.37770  0.34607  Biso   1.000  C
  H154     1.0000 0.02860  0.35330  0.35480  Biso   1.000  H
  C264     1.0000 0.06757  0.31785  0.39357  Biso   1.000  C
  H155     1.0000 0.04650  0.30680  0.37260  Biso   1.000  H
  C265     1.0000 0.12243  0.42369  0.34642  Biso   1.000  C
  H156     1.0000 0.14850  0.43070  0.35570  Biso   1.000  H
  C266     1.0000 0.03788  0.14663  0.54937  Biso   1.000  C
  H157     1.0000 0.02270  0.15970  0.54770  Biso   1.000  H
  C267     1.0000 0.25205  0.38543  0.46853  Biso   1.000  C
  H158     1.0000 0.22540  0.36440  0.46540  Biso   1.000  H
  C268     1.0000 0.33135  0.44590  0.47768  Biso   1.000  C
  H159     1.0000 0.35840  0.46560  0.48180  Biso   1.000  H
  C269     1.0000 0.31900  0.42620  0.43690  Biso   1.000  C
  C270     1.0000 0.30400  0.43675  0.51255  Biso   1.000  C
  H160     1.0000 0.31260  0.45100  0.53960  Biso   1.000  H
  Co11     1.0000 0.77408  0.56662  0.88078  Biso   1.000  Co
  O61      1.0000 0.74815  0.57618  0.82168  Biso   1.000  O
  O62      1.0000 0.79707  0.62903  0.85618  Biso   1.000  O
  O63      1.0000 0.76781  0.83104  0.58860  Biso   1.000  O
  O64      1.0000 0.90669  0.76223  0.90113  Biso   1.000  O
  O65      1.0000 0.87126  0.69700  0.88234  Biso   1.000  O
  O66      1.0000 0.70222  0.79532  0.60825  Biso   1.000  O
  N21      1.0000 0.70834  0.35577  0.89048  Biso   1.000  N
  N22      1.0000 0.74479  0.50264  0.88222  Biso   1.000  N
  C271     1.0000 0.79355  0.70800  0.75703  Biso   1.000  C
  H161     1.0000 0.81297  0.73543  0.75643  Biso   1.000  H
  C272     1.0000 0.68502  0.37284  0.89040  Biso   1.000  C
  C273     1.0000 0.70570  0.41809  0.88855  Biso   1.000  C
  C274     1.0000 0.75640  0.72042  0.69451  Biso   1.000  C
  C275     1.0000 0.79700  0.68272  0.78871  Biso   1.000  C
  H162     1.0000 0.81827  0.69353  0.80933  Biso   1.000  H
  C276     1.0000 0.93077  0.73996  0.84088  Biso   1.000  C
  C277     1.0000 0.74526  0.77341  0.63751  Biso   1.000  C
  C278     1.0000 0.76875  0.64138  0.78954  Biso   1.000  C
  C279     1.0000 0.73793  0.80260  0.60943  Biso   1.000  C
  C280     1.0000 0.68409  0.43824  0.88550  Biso   1.000  C
  H163     1.0000 0.65587  0.42373  0.88533  Biso   1.000  H
  C281     1.0000 0.77128  0.61404  0.82434  Biso   1.000  C
  C282     1.0000 0.74804  0.44176  0.88845  Biso   1.000  C
  H164     1.0000 0.76397  0.42953  0.89053  Biso   1.000  H
  C283     1.0000 0.76142  0.69270  0.72611  Biso   1.000  C
  C284     1.0000 0.78389  0.78317  0.65170  Biso   1.000  C
  H165     1.0000 0.80637  0.80733  0.64233  Biso   1.000  H
  C285     1.0000 0.90034  0.73217  0.87765  Biso   1.000  C
  C286     1.0000 0.76588  0.48326  0.88524  Biso   1.000  C
  H166     1.0000 0.79407  0.49863  0.88513  Biso   1.000  H
  C287     1.0000 0.71234  0.73731  0.65168  Biso   1.000  C
  H167     1.0000 0.68627  0.73053  0.64253  Biso   1.000  H
  C288     1.0000 0.73753  0.62563  0.75800  Biso   1.000  C
  H168     1.0000 0.71877  0.59793  0.75773  Biso   1.000  H
  C289     1.0000 0.94624  0.72837  0.76594  Biso   1.000  C
  H169     1.0000 0.93777  0.71363  0.73923  Biso   1.000  H
  C290     1.0000 0.71778  0.71103  0.67940  Biso   1.000  C
  H170     1.0000 0.69527  0.68663  0.68813  Biso   1.000  H
  C291     1.0000 0.73424  0.65118  0.72690  Biso   1.000  C
  H171     1.0000 0.71317  0.64013  0.70593  Biso   1.000  H
  C292     1.0000 0.78910  0.75702  0.67975  Biso   1.000  C
  H172     1.0000 0.81517  0.76403  0.68903  Biso   1.000  H
  C293     1.0000 0.70455  0.47996  0.88270  Biso   1.000  C
  H173     1.0000 0.68937  0.49303  0.88103  Biso   1.000  H
  C294     1.0000 0.91872  0.71876  0.80186  Biso   1.000  C
  H174     1.0000 0.89207  0.69773  0.79873  Biso   1.000  H
  C295     1.0000 0.99802  0.77923  0.81101  Biso   1.000  C
  H175     1.0000 0.02507  0.79893  0.81513  Biso   1.000  H
  C296     1.0000 0.98567  0.75953  0.77023  Biso   1.000  C
  C297     1.0000 0.97067  0.77008  0.84588  Biso   1.000  C
  H176     1.0000 0.97927  0.78433  0.87293  Biso   1.000  H
  Co12     1.0000 0.44075  0.89995  0.21411  Biso   1.000  Co
  O67      1.0000 0.41481  0.90952  0.15502  Biso   1.000  O
  O68      1.0000 0.46373  0.96237  0.18952  Biso   1.000  O
  O69      1.0000 0.43447  0.16438  0.92194  Biso   1.000  O
  O70      1.0000 0.57335  0.09557  0.23447  Biso   1.000  O
  O71      1.0000 0.53792  0.03034  0.21568  Biso   1.000  O
  O72      1.0000 0.36888  0.12866  0.94159  Biso   1.000  O
  N23      1.0000 0.37500  0.68911  0.22382  Biso   1.000  N
  N24      1.0000 0.41145  0.83598  0.21556  Biso   1.000  N
  C298     1.0000 0.46021  0.04134  0.09037  Biso   1.000  C
  H177     1.0000 0.47963  0.06877  0.08977  Biso   1.000  H
  C299     1.0000 0.35168  0.70618  0.22374  Biso   1.000  C
  C300     1.0000 0.37236  0.75143  0.22189  Biso   1.000  C
  C301     1.0000 0.42306  0.05376  0.02785  Biso   1.000  C
  C302     1.0000 0.46366  0.01606  0.12205  Biso   1.000  C
  H178     1.0000 0.48493  0.02687  0.14267  Biso   1.000  H
  C303     1.0000 0.59743  0.07330  0.17422  Biso   1.000  C
  C304     1.0000 0.41192  0.10675  0.97085  Biso   1.000  C
  C305     1.0000 0.43541  0.97472  0.12288  Biso   1.000  C
  C306     1.0000 0.40459  0.13594  0.94277  Biso   1.000  C
  C307     1.0000 0.35075  0.77158  0.21884  Biso   1.000  C
  H179     1.0000 0.32253  0.75707  0.21867  Biso   1.000  H
  C308     1.0000 0.43794  0.94738  0.15768  Biso   1.000  C
  C309     1.0000 0.41470  0.77510  0.22179  Biso   1.000  C
  H180     1.0000 0.43063  0.76287  0.22387  Biso   1.000  H
  C310     1.0000 0.42808  0.02604  0.05945  Biso   1.000  C
  C311     1.0000 0.45055  0.11651  0.98504  Biso   1.000  C
  H181     1.0000 0.47303  0.14067  0.97567  Biso   1.000  H
  C312     1.0000 0.56700  0.06551  0.21099  Biso   1.000  C
  C313     1.0000 0.43254  0.81660  0.21858  Biso   1.000  C
  H182     1.0000 0.46073  0.83197  0.21847  Biso   1.000  H
  C314     1.0000 0.37900  0.07065  0.98502  Biso   1.000  C
  H183     1.0000 0.35293  0.06387  0.97587  Biso   1.000  H
  C315     1.0000 0.40419  0.95897  0.09134  Biso   1.000  C
  H184     1.0000 0.38543  0.93127  0.09107  Biso   1.000  H
  C316     1.0000 0.61290  0.06171  0.09928  Biso   1.000  C
  H185     1.0000 0.60443  0.04697  0.07257  Biso   1.000  H
  C317     1.0000 0.38444  0.04437  0.01274  Biso   1.000  C
  H186     1.0000 0.36193  0.01997  0.02147  Biso   1.000  H
  C318     1.0000 0.40090  0.98452  0.06024  Biso   1.000  C
  H187     1.0000 0.37983  0.97347  0.03927  Biso   1.000  H
  C319     1.0000 0.45576  0.09036  0.01309  Biso   1.000  C
  H188     1.0000 0.48183  0.09737  0.02237  Biso   1.000  H
  C320     1.0000 0.37121  0.81330  0.21604  Biso   1.000  C
  H189     1.0000 0.35603  0.82637  0.21437  Biso   1.000  H
  C321     1.0000 0.58538  0.05210  0.13520  Biso   1.000  C
  H190     1.0000 0.55873  0.03107  0.13207  Biso   1.000  H
  C322     1.0000 0.66468  0.11257  0.14435  Biso   1.000  C
  H191     1.0000 0.69173  0.13227  0.14847  Biso   1.000  H
  C323     1.0000 0.65233  0.09287  0.10357  Biso   1.000  C
  C324     1.0000 0.63733  0.10342  0.17922  Biso   1.000  C
  H192     1.0000 0.64593  0.11767  0.20627  Biso   1.000  H
  Co13     1.0000 0.12587  0.89258  0.54745  Biso   1.000  Co
  O73      1.0000 0.16137  0.91852  0.48835  Biso   1.000  O
  O74      1.0000 0.16530  0.86960  0.52285  Biso   1.000  O
  O75      1.0000 0.39657  0.89886  0.25527  Biso   1.000  O
  O76      1.0000 0.18888  0.75998  0.56780  Biso   1.000  O
  O77      1.0000 0.15908  0.79541  0.54901  Biso   1.000  O
  O78      1.0000 0.42644  0.96445  0.27492  Biso   1.000  O
  N25      1.0000 0.98077  0.95833  0.55715  Biso   1.000  N
  N26      1.0000 0.09119  0.92188  0.54889  Biso   1.000  N
  C325     1.0000 0.24779  0.87312  0.42370  Biso   1.000  C
  H193     1.0000 0.25580  0.85370  0.42310  Biso   1.000  H
  C326     1.0000 0.02116  0.98165  0.55707  Biso   1.000  C
  C327     1.0000 0.04573  0.96097  0.55522  Biso   1.000  C
  C328     1.0000 0.29736  0.91027  0.36118  Biso   1.000  C
  C329     1.0000 0.21906  0.86967  0.45538  Biso   1.000  C
  H194     1.0000 0.20860  0.84840  0.47600  Biso   1.000  H
  C330     1.0000 0.14253  0.73590  0.50755  Biso   1.000  C
  C331     1.0000 0.36149  0.92141  0.30418  Biso   1.000  C
  C332     1.0000 0.20597  0.89792  0.45621  Biso   1.000  C
  C333     1.0000 0.39801  0.92874  0.27610  Biso   1.000  C
  C334     1.0000 0.08749  0.98258  0.55217  Biso   1.000  C
  H195     1.0000 0.10120  0.01080  0.55200  Biso   1.000  H
  C335     1.0000 0.17610  0.89539  0.49101  Biso   1.000  C
  C336     1.0000 0.02706  0.91863  0.55512  Biso   1.000  C
  H196     1.0000 0.99890  0.90270  0.55720  Biso   1.000  H
  C337     1.0000 0.26462  0.90525  0.39278  Biso   1.000  C
  C338     1.0000 0.33262  0.88278  0.31837  Biso   1.000  C
  H197     1.0000 0.33430  0.86030  0.30900  Biso   1.000  H
  C339     1.0000 0.16517  0.76633  0.54432  Biso   1.000  C
  C340     1.0000 0.05072  0.90079  0.55191  Biso   1.000  C
  H198     1.0000 0.03790  0.87260  0.55180  Biso   1.000  H
  C341     1.0000 0.35831  0.95433  0.31835  Biso   1.000  C
  H199     1.0000 0.37760  0.98040  0.30920  Biso   1.000  H
  C342     1.0000 0.22144  0.92914  0.42467  Biso   1.000  C
  H200     1.0000 0.21250  0.94790  0.42440  Biso   1.000  H
  C343     1.0000 0.11547  0.72043  0.43261  Biso   1.000  C
  H201     1.0000 0.10920  0.72890  0.40590  Biso   1.000  H
  C344     1.0000 0.32659  0.94889  0.34607  Biso   1.000  C
  H202     1.0000 0.32470  0.97140  0.35480  Biso   1.000  H
  C345     1.0000 0.25028  0.93243  0.39357  Biso   1.000  C
  H203     1.0000 0.26030  0.95350  0.37260  Biso   1.000  H
  C346     1.0000 0.30126  0.87757  0.34642  Biso   1.000  C
  H204     1.0000 0.28220  0.85150  0.35570  Biso   1.000  H
  C347     1.0000 0.10875  0.96212  0.54937  Biso   1.000  C
  H205     1.0000 0.13700  0.97730  0.54770  Biso   1.000  H
  C348     1.0000 0.13338  0.74795  0.46853  Biso   1.000  C
  H206     1.0000 0.13900  0.77460  0.46540  Biso   1.000  H
  C349     1.0000 0.11455  0.66865  0.47768  Biso   1.000  C
  H207     1.0000 0.10720  0.64160  0.48180  Biso   1.000  H
  C350     1.0000 0.10720  0.68100  0.43690  Biso   1.000  C
  C351     1.0000 0.13275  0.69600  0.51255  Biso   1.000  C
  H208     1.0000 0.13840  0.68740  0.53960  Biso   1.000  H
  Co14     1.0000 0.79254  0.22592  0.88078  Biso   1.000  Co
  O79      1.0000 0.82804  0.25185  0.82168  Biso   1.000  O
  O80      1.0000 0.83197  0.20293  0.85618  Biso   1.000  O
  O81      1.0000 0.06324  0.23219  0.58860  Biso   1.000  O
  O82      1.0000 0.85555  0.09331  0.90113  Biso   1.000  O
  O83      1.0000 0.82575  0.12874  0.88234  Biso   1.000  O
  O84      1.0000 0.09311  0.29778  0.60825  Biso   1.000  O
  N27      1.0000 0.64744  0.29166  0.89048  Biso   1.000  N
  N28      1.0000 0.75786  0.25521  0.88222  Biso   1.000  N
  C352     1.0000 0.91446  0.20645  0.75703  Biso   1.000  C
  H209     1.0000 0.92247  0.18703  0.75643  Biso   1.000  H
  C353     1.0000 0.68783  0.31498  0.89040  Biso   1.000  C
  C354     1.0000 0.71240  0.29430  0.88855  Biso   1.000  C
  C355     1.0000 0.96403  0.24360  0.69451  Biso   1.000  C
  C356     1.0000 0.88573  0.20300  0.78871  Biso   1.000  C
  H210     1.0000 0.87527  0.18173  0.80933  Biso   1.000  H
  C357     1.0000 0.80920  0.06923  0.84088  Biso   1.000  C
  C358     1.0000 0.02816  0.25474  0.63751  Biso   1.000  C
  C359     1.0000 0.87264  0.23125  0.78954  Biso   1.000  C
  C360     1.0000 0.06468  0.26207  0.60943  Biso   1.000  C
  C361     1.0000 0.75416  0.31591  0.88550  Biso   1.000  C
  H211     1.0000 0.76787  0.34413  0.88533  Biso   1.000  H
  C362     1.0000 0.84277  0.22872  0.82434  Biso   1.000  C
  C363     1.0000 0.69373  0.25196  0.88845  Biso   1.000  C
  H212     1.0000 0.66557  0.23603  0.89053  Biso   1.000  H
  C364     1.0000 0.93129  0.23858  0.72611  Biso   1.000  C
  C365     1.0000 0.99929  0.21611  0.65170  Biso   1.000  C
  H213     1.0000 0.00097  0.19363  0.64233  Biso   1.000  H
  C366     1.0000 0.83184  0.09966  0.87765  Biso   1.000  C
  C367     1.0000 0.71739  0.23412  0.88524  Biso   1.000  C
  H214     1.0000 0.70457  0.20593  0.88513  Biso   1.000  H
  C368     1.0000 0.02498  0.28766  0.65168  Biso   1.000  C
  H215     1.0000 0.04427  0.31373  0.64253  Biso   1.000  H
  C369     1.0000 0.88811  0.26247  0.75800  Biso   1.000  C
  H216     1.0000 0.87917  0.28123  0.75773  Biso   1.000  H
  C370     1.0000 0.78214  0.05376  0.76594  Biso   1.000  C
  H217     1.0000 0.77587  0.06223  0.73923  Biso   1.000  H
  C371     1.0000 0.99326  0.28222  0.67940  Biso   1.000  C
  H218     1.0000 0.99137  0.30473  0.68813  Biso   1.000  H
  C372     1.0000 0.91695  0.26576  0.72690  Biso   1.000  C
  H219     1.0000 0.92697  0.28683  0.70593  Biso   1.000  H
  C373     1.0000 0.96793  0.21090  0.67975  Biso   1.000  C
  H220     1.0000 0.94887  0.18483  0.68903  Biso   1.000  H
  C374     1.0000 0.77542  0.29545  0.88270  Biso   1.000  C
  H221     1.0000 0.80367  0.31063  0.88103  Biso   1.000  H
  C375     1.0000 0.80005  0.08128  0.80186  Biso   1.000  C
  H222     1.0000 0.80567  0.10793  0.79873  Biso   1.000  H
  C376     1.0000 0.78122  0.00198  0.81101  Biso   1.000  C
  H223     1.0000 0.77387  0.97493  0.81513  Biso   1.000  H
  C377     1.0000 0.77387  0.01433  0.77023  Biso   1.000  C
  C378     1.0000 0.79942  0.02933  0.84588  Biso   1.000  C
  H224     1.0000 0.80507  0.02073  0.87293  Biso   1.000  H
  Co15     1.0000 0.45920  0.55925  0.21411  Biso   1.000  Co
  O85      1.0000 0.49470  0.58519  0.15502  Biso   1.000  O
  O86      1.0000 0.49863  0.53627  0.18952  Biso   1.000  O
  O87      1.0000 0.72990  0.56553  0.92194  Biso   1.000  O
  O88      1.0000 0.52221  0.42665  0.23447  Biso   1.000  O
  O89      1.0000 0.49241  0.46208  0.21568  Biso   1.000  O
  O90      1.0000 0.75977  0.63112  0.94159  Biso   1.000  O
  N29      1.0000 0.31410  0.62500  0.22382  Biso   1.000  N
  N30      1.0000 0.42452  0.58855  0.21556  Biso   1.000  N
  C379     1.0000 0.58112  0.53979  0.09037  Biso   1.000  C
  H225     1.0000 0.58913  0.52037  0.08977  Biso   1.000  H
  C380     1.0000 0.35449  0.64832  0.22374  Biso   1.000  C
  C381     1.0000 0.37906  0.62764  0.22189  Biso   1.000  C
  C382     1.0000 0.63069  0.57694  0.02785  Biso   1.000  C
  C383     1.0000 0.55239  0.53634  0.12205  Biso   1.000  C
  H226     1.0000 0.54193  0.51507  0.14267  Biso   1.000  H
  C384     1.0000 0.47586  0.40257  0.17422  Biso   1.000  C
  C385     1.0000 0.69482  0.58808  0.97085  Biso   1.000  C
  C386     1.0000 0.53930  0.56459  0.12288  Biso   1.000  C
  C387     1.0000 0.73134  0.59541  0.94277  Biso   1.000  C
  C388     1.0000 0.42082  0.64925  0.21884  Biso   1.000  C
  H227     1.0000 0.43453  0.67747  0.21867  Biso   1.000  H
  C389     1.0000 0.50943  0.56206  0.15768  Biso   1.000  C
  C390     1.0000 0.36039  0.58530  0.22179  Biso   1.000  C
  H228     1.0000 0.33223  0.56937  0.22387  Biso   1.000  H
  C391     1.0000 0.59795  0.57192  0.05945  Biso   1.000  C
  C392     1.0000 0.66595  0.54945  0.98504  Biso   1.000  C
  H229     1.0000 0.66763  0.52697  0.97567  Biso   1.000  H
  C393     1.0000 0.49850  0.43300  0.21099  Biso   1.000  C
  C394     1.0000 0.38405  0.56746  0.21858  Biso   1.000  C
  H230     1.0000 0.37123  0.53927  0.21847  Biso   1.000  H
  C395     1.0000 0.69164  0.62100  0.98502  Biso   1.000  C
  H231     1.0000 0.71093  0.64707  0.97587  Biso   1.000  H
  C396     1.0000 0.55477  0.59581  0.09134  Biso   1.000  C
  H232     1.0000 0.54583  0.61457  0.09107  Biso   1.000  H
  C397     1.0000 0.44880  0.38710  0.09928  Biso   1.000  C
  H233     1.0000 0.44253  0.39557  0.07257  Biso   1.000  H
  C398     1.0000 0.65992  0.61556  0.01274  Biso   1.000  C
  H234     1.0000 0.65803  0.63807  0.02147  Biso   1.000  H
  C399     1.0000 0.58361  0.59910  0.06024  Biso   1.000  C
  H235     1.0000 0.59363  0.62017  0.03927  Biso   1.000  H
  C400     1.0000 0.63459  0.54424  0.01309  Biso   1.000  C
  H236     1.0000 0.61553  0.51817  0.02237  Biso   1.000  H
  C401     1.0000 0.44208  0.62879  0.21604  Biso   1.000  C
  H237     1.0000 0.47033  0.64397  0.21437  Biso   1.000  H
  C402     1.0000 0.46671  0.41462  0.13520  Biso   1.000  C
  H238     1.0000 0.47233  0.44127  0.13207  Biso   1.000  H
  C403     1.0000 0.44788  0.33532  0.14435  Biso   1.000  C
  H239     1.0000 0.44053  0.30827  0.14847  Biso   1.000  H
  C404     1.0000 0.44053  0.34767  0.10357  Biso   1.000  C
  C405     1.0000 0.46608  0.36267  0.17922  Biso   1.000  C
  H240     1.0000 0.47173  0.35407  0.20627  Biso   1.000  H
  Co16     1.0000 0.76671  0.87413  0.54745  Biso   1.000  Co
  O91      1.0000 0.75715  0.83863  0.48835  Biso   1.000  O
  O92      1.0000 0.70430  0.83470  0.52285  Biso   1.000  O
  O93      1.0000 0.50229  0.60343  0.25527  Biso   1.000  O
  O94      1.0000 0.57110  0.81112  0.56780  Biso   1.000  O
  O95      1.0000 0.63633  0.84092  0.54901  Biso   1.000  O
  O96      1.0000 0.53801  0.57356  0.27492  Biso   1.000  O
  N31      1.0000 0.97756  0.01923  0.55715  Biso   1.000  N
  N32      1.0000 0.83069  0.90881  0.54889  Biso   1.000  N
  C406     1.0000 0.62533  0.75221  0.42370  Biso   1.000  C
  H241     1.0000 0.59790  0.74420  0.42310  Biso   1.000  H
  C407     1.0000 0.96049  0.97884  0.55707  Biso   1.000  C
  C408     1.0000 0.91524  0.95427  0.55522  Biso   1.000  C
  C409     1.0000 0.61291  0.70264  0.36118  Biso   1.000  C
  C410     1.0000 0.65061  0.78094  0.45538  Biso   1.000  C
  H242     1.0000 0.63980  0.79140  0.47600  Biso   1.000  H
  C411     1.0000 0.59337  0.85747  0.50755  Biso   1.000  C
  C412     1.0000 0.55992  0.63851  0.30418  Biso   1.000  C
  C413     1.0000 0.69195  0.79403  0.45621  Biso   1.000  C
  C414     1.0000 0.53073  0.60199  0.27610  Biso   1.000  C
  C415     1.0000 0.89509  0.91251  0.55217  Biso   1.000  C
  H243     1.0000 0.90960  0.89880  0.55200  Biso   1.000  H
  C416     1.0000 0.71929  0.82390  0.49101  Biso   1.000  C
  C417     1.0000 0.89157  0.97294  0.55512  Biso   1.000  C
  H244     1.0000 0.90380  0.00110  0.55720  Biso   1.000  H
  C418     1.0000 0.64063  0.73538  0.39278  Biso   1.000  C
  C419     1.0000 0.55016  0.66738  0.31837  Biso   1.000  C
  H245     1.0000 0.52600  0.66570  0.30900  Biso   1.000  H
  C420     1.0000 0.60116  0.83483  0.54432  Biso   1.000  C
  C421     1.0000 0.85007  0.94928  0.55191  Biso   1.000  C
  H246     1.0000 0.83470  0.96210  0.55180  Biso   1.000  H
  C422     1.0000 0.59602  0.64169  0.31835  Biso   1.000  C
  H247     1.0000 0.60280  0.62240  0.30920  Biso   1.000  H
  C423     1.0000 0.70770  0.77856  0.42467  Biso   1.000  C
  H248     1.0000 0.73540  0.78750  0.42440  Biso   1.000  H
  C424     1.0000 0.60496  0.88453  0.43261  Biso   1.000  C
  H249     1.0000 0.61970  0.89080  0.40590  Biso   1.000  H
  C425     1.0000 0.62230  0.67341  0.34607  Biso   1.000  C
  H250     1.0000 0.64670  0.67530  0.35480  Biso   1.000  H
  C426     1.0000 0.68215  0.74972  0.39357  Biso   1.000  C
  H251     1.0000 0.69320  0.73970  0.37260  Biso   1.000  H
  C427     1.0000 0.57631  0.69874  0.34642  Biso   1.000  C
  H252     1.0000 0.56930  0.71780  0.35570  Biso   1.000  H
  C428     1.0000 0.85337  0.89125  0.54937  Biso   1.000  C
  H253     1.0000 0.84030  0.86300  0.54770  Biso   1.000  H
  C429     1.0000 0.61457  0.86662  0.46853  Biso   1.000  C
  H254     1.0000 0.63560  0.86100  0.46540  Biso   1.000  H
  C430     1.0000 0.55410  0.88545  0.47768  Biso   1.000  C
  H255     1.0000 0.53440  0.89280  0.48180  Biso   1.000  H
  C431     1.0000 0.57380  0.89280  0.43690  Biso   1.000  C
  C432     1.0000 0.56325  0.86725  0.51255  Biso   1.000  C
  H256     1.0000 0.54900  0.86160  0.53960  Biso   1.000  H
  Co17     1.0000 0.43338  0.20746  0.88078  Biso   1.000  Co
  O97      1.0000 0.42382  0.17196  0.82168  Biso   1.000  O
  O98      1.0000 0.37097  0.16803  0.85618  Biso   1.000  O
  O99      1.0000 0.16896  0.93676  0.58860  Biso   1.000  O
  O100     1.0000 0.23777  0.14445  0.90113  Biso   1.000  O
  O101     1.0000 0.30300  0.17425  0.88234  Biso   1.000  O
  O102     1.0000 0.20468  0.90689  0.60825  Biso   1.000  O
  N33      1.0000 0.64423  0.35256  0.89048  Biso   1.000  N
  N34      1.0000 0.49736  0.24214  0.88222  Biso   1.000  N
  C433     1.0000 0.29200  0.08554  0.75703  Biso   1.000  C
  H257     1.0000 0.26457  0.07753  0.75643  Biso   1.000  H
  C434     1.0000 0.62716  0.31217  0.89040  Biso   1.000  C
  C435     1.0000 0.58191  0.28760  0.88855  Biso   1.000  C
  C436     1.0000 0.27958  0.03597  0.69451  Biso   1.000  C
  C437     1.0000 0.31728  0.11427  0.78871  Biso   1.000  C
  H258     1.0000 0.30647  0.12473  0.80933  Biso   1.000  H
  C438     1.0000 0.26004  0.19080  0.84088  Biso   1.000  C
  C439     1.0000 0.22659  0.97184  0.63751  Biso   1.000  C
  C440     1.0000 0.35862  0.12736  0.78954  Biso   1.000  C
  C441     1.0000 0.19740  0.93532  0.60943  Biso   1.000  C
  C442     1.0000 0.56176  0.24584  0.88550  Biso   1.000  C
  H259     1.0000 0.57627  0.23213  0.88533  Biso   1.000  H
  C443     1.0000 0.38596  0.15723  0.82434  Biso   1.000  C
  C444     1.0000 0.55824  0.30627  0.88845  Biso   1.000  C
  H260     1.0000 0.57047  0.33443  0.89053  Biso   1.000  H
  C445     1.0000 0.30730  0.06871  0.72611  Biso   1.000  C
  C446     1.0000 0.21683  0.00071  0.65170  Biso   1.000  C
  H261     1.0000 0.19267  0.99903  0.64233  Biso   1.000  H
  C447     1.0000 0.26783  0.16816  0.87765  Biso   1.000  C
  C448     1.0000 0.51674  0.28261  0.88524  Biso   1.000  C
  H262     1.0000 0.50137  0.29543  0.88513  Biso   1.000  H
  C449     1.0000 0.26269  0.97502  0.65168  Biso   1.000  C
  H263     1.0000 0.26947  0.95573  0.64253  Biso   1.000  H
  C450     1.0000 0.37437  0.11189  0.75800  Biso   1.000  C
  H264     1.0000 0.40207  0.12083  0.75773  Biso   1.000  H
  C451     1.0000 0.27163  0.21786  0.76594  Biso   1.000  C
  H265     1.0000 0.28637  0.22413  0.73923  Biso   1.000  H
  C452     1.0000 0.28897  0.00674  0.67940  Biso   1.000  C
  H266     1.0000 0.31337  0.00863  0.68813  Biso   1.000  H
  C453     1.0000 0.34882  0.08305  0.72690  Biso   1.000  C
  H267     1.0000 0.35987  0.07303  0.70593  Biso   1.000  H
  C454     1.0000 0.24298  0.03207  0.67975  Biso   1.000  C
  H268     1.0000 0.23597  0.05113  0.68903  Biso   1.000  H
  C455     1.0000 0.52004  0.22458  0.88270  Biso   1.000  C
  H269     1.0000 0.50697  0.19633  0.88103  Biso   1.000  H
  C456     1.0000 0.28124  0.19995  0.80186  Biso   1.000  C
  H270     1.0000 0.30227  0.19433  0.79873  Biso   1.000  H
  C457     1.0000 0.22077  0.21878  0.81101  Biso   1.000  C
  H271     1.0000 0.20107  0.22613  0.81513  Biso   1.000  H
  C458     1.0000 0.24047  0.22613  0.77023  Biso   1.000  C
  C459     1.0000 0.22992  0.20058  0.84588  Biso   1.000  C
  H272     1.0000 0.21567  0.19493  0.87293  Biso   1.000  H
  Co18     1.0000 0.10005  0.54080  0.21411  Biso   1.000  Co
  O103     1.0000 0.09048  0.50530  0.15502  Biso   1.000  O
  O104     1.0000 0.03763  0.50137  0.18952  Biso   1.000  O
  O105     1.0000 0.83562  0.27010  0.92194  Biso   1.000  O
  O106     1.0000 0.90443  0.47779  0.23447  Biso   1.000  O
  O107     1.0000 0.96966  0.50759  0.21568  Biso   1.000  O
  O108     1.0000 0.87134  0.24023  0.94159  Biso   1.000  O
  N35      1.0000 0.31089  0.68590  0.22382  Biso   1.000  N
  N36      1.0000 0.16402  0.57548  0.21556  Biso   1.000  N
  C460     1.0000 0.95866  0.41888  0.09037  Biso   1.000  C
  H273     1.0000 0.93123  0.41087  0.08977  Biso   1.000  H
  C461     1.0000 0.29382  0.64551  0.22374  Biso   1.000  C
  C462     1.0000 0.24857  0.62094  0.22189  Biso   1.000  C
  C463     1.0000 0.94624  0.36931  0.02785  Biso   1.000  C
  C464     1.0000 0.98394  0.44761  0.12205  Biso   1.000  C
  H274     1.0000 0.97313  0.45807  0.14267  Biso   1.000  H
  C465     1.0000 0.92670  0.52414  0.17422  Biso   1.000  C
  C466     1.0000 0.89325  0.30518  0.97085  Biso   1.000  C
  C467     1.0000 0.02528  0.46070  0.12288  Biso   1.000  C
  C468     1.0000 0.86406  0.26866  0.94277  Biso   1.000  C
  C469     1.0000 0.22842  0.57918  0.21884  Biso   1.000  C
  H275     1.0000 0.24293  0.56547  0.21867  Biso   1.000  H
  C470     1.0000 0.05262  0.49057  0.15768  Biso   1.000  C
  C471     1.0000 0.22490  0.63961  0.22179  Biso   1.000  C
  H276     1.0000 0.23713  0.66777  0.22387  Biso   1.000  H
  C472     1.0000 0.97396  0.40205  0.05945  Biso   1.000  C
  C473     1.0000 0.88349  0.33405  0.98504  Biso   1.000  C
  H277     1.0000 0.85933  0.33237  0.97567  Biso   1.000  H
  C474     1.0000 0.93449  0.50150  0.21099  Biso   1.000  C
  C475     1.0000 0.18340  0.61595  0.21858  Biso   1.000  C
  H278     1.0000 0.16803  0.62877  0.21847  Biso   1.000  H
  C476     1.0000 0.92935  0.30836  0.98502  Biso   1.000  C
  H279     1.0000 0.93613  0.28907  0.97587  Biso   1.000  H
  C477     1.0000 0.04103  0.44523  0.09134  Biso   1.000  C
  H280     1.0000 0.06873  0.45417  0.09107  Biso   1.000  H
  C478     1.0000 0.93829  0.55120  0.09928  Biso   1.000  C
  H281     1.0000 0.95303  0.55747  0.07257  Biso   1.000  H
  C479     1.0000 0.95563  0.34008  0.01274  Biso   1.000  C
  H282     1.0000 0.98003  0.34197  0.02147  Biso   1.000  H
  C480     1.0000 0.01548  0.41639  0.06024  Biso   1.000  C
  H283     1.0000 0.02653  0.40637  0.03927  Biso   1.000  H
  C481     1.0000 0.90964  0.36541  0.01309  Biso   1.000  C
  H284     1.0000 0.90263  0.38447  0.02237  Biso   1.000  H
  C482     1.0000 0.18670  0.55792  0.21604  Biso   1.000  C
  H285     1.0000 0.17363  0.52967  0.21437  Biso   1.000  H
  C483     1.0000 0.94790  0.53329  0.13520  Biso   1.000  C
  H286     1.0000 0.96893  0.52767  0.13207  Biso   1.000  H
  C484     1.0000 0.88743  0.55212  0.14435  Biso   1.000  C
  H287     1.0000 0.86773  0.55947  0.14847  Biso   1.000  H
  C485     1.0000 0.90713  0.55947  0.10357  Biso   1.000  C
  C486     1.0000 0.89658  0.53392  0.17922  Biso   1.000  C
  H288     1.0000 0.88233  0.52827  0.20627  Biso   1.000  H
  Co19     1.0000 0.33333  0.14991  0.91667  Biso   1.000  Co
  Co20     1.0000 0.00000  0.48324  0.25000  Biso   1.000  Co
  Co21     1.0000 0.85009  0.18343  0.91667  Biso   1.000  Co
  Co22     1.0000 0.51676  0.51676  0.25000  Biso   1.000  Co
  Co23     1.0000 0.81657  0.66667  0.91667  Biso   1.000  Co
  Co24     1.0000 0.48324  0.00000  0.25000  Biso   1.000  Co
  Co25     1.0000 0.14991  0.33333  0.58333  Biso   1.000  Co
  Co26     1.0000 0.18343  0.85009  0.58333  Biso   1.000  Co
  Co27     1.0000 0.66667  0.81657  0.58333  Biso   1.000  Co
  Co28     1.0000 0.76671  0.89258  0.04745  Biso   1.000  Co
  O109     1.0000 0.75715  0.91852  0.98835  Biso   1.000  O
  O110     1.0000 0.70430  0.86960  0.02285  Biso   1.000  O
  O111     1.0000 0.50229  0.89886  0.75527  Biso   1.000  O
  O112     1.0000 0.57110  0.75998  0.06780  Biso   1.000  O
  O113     1.0000 0.63633  0.79541  0.04901  Biso   1.000  O
  O114     1.0000 0.53801  0.96445  0.77492  Biso   1.000  O
  N37      1.0000 0.97756  0.95833  0.05715  Biso   1.000  N
  N38      1.0000 0.83069  0.92188  0.04889  Biso   1.000  N
  C487     1.0000 0.62533  0.87312  0.92370  Biso   1.000  C
  H289     1.0000 0.59790  0.85370  0.92310  Biso   1.000  H
  C488     1.0000 0.96049  0.98165  0.05707  Biso   1.000  C
  C489     1.0000 0.91524  0.96097  0.05522  Biso   1.000  C
  C490     1.0000 0.61291  0.91027  0.86118  Biso   1.000  C
  C491     1.0000 0.65061  0.86967  0.95538  Biso   1.000  C
  H290     1.0000 0.63980  0.84840  0.97600  Biso   1.000  H
  C492     1.0000 0.59337  0.73590  0.00755  Biso   1.000  C
  C493     1.0000 0.55992  0.92141  0.80418  Biso   1.000  C
  C494     1.0000 0.69195  0.89792  0.95621  Biso   1.000  C
  C495     1.0000 0.53073  0.92874  0.77610  Biso   1.000  C
  C496     1.0000 0.89509  0.98258  0.05217  Biso   1.000  C
  H291     1.0000 0.90960  0.01080  0.05200  Biso   1.000  H
  C497     1.0000 0.71929  0.89539  0.99101  Biso   1.000  C
  C498     1.0000 0.89157  0.91863  0.05512  Biso   1.000  C
  H292     1.0000 0.90380  0.90270  0.05720  Biso   1.000  H
  C499     1.0000 0.64063  0.90525  0.89278  Biso   1.000  C
  C500     1.0000 0.55016  0.88278  0.81837  Biso   1.000  C
  H293     1.0000 0.52600  0.86030  0.80900  Biso   1.000  H
  C501     1.0000 0.60116  0.76633  0.04432  Biso   1.000  C
  C502     1.0000 0.85007  0.90079  0.05191  Biso   1.000  C
  H294     1.0000 0.83470  0.87260  0.05180  Biso   1.000  H
  C503     1.0000 0.59602  0.95433  0.81835  Biso   1.000  C
  H295     1.0000 0.60280  0.98040  0.80920  Biso   1.000  H
  C504     1.0000 0.70770  0.92914  0.92467  Biso   1.000  C
  H296     1.0000 0.73540  0.94790  0.92440  Biso   1.000  H
  C505     1.0000 0.60496  0.72043  0.93261  Biso   1.000  C
  H297     1.0000 0.61970  0.72890  0.90590  Biso   1.000  H
  C506     1.0000 0.62230  0.94889  0.84607  Biso   1.000  C
  H298     1.0000 0.64670  0.97140  0.85480  Biso   1.000  H
  C507     1.0000 0.68215  0.93243  0.89357  Biso   1.000  C
  H299     1.0000 0.69320  0.95350  0.87260  Biso   1.000  H
  C508     1.0000 0.57631  0.87757  0.84642  Biso   1.000  C
  H300     1.0000 0.56930  0.85150  0.85570  Biso   1.000  H
  C509     1.0000 0.85337  0.96212  0.04937  Biso   1.000  C
  H301     1.0000 0.84030  0.97730  0.04770  Biso   1.000  H
  C510     1.0000 0.61457  0.74795  0.96853  Biso   1.000  C
  H302     1.0000 0.63560  0.77460  0.96540  Biso   1.000  H
  C511     1.0000 0.55410  0.66865  0.97768  Biso   1.000  C
  H303     1.0000 0.53440  0.64160  0.98180  Biso   1.000  H
  C512     1.0000 0.57380  0.68100  0.93690  Biso   1.000  C
  C513     1.0000 0.56325  0.69600  0.01255  Biso   1.000  C
  H304     1.0000 0.54900  0.68740  0.03960  Biso   1.000  H
  Co29     1.0000 0.43338  0.22592  0.38078  Biso   1.000  Co
  O115     1.0000 0.42382  0.25185  0.32168  Biso   1.000  O
  O116     1.0000 0.37097  0.20293  0.35618  Biso   1.000  O
  O117     1.0000 0.16896  0.23219  0.08860  Biso   1.000  O
  O118     1.0000 0.23777  0.09331  0.40113  Biso   1.000  O
  O119     1.0000 0.30300  0.12874  0.38234  Biso   1.000  O
  O120     1.0000 0.20468  0.29778  0.10825  Biso   1.000  O
  N39      1.0000 0.64423  0.29166  0.39048  Biso   1.000  N
  N40      1.0000 0.49736  0.25521  0.38222  Biso   1.000  N
  C514     1.0000 0.29200  0.20645  0.25703  Biso   1.000  C
  H305     1.0000 0.26457  0.18703  0.25643  Biso   1.000  H
  C515     1.0000 0.62716  0.31498  0.39040  Biso   1.000  C
  C516     1.0000 0.58191  0.29430  0.38855  Biso   1.000  C
  C517     1.0000 0.27958  0.24360  0.19451  Biso   1.000  C
  C518     1.0000 0.31728  0.20300  0.28871  Biso   1.000  C
  H306     1.0000 0.30647  0.18173  0.30933  Biso   1.000  H
  C519     1.0000 0.26004  0.06923  0.34088  Biso   1.000  C
  C520     1.0000 0.22659  0.25474  0.13751  Biso   1.000  C
  C521     1.0000 0.35862  0.23125  0.28954  Biso   1.000  C
  C522     1.0000 0.19740  0.26207  0.10943  Biso   1.000  C
  C523     1.0000 0.56176  0.31591  0.38550  Biso   1.000  C
  H307     1.0000 0.57627  0.34413  0.38533  Biso   1.000  H
  C524     1.0000 0.38596  0.22872  0.32434  Biso   1.000  C
  C525     1.0000 0.55824  0.25196  0.38845  Biso   1.000  C
  H308     1.0000 0.57047  0.23603  0.39053  Biso   1.000  H
  C526     1.0000 0.30730  0.23858  0.22611  Biso   1.000  C
  C527     1.0000 0.21683  0.21611  0.15170  Biso   1.000  C
  H309     1.0000 0.19267  0.19363  0.14233  Biso   1.000  H
  C528     1.0000 0.26783  0.09966  0.37765  Biso   1.000  C
  C529     1.0000 0.51674  0.23412  0.38524  Biso   1.000  C
  H310     1.0000 0.50137  0.20593  0.38513  Biso   1.000  H
  C530     1.0000 0.26269  0.28766  0.15168  Biso   1.000  C
  H311     1.0000 0.26947  0.31373  0.14253  Biso   1.000  H
  C531     1.0000 0.37437  0.26247  0.25800  Biso   1.000  C
  H312     1.0000 0.40207  0.28123  0.25773  Biso   1.000  H
  C532     1.0000 0.27163  0.05376  0.26594  Biso   1.000  C
  H313     1.0000 0.28637  0.06223  0.23923  Biso   1.000  H
  C533     1.0000 0.28897  0.28222  0.17940  Biso   1.000  C
  H314     1.0000 0.31337  0.30473  0.18813  Biso   1.000  H
  C534     1.0000 0.34882  0.26576  0.22690  Biso   1.000  C
  H315     1.0000 0.35987  0.28683  0.20593  Biso   1.000  H
  C535     1.0000 0.24298  0.21090  0.17975  Biso   1.000  C
  H316     1.0000 0.23597  0.18483  0.18903  Biso   1.000  H
  C536     1.0000 0.52004  0.29545  0.38270  Biso   1.000  C
  H317     1.0000 0.50697  0.31063  0.38103  Biso   1.000  H
  C537     1.0000 0.28124  0.08128  0.30186  Biso   1.000  C
  H318     1.0000 0.30227  0.10793  0.29873  Biso   1.000  H
  C538     1.0000 0.22077  0.00198  0.31101  Biso   1.000  C
  H319     1.0000 0.20107  0.97493  0.31513  Biso   1.000  H
  C539     1.0000 0.24047  0.01433  0.27023  Biso   1.000  C
  C540     1.0000 0.22992  0.02933  0.34588  Biso   1.000  C
  H320     1.0000 0.21567  0.02073  0.37293  Biso   1.000  H
  Co30     1.0000 0.10005  0.55925  0.71411  Biso   1.000  Co
  O121     1.0000 0.09048  0.58519  0.65502  Biso   1.000  O
  O122     1.0000 0.03763  0.53627  0.68952  Biso   1.000  O
  O123     1.0000 0.83562  0.56553  0.42194  Biso   1.000  O
  O124     1.0000 0.90443  0.42665  0.73447  Biso   1.000  O
  O125     1.0000 0.96966  0.46208  0.71568  Biso   1.000  O
  O126     1.0000 0.87134  0.63112  0.44159  Biso   1.000  O
  N41      1.0000 0.31089  0.62500  0.72382  Biso   1.000  N
  N42      1.0000 0.16402  0.58855  0.71556  Biso   1.000  N
  C541     1.0000 0.95866  0.53979  0.59037  Biso   1.000  C
  H321     1.0000 0.93123  0.52037  0.58977  Biso   1.000  H
  C542     1.0000 0.29382  0.64832  0.72374  Biso   1.000  C
  C543     1.0000 0.24857  0.62764  0.72189  Biso   1.000  C
  C544     1.0000 0.94624  0.57694  0.52785  Biso   1.000  C
  C545     1.0000 0.98394  0.53634  0.62205  Biso   1.000  C
  H322     1.0000 0.97313  0.51507  0.64267  Biso   1.000  H
  C546     1.0000 0.92670  0.40257  0.67422  Biso   1.000  C
  C547     1.0000 0.89325  0.58808  0.47085  Biso   1.000  C
  C548     1.0000 0.02528  0.56459  0.62288  Biso   1.000  C
  C549     1.0000 0.86406  0.59541  0.44277  Biso   1.000  C
  C550     1.0000 0.22842  0.64925  0.71884  Biso   1.000  C
  H323     1.0000 0.24293  0.67747  0.71867  Biso   1.000  H
  C551     1.0000 0.05262  0.56206  0.65768  Biso   1.000  C
  C552     1.0000 0.22490  0.58530  0.72179  Biso   1.000  C
  H324     1.0000 0.23713  0.56937  0.72387  Biso   1.000  H
  C553     1.0000 0.97396  0.57192  0.55945  Biso   1.000  C
  C554     1.0000 0.88349  0.54945  0.48504  Biso   1.000  C
  H325     1.0000 0.85933  0.52697  0.47567  Biso   1.000  H
  C555     1.0000 0.93449  0.43300  0.71099  Biso   1.000  C
  C556     1.0000 0.18340  0.56746  0.71858  Biso   1.000  C
  H326     1.0000 0.16803  0.53927  0.71847  Biso   1.000  H
  C557     1.0000 0.92935  0.62100  0.48502  Biso   1.000  C
  H327     1.0000 0.93613  0.64707  0.47587  Biso   1.000  H
  C558     1.0000 0.04103  0.59581  0.59134  Biso   1.000  C
  H328     1.0000 0.06873  0.61457  0.59107  Biso   1.000  H
  C559     1.0000 0.93829  0.38710  0.59928  Biso   1.000  C
  H329     1.0000 0.95303  0.39557  0.57257  Biso   1.000  H
  C560     1.0000 0.95563  0.61556  0.51274  Biso   1.000  C
  H330     1.0000 0.98003  0.63807  0.52147  Biso   1.000  H
  C561     1.0000 0.01548  0.59910  0.56024  Biso   1.000  C
  H331     1.0000 0.02653  0.62017  0.53927  Biso   1.000  H
  C562     1.0000 0.90964  0.54424  0.51309  Biso   1.000  C
  H332     1.0000 0.90263  0.51817  0.52237  Biso   1.000  H
  C563     1.0000 0.18670  0.62879  0.71604  Biso   1.000  C
  H333     1.0000 0.17363  0.64397  0.71437  Biso   1.000  H
  C564     1.0000 0.94790  0.41462  0.63520  Biso   1.000  C
  H334     1.0000 0.96893  0.44127  0.63207  Biso   1.000  H
  C565     1.0000 0.88743  0.33532  0.64435  Biso   1.000  C
  H335     1.0000 0.86773  0.30827  0.64847  Biso   1.000  H
  C566     1.0000 0.90713  0.34767  0.60357  Biso   1.000  C
  C567     1.0000 0.89658  0.36267  0.67922  Biso   1.000  C
  H336     1.0000 0.88233  0.35407  0.70627  Biso   1.000  H
  Co31     1.0000 0.10742  0.87413  0.04745  Biso   1.000  Co
  O127     1.0000 0.08148  0.83863  0.98835  Biso   1.000  O
  O128     1.0000 0.13040  0.83470  0.02285  Biso   1.000  O
  O129     1.0000 0.10114  0.60343  0.75527  Biso   1.000  O
  O130     1.0000 0.24002  0.81112  0.06780  Biso   1.000  O
  O131     1.0000 0.20459  0.84092  0.04901  Biso   1.000  O
  O132     1.0000 0.03555  0.57356  0.77492  Biso   1.000  O
  N43      1.0000 0.04167  0.01923  0.05715  Biso   1.000  N
  N44      1.0000 0.07812  0.90881  0.04889  Biso   1.000  N
  C568     1.0000 0.12688  0.75221  0.92370  Biso   1.000  C
  H337     1.0000 0.14630  0.74420  0.92310  Biso   1.000  H
  C569     1.0000 0.01835  0.97884  0.05707  Biso   1.000  C
  C570     1.0000 0.03903  0.95427  0.05522  Biso   1.000  C
  C571     1.0000 0.08973  0.70264  0.86118  Biso   1.000  C
  C572     1.0000 0.13033  0.78094  0.95538  Biso   1.000  C
  H338     1.0000 0.15160  0.79140  0.97600  Biso   1.000  H
  C573     1.0000 0.26410  0.85747  0.00755  Biso   1.000  C
  C574     1.0000 0.07859  0.63851  0.80418  Biso   1.000  C
  C575     1.0000 0.10208  0.79403  0.95621  Biso   1.000  C
  C576     1.0000 0.07126  0.60199  0.77610  Biso   1.000  C
  C577     1.0000 0.01742  0.91251  0.05217  Biso   1.000  C
  H339     1.0000 0.98920  0.89880  0.05200  Biso   1.000  H
  C578     1.0000 0.10461  0.82390  0.99101  Biso   1.000  C
  C579     1.0000 0.08137  0.97294  0.05512  Biso   1.000  C
  H340     1.0000 0.09730  0.00110  0.05720  Biso   1.000  H
  C580     1.0000 0.09475  0.73538  0.89278  Biso   1.000  C
  C581     1.0000 0.11722  0.66738  0.81837  Biso   1.000  C
  H341     1.0000 0.13970  0.66570  0.80900  Biso   1.000  H
  C582     1.0000 0.23367  0.83483  0.04432  Biso   1.000  C
  C583     1.0000 0.09921  0.94928  0.05191  Biso   1.000  C
  H342     1.0000 0.12740  0.96210  0.05180  Biso   1.000  H
  C584     1.0000 0.04567  0.64169  0.81835  Biso   1.000  C
  H343     1.0000 0.01960  0.62240  0.80920  Biso   1.000  H
  C585     1.0000 0.07086  0.77856  0.92467  Biso   1.000  C
  H344     1.0000 0.05210  0.78750  0.92440  Biso   1.000  H
  C586     1.0000 0.27957  0.88453  0.93261  Biso   1.000  C
  H345     1.0000 0.27110  0.89080  0.90590  Biso   1.000  H
  C587     1.0000 0.05111  0.67341  0.84607  Biso   1.000  C
  H346     1.0000 0.02860  0.67530  0.85480  Biso   1.000  H
  C588     1.0000 0.06757  0.74972  0.89357  Biso   1.000  C
  H347     1.0000 0.04650  0.73970  0.87260  Biso   1.000  H
  C589     1.0000 0.12243  0.69874  0.84642  Biso   1.000  C
  H348     1.0000 0.14850  0.71780  0.85570  Biso   1.000  H
  C590     1.0000 0.03788  0.89125  0.04937  Biso   1.000  C
  H349     1.0000 0.02270  0.86300  0.04770  Biso   1.000  H
  C591     1.0000 0.25205  0.86662  0.96853  Biso   1.000  C
  H350     1.0000 0.22540  0.86100  0.96540  Biso   1.000  H
  C592     1.0000 0.33135  0.88545  0.97768  Biso   1.000  C
  H351     1.0000 0.35840  0.89280  0.98180  Biso   1.000  H
  C593     1.0000 0.31900  0.89280  0.93690  Biso   1.000  C
  C594     1.0000 0.30400  0.86725  0.01255  Biso   1.000  C
  H352     1.0000 0.31260  0.86160  0.03960  Biso   1.000  H
  Co32     1.0000 0.77408  0.20746  0.38078  Biso   1.000  Co
  O133     1.0000 0.74815  0.17196  0.32168  Biso   1.000  O
  O134     1.0000 0.79707  0.16803  0.35618  Biso   1.000  O
  O135     1.0000 0.76781  0.93676  0.08860  Biso   1.000  O
  O136     1.0000 0.90669  0.14445  0.40113  Biso   1.000  O
  O137     1.0000 0.87126  0.17425  0.38234  Biso   1.000  O
  O138     1.0000 0.70222  0.90689  0.10825  Biso   1.000  O
  N45      1.0000 0.70834  0.35256  0.39048  Biso   1.000  N
  N46      1.0000 0.74479  0.24214  0.38222  Biso   1.000  N
  C595     1.0000 0.79355  0.08554  0.25703  Biso   1.000  C
  H353     1.0000 0.81297  0.07753  0.25643  Biso   1.000  H
  C596     1.0000 0.68502  0.31217  0.39040  Biso   1.000  C
  C597     1.0000 0.70570  0.28760  0.38855  Biso   1.000  C
  C598     1.0000 0.75640  0.03597  0.19451  Biso   1.000  C
  C599     1.0000 0.79700  0.11427  0.28871  Biso   1.000  C
  H354     1.0000 0.81827  0.12473  0.30933  Biso   1.000  H
  C600     1.0000 0.93077  0.19080  0.34088  Biso   1.000  C
  C601     1.0000 0.74526  0.97184  0.13751  Biso   1.000  C
  C602     1.0000 0.76875  0.12736  0.28954  Biso   1.000  C
  C603     1.0000 0.73793  0.93532  0.10943  Biso   1.000  C
  C604     1.0000 0.68409  0.24584  0.38550  Biso   1.000  C
  H355     1.0000 0.65587  0.23213  0.38533  Biso   1.000  H
  C605     1.0000 0.77128  0.15723  0.32434  Biso   1.000  C
  C606     1.0000 0.74804  0.30627  0.38845  Biso   1.000  C
  H356     1.0000 0.76397  0.33443  0.39053  Biso   1.000  H
  C607     1.0000 0.76142  0.06871  0.22611  Biso   1.000  C
  C608     1.0000 0.78389  0.00071  0.15170  Biso   1.000  C
  H357     1.0000 0.80637  0.99903  0.14233  Biso   1.000  H
  C609     1.0000 0.90034  0.16816  0.37765  Biso   1.000  C
  C610     1.0000 0.76588  0.28261  0.38524  Biso   1.000  C
  H358     1.0000 0.79407  0.29543  0.38513  Biso   1.000  H
  C611     1.0000 0.71234  0.97502  0.15168  Biso   1.000  C
  H359     1.0000 0.68627  0.95573  0.14253  Biso   1.000  H
  C612     1.0000 0.73753  0.11189  0.25800  Biso   1.000  C
  H360     1.0000 0.71877  0.12083  0.25773  Biso   1.000  H
  C613     1.0000 0.94624  0.21786  0.26594  Biso   1.000  C
  H361     1.0000 0.93777  0.22413  0.23923  Biso   1.000  H
  C614     1.0000 0.71778  0.00674  0.17940  Biso   1.000  C
  H362     1.0000 0.69527  0.00863  0.18813  Biso   1.000  H
  C615     1.0000 0.73424  0.08305  0.22690  Biso   1.000  C
  H363     1.0000 0.71317  0.07303  0.20593  Biso   1.000  H
  C616     1.0000 0.78910  0.03207  0.17975  Biso   1.000  C
  H364     1.0000 0.81517  0.05113  0.18903  Biso   1.000  H
  C617     1.0000 0.70455  0.22458  0.38270  Biso   1.000  C
  H365     1.0000 0.68937  0.19633  0.38103  Biso   1.000  H
  C618     1.0000 0.91872  0.19995  0.30186  Biso   1.000  C
  H366     1.0000 0.89207  0.19433  0.29873  Biso   1.000  H
  C619     1.0000 0.99802  0.21878  0.31101  Biso   1.000  C
  H367     1.0000 0.02507  0.22613  0.31513  Biso   1.000  H
  C620     1.0000 0.98567  0.22613  0.27023  Biso   1.000  C
  C621     1.0000 0.97067  0.20058  0.34588  Biso   1.000  C
  H368     1.0000 0.97927  0.19493  0.37293  Biso   1.000  H
  Co33     1.0000 0.44075  0.54080  0.71411  Biso   1.000  Co
  O139     1.0000 0.41481  0.50530  0.65502  Biso   1.000  O
  O140     1.0000 0.46373  0.50137  0.68952  Biso   1.000  O
  O141     1.0000 0.43447  0.27010  0.42194  Biso   1.000  O
  O142     1.0000 0.57335  0.47779  0.73447  Biso   1.000  O
  O143     1.0000 0.53792  0.50759  0.71568  Biso   1.000  O
  O144     1.0000 0.36888  0.24023  0.44159  Biso   1.000  O
  N47      1.0000 0.37500  0.68590  0.72382  Biso   1.000  N
  N48      1.0000 0.41145  0.57548  0.71556  Biso   1.000  N
  C622     1.0000 0.46021  0.41888  0.59037  Biso   1.000  C
  H369     1.0000 0.47963  0.41087  0.58977  Biso   1.000  H
  C623     1.0000 0.35168  0.64551  0.72374  Biso   1.000  C
  C624     1.0000 0.37236  0.62094  0.72189  Biso   1.000  C
  C625     1.0000 0.42306  0.36931  0.52785  Biso   1.000  C
  C626     1.0000 0.46366  0.44761  0.62205  Biso   1.000  C
  H370     1.0000 0.48493  0.45807  0.64267  Biso   1.000  H
  C627     1.0000 0.59743  0.52414  0.67422  Biso   1.000  C
  C628     1.0000 0.41192  0.30518  0.47085  Biso   1.000  C
  C629     1.0000 0.43541  0.46070  0.62288  Biso   1.000  C
  C630     1.0000 0.40459  0.26866  0.44277  Biso   1.000  C
  C631     1.0000 0.35075  0.57918  0.71884  Biso   1.000  C
  H371     1.0000 0.32253  0.56547  0.71867  Biso   1.000  H
  C632     1.0000 0.43794  0.49057  0.65768  Biso   1.000  C
  C633     1.0000 0.41470  0.63961  0.72179  Biso   1.000  C
  H372     1.0000 0.43063  0.66777  0.72387  Biso   1.000  H
  C634     1.0000 0.42808  0.40205  0.55945  Biso   1.000  C
  C635     1.0000 0.45055  0.33405  0.48504  Biso   1.000  C
  H373     1.0000 0.47303  0.33237  0.47567  Biso   1.000  H
  C636     1.0000 0.56700  0.50150  0.71099  Biso   1.000  C
  C637     1.0000 0.43254  0.61595  0.71858  Biso   1.000  C
  H374     1.0000 0.46073  0.62877  0.71847  Biso   1.000  H
  C638     1.0000 0.37900  0.30836  0.48502  Biso   1.000  C
  H375     1.0000 0.35293  0.28907  0.47587  Biso   1.000  H
  C639     1.0000 0.40419  0.44523  0.59134  Biso   1.000  C
  H376     1.0000 0.38543  0.45417  0.59107  Biso   1.000  H
  C640     1.0000 0.61290  0.55120  0.59928  Biso   1.000  C
  H377     1.0000 0.60443  0.55747  0.57257  Biso   1.000  H
  C641     1.0000 0.38444  0.34008  0.51274  Biso   1.000  C
  H378     1.0000 0.36193  0.34197  0.52147  Biso   1.000  H
  C642     1.0000 0.40090  0.41639  0.56024  Biso   1.000  C
  H379     1.0000 0.37983  0.40637  0.53927  Biso   1.000  H
  C643     1.0000 0.45576  0.36541  0.51309  Biso   1.000  C
  H380     1.0000 0.48183  0.38447  0.52237  Biso   1.000  H
  C644     1.0000 0.37121  0.55792  0.71604  Biso   1.000  C
  H381     1.0000 0.35603  0.52967  0.71437  Biso   1.000  H
  C645     1.0000 0.58538  0.53329  0.63520  Biso   1.000  C
  H382     1.0000 0.55873  0.52767  0.63207  Biso   1.000  H
  C646     1.0000 0.66468  0.55212  0.64435  Biso   1.000  C
  H383     1.0000 0.69173  0.55947  0.64847  Biso   1.000  H
  C647     1.0000 0.65233  0.55947  0.60357  Biso   1.000  C
  C648     1.0000 0.63733  0.53392  0.67922  Biso   1.000  C
  H384     1.0000 0.64593  0.52827  0.70627  Biso   1.000  H
  Co34     1.0000 0.12587  0.23329  0.04745  Biso   1.000  Co
  O145     1.0000 0.16137  0.24285  0.98835  Biso   1.000  O
  O146     1.0000 0.16530  0.29570  0.02285  Biso   1.000  O
  O147     1.0000 0.39657  0.49771  0.75527  Biso   1.000  O
  O148     1.0000 0.18888  0.42890  0.06780  Biso   1.000  O
  O149     1.0000 0.15908  0.36367  0.04901  Biso   1.000  O
  O150     1.0000 0.42644  0.46199  0.77492  Biso   1.000  O
  N49      1.0000 0.98077  0.02244  0.05715  Biso   1.000  N
  N50      1.0000 0.09119  0.16931  0.04889  Biso   1.000  N
  C649     1.0000 0.24779  0.37467  0.92370  Biso   1.000  C
  H385     1.0000 0.25580  0.40210  0.92310  Biso   1.000  H
  C650     1.0000 0.02116  0.03951  0.05707  Biso   1.000  C
  C651     1.0000 0.04573  0.08476  0.05522  Biso   1.000  C
  C652     1.0000 0.29736  0.38709  0.86118  Biso   1.000  C
  C653     1.0000 0.21906  0.34939  0.95538  Biso   1.000  C
  H386     1.0000 0.20860  0.36020  0.97600  Biso   1.000  H
  C654     1.0000 0.14253  0.40663  0.00755  Biso   1.000  C
  C655     1.0000 0.36149  0.44008  0.80418  Biso   1.000  C
  C656     1.0000 0.20597  0.30805  0.95621  Biso   1.000  C
  C657     1.0000 0.39801  0.46927  0.77610  Biso   1.000  C
  C658     1.0000 0.08749  0.10491  0.05217  Biso   1.000  C
  H387     1.0000 0.10120  0.09040  0.05200  Biso   1.000  H
  C659     1.0000 0.17610  0.28071  0.99101  Biso   1.000  C
  C660     1.0000 0.02706  0.10843  0.05512  Biso   1.000  C
  H388     1.0000 0.99890  0.09620  0.05720  Biso   1.000  H
  C661     1.0000 0.26462  0.35937  0.89278  Biso   1.000  C
  C662     1.0000 0.33262  0.44984  0.81837  Biso   1.000  C
  H389     1.0000 0.33430  0.47400  0.80900  Biso   1.000  H
  C663     1.0000 0.16517  0.39884  0.04432  Biso   1.000  C
  C664     1.0000 0.05072  0.14993  0.05191  Biso   1.000  C
  H390     1.0000 0.03790  0.16530  0.05180  Biso   1.000  H
  C665     1.0000 0.35831  0.40398  0.81835  Biso   1.000  C
  H391     1.0000 0.37760  0.39720  0.80920  Biso   1.000  H
  C666     1.0000 0.22144  0.29230  0.92467  Biso   1.000  C
  H392     1.0000 0.21250  0.26460  0.92440  Biso   1.000  H
  C667     1.0000 0.11547  0.39504  0.93261  Biso   1.000  C
  H393     1.0000 0.10920  0.38030  0.90590  Biso   1.000  H
  C668     1.0000 0.32659  0.37770  0.84607  Biso   1.000  C
  H394     1.0000 0.32470  0.35330  0.85480  Biso   1.000  H
  C669     1.0000 0.25028  0.31785  0.89357  Biso   1.000  C
  H395     1.0000 0.26030  0.30680  0.87260  Biso   1.000  H
  C670     1.0000 0.30126  0.42369  0.84642  Biso   1.000  C
  H396     1.0000 0.28220  0.43070  0.85570  Biso   1.000  H
  C671     1.0000 0.10875  0.14663  0.04937  Biso   1.000  C
  H397     1.0000 0.13700  0.15970  0.04770  Biso   1.000  H
  C672     1.0000 0.13338  0.38543  0.96853  Biso   1.000  C
  H398     1.0000 0.13900  0.36440  0.96540  Biso   1.000  H
  C673     1.0000 0.11455  0.44590  0.97768  Biso   1.000  C
  H399     1.0000 0.10720  0.46560  0.98180  Biso   1.000  H
  C674     1.0000 0.10720  0.42620  0.93690  Biso   1.000  C
  C675     1.0000 0.13275  0.43675  0.01255  Biso   1.000  C
  H400     1.0000 0.13840  0.45100  0.03960  Biso   1.000  H
  Co35     1.0000 0.79254  0.56662  0.38078  Biso   1.000  Co
  O151     1.0000 0.82804  0.57618  0.32168  Biso   1.000  O
  O152     1.0000 0.83197  0.62903  0.35618  Biso   1.000  O
  O153     1.0000 0.06324  0.83104  0.08860  Biso   1.000  O
  O154     1.0000 0.85555  0.76223  0.40113  Biso   1.000  O
  O155     1.0000 0.82575  0.69700  0.38234  Biso   1.000  O
  O156     1.0000 0.09311  0.79532  0.10825  Biso   1.000  O
  N51      1.0000 0.64744  0.35577  0.39048  Biso   1.000  N
  N52      1.0000 0.75786  0.50264  0.38222  Biso   1.000  N
  C676     1.0000 0.91446  0.70800  0.25703  Biso   1.000  C
  H401     1.0000 0.92247  0.73543  0.25643  Biso   1.000  H
  C677     1.0000 0.68783  0.37284  0.39040  Biso   1.000  C
  C678     1.0000 0.71240  0.41809  0.38855  Biso   1.000  C
  C679     1.0000 0.96403  0.72042  0.19451  Biso   1.000  C
  C680     1.0000 0.88573  0.68272  0.28871  Biso   1.000  C
  H402     1.0000 0.87527  0.69353  0.30933  Biso   1.000  H
  C681     1.0000 0.80920  0.73996  0.34088  Biso   1.000  C
  C682     1.0000 0.02816  0.77341  0.13751  Biso   1.000  C
  C683     1.0000 0.87264  0.64138  0.28954  Biso   1.000  C
  C684     1.0000 0.06468  0.80260  0.10943  Biso   1.000  C
  C685     1.0000 0.75416  0.43824  0.38550  Biso   1.000  C
  H403     1.0000 0.76787  0.42373  0.38533  Biso   1.000  H
  C686     1.0000 0.84277  0.61404  0.32434  Biso   1.000  C
  C687     1.0000 0.69373  0.44176  0.38845  Biso   1.000  C
  H404     1.0000 0.66557  0.42953  0.39053  Biso   1.000  H
  C688     1.0000 0.93129  0.69270  0.22611  Biso   1.000  C
  C689     1.0000 0.99929  0.78317  0.15170  Biso   1.000  C
  H405     1.0000 0.00097  0.80733  0.14233  Biso   1.000  H
  C690     1.0000 0.83184  0.73217  0.37765  Biso   1.000  C
  C691     1.0000 0.71739  0.48326  0.38524  Biso   1.000  C
  H406     1.0000 0.70457  0.49863  0.38513  Biso   1.000  H
  C692     1.0000 0.02498  0.73731  0.15168  Biso   1.000  C
  H407     1.0000 0.04427  0.73053  0.14253  Biso   1.000  H
  C693     1.0000 0.88811  0.62563  0.25800  Biso   1.000  C
  H408     1.0000 0.87917  0.59793  0.25773  Biso   1.000  H
  C694     1.0000 0.78214  0.72837  0.26594  Biso   1.000  C
  H409     1.0000 0.77587  0.71363  0.23923  Biso   1.000  H
  C695     1.0000 0.99326  0.71103  0.17940  Biso   1.000  C
  H410     1.0000 0.99137  0.68663  0.18813  Biso   1.000  H
  C696     1.0000 0.91695  0.65118  0.22690  Biso   1.000  C
  H411     1.0000 0.92697  0.64013  0.20593  Biso   1.000  H
  C697     1.0000 0.96793  0.75702  0.17975  Biso   1.000  C
  H412     1.0000 0.94887  0.76403  0.18903  Biso   1.000  H
  C698     1.0000 0.77542  0.47996  0.38270  Biso   1.000  C
  H413     1.0000 0.80367  0.49303  0.38103  Biso   1.000  H
  C699     1.0000 0.80005  0.71876  0.30186  Biso   1.000  C
  H414     1.0000 0.80567  0.69773  0.29873  Biso   1.000  H
  C700     1.0000 0.78122  0.77923  0.31101  Biso   1.000  C
  H415     1.0000 0.77387  0.79893  0.31513  Biso   1.000  H
  C701     1.0000 0.77387  0.75953  0.27023  Biso   1.000  C
  C702     1.0000 0.79942  0.77008  0.34588  Biso   1.000  C
  H416     1.0000 0.80507  0.78433  0.37293  Biso   1.000  H
  Co36     1.0000 0.45920  0.89995  0.71411  Biso   1.000  Co
  O157     1.0000 0.49470  0.90952  0.65502  Biso   1.000  O
  O158     1.0000 0.49863  0.96237  0.68952  Biso   1.000  O
  O159     1.0000 0.72990  0.16438  0.42194  Biso   1.000  O
  O160     1.0000 0.52221  0.09557  0.73447  Biso   1.000  O
  O161     1.0000 0.49241  0.03034  0.71568  Biso   1.000  O
  O162     1.0000 0.75977  0.12866  0.44159  Biso   1.000  O
  N53      1.0000 0.31410  0.68911  0.72382  Biso   1.000  N
  N54      1.0000 0.42452  0.83598  0.71556  Biso   1.000  N
  C703     1.0000 0.58112  0.04134  0.59037  Biso   1.000  C
  H417     1.0000 0.58913  0.06877  0.58977  Biso   1.000  H
  C704     1.0000 0.35449  0.70618  0.72374  Biso   1.000  C
  C705     1.0000 0.37906  0.75143  0.72189  Biso   1.000  C
  C706     1.0000 0.63069  0.05376  0.52785  Biso   1.000  C
  C707     1.0000 0.55239  0.01606  0.62205  Biso   1.000  C
  H418     1.0000 0.54193  0.02687  0.64267  Biso   1.000  H
  C708     1.0000 0.47586  0.07330  0.67422  Biso   1.000  C
  C709     1.0000 0.69482  0.10675  0.47085  Biso   1.000  C
  C710     1.0000 0.53930  0.97472  0.62288  Biso   1.000  C
  C711     1.0000 0.73134  0.13594  0.44277  Biso   1.000  C
  C712     1.0000 0.42082  0.77158  0.71884  Biso   1.000  C
  H419     1.0000 0.43453  0.75707  0.71867  Biso   1.000  H
  C713     1.0000 0.50943  0.94738  0.65768  Biso   1.000  C
  C714     1.0000 0.36039  0.77510  0.72179  Biso   1.000  C
  H420     1.0000 0.33223  0.76287  0.72387  Biso   1.000  H
  C715     1.0000 0.59795  0.02604  0.55945  Biso   1.000  C
  C716     1.0000 0.66595  0.11651  0.48504  Biso   1.000  C
  H421     1.0000 0.66763  0.14067  0.47567  Biso   1.000  H
  C717     1.0000 0.49850  0.06551  0.71099  Biso   1.000  C
  C718     1.0000 0.38405  0.81660  0.71858  Biso   1.000  C
  H422     1.0000 0.37123  0.83197  0.71847  Biso   1.000  H
  C719     1.0000 0.69164  0.07065  0.48502  Biso   1.000  C
  H423     1.0000 0.71093  0.06387  0.47587  Biso   1.000  H
  C720     1.0000 0.55477  0.95897  0.59134  Biso   1.000  C
  H424     1.0000 0.54583  0.93127  0.59107  Biso   1.000  H
  C721     1.0000 0.44880  0.06171  0.59928  Biso   1.000  C
  H425     1.0000 0.44253  0.04697  0.57257  Biso   1.000  H
  C722     1.0000 0.65992  0.04437  0.51274  Biso   1.000  C
  H426     1.0000 0.65803  0.01997  0.52147  Biso   1.000  H
  C723     1.0000 0.58361  0.98452  0.56024  Biso   1.000  C
  H427     1.0000 0.59363  0.97347  0.53927  Biso   1.000  H
  C724     1.0000 0.63459  0.09036  0.51309  Biso   1.000  C
  H428     1.0000 0.61553  0.09737  0.52237  Biso   1.000  H
  C725     1.0000 0.44208  0.81330  0.71604  Biso   1.000  C
  H429     1.0000 0.47033  0.82637  0.71437  Biso   1.000  H
  C726     1.0000 0.46671  0.05210  0.63520  Biso   1.000  C
  H430     1.0000 0.47233  0.03107  0.63207  Biso   1.000  H
  C727     1.0000 0.44788  0.11257  0.64435  Biso   1.000  C
  H431     1.0000 0.44053  0.13227  0.64847  Biso   1.000  H
  C728     1.0000 0.44053  0.09287  0.60357  Biso   1.000  C
  C729     1.0000 0.46608  0.10342  0.67922  Biso   1.000  C
  H432     1.0000 0.47173  0.11767  0.70627  Biso   1.000  H
  Co37     1.0000 0.89258  0.76671  0.45255  Biso   1.000  Co
  O163     1.0000 0.91852  0.75715  0.51165  Biso   1.000  O
  O164     1.0000 0.86960  0.70430  0.47715  Biso   1.000  O
  O165     1.0000 0.89886  0.50229  0.74473  Biso   1.000  O
  O166     1.0000 0.75998  0.57110  0.43220  Biso   1.000  O
  O167     1.0000 0.79541  0.63633  0.45099  Biso   1.000  O
  O168     1.0000 0.96445  0.53801  0.72508  Biso   1.000  O
  N55      1.0000 0.95833  0.97756  0.44285  Biso   1.000  N
  N56      1.0000 0.92188  0.83069  0.45111  Biso   1.000  N
  C730     1.0000 0.87312  0.62533  0.57630  Biso   1.000  C
  H433     1.0000 0.85370  0.59790  0.57690  Biso   1.000  H
  C731     1.0000 0.98165  0.96049  0.44293  Biso   1.000  C
  C732     1.0000 0.96097  0.91524  0.44478  Biso   1.000  C
  C733     1.0000 0.91027  0.61291  0.63882  Biso   1.000  C
  C734     1.0000 0.86967  0.65061  0.54462  Biso   1.000  C
  H434     1.0000 0.84840  0.63980  0.52400  Biso   1.000  H
  C735     1.0000 0.73590  0.59337  0.49245  Biso   1.000  C
  C736     1.0000 0.92141  0.55992  0.69582  Biso   1.000  C
  C737     1.0000 0.89792  0.69195  0.54379  Biso   1.000  C
  C738     1.0000 0.92874  0.53073  0.72390  Biso   1.000  C
  C739     1.0000 0.98258  0.89509  0.44783  Biso   1.000  C
  H435     1.0000 0.01080  0.90960  0.44800  Biso   1.000  H
  C740     1.0000 0.89539  0.71929  0.50899  Biso   1.000  C
  C741     1.0000 0.91863  0.89157  0.44488  Biso   1.000  C
  H436     1.0000 0.90270  0.90380  0.44280  Biso   1.000  H
  C742     1.0000 0.90525  0.64063  0.60722  Biso   1.000  C
  C743     1.0000 0.88278  0.55016  0.68163  Biso   1.000  C
  H437     1.0000 0.86030  0.52600  0.69100  Biso   1.000  H
  C744     1.0000 0.76633  0.60116  0.45568  Biso   1.000  C
  C745     1.0000 0.90079  0.85007  0.44809  Biso   1.000  C
  H438     1.0000 0.87260  0.83470  0.44820  Biso   1.000  H
  C746     1.0000 0.95433  0.59602  0.68165  Biso   1.000  C
  H439     1.0000 0.98040  0.60280  0.69080  Biso   1.000  H
  C747     1.0000 0.92914  0.70770  0.57533  Biso   1.000  C
  H440     1.0000 0.94790  0.73540  0.57560  Biso   1.000  H
  C748     1.0000 0.72043  0.60496  0.56739  Biso   1.000  C
  H441     1.0000 0.72890  0.61970  0.59410  Biso   1.000  H
  C749     1.0000 0.94889  0.62230  0.65393  Biso   1.000  C
  H442     1.0000 0.97140  0.64670  0.64520  Biso   1.000  H
  C750     1.0000 0.93243  0.68215  0.60643  Biso   1.000  C
  H443     1.0000 0.95350  0.69320  0.62740  Biso   1.000  H
  C751     1.0000 0.87757  0.57631  0.65358  Biso   1.000  C
  H444     1.0000 0.85150  0.56930  0.64430  Biso   1.000  H
  C752     1.0000 0.96212  0.85337  0.45063  Biso   1.000  C
  H445     1.0000 0.97730  0.84030  0.45230  Biso   1.000  H
  C753     1.0000 0.74795  0.61457  0.53147  Biso   1.000  C
  H446     1.0000 0.77460  0.63560  0.53460  Biso   1.000  H
  C754     1.0000 0.66865  0.55410  0.52232  Biso   1.000  C
  H447     1.0000 0.64160  0.53440  0.51820  Biso   1.000  H
  C755     1.0000 0.68100  0.57380  0.56310  Biso   1.000  C
  C756     1.0000 0.69600  0.56325  0.48745  Biso   1.000  C
  H448     1.0000 0.68740  0.54900  0.46040  Biso   1.000  H
  Co38     1.0000 0.55925  0.10005  0.78589  Biso   1.000  Co
  O169     1.0000 0.58519  0.09048  0.84498  Biso   1.000  O
  O170     1.0000 0.53627  0.03763  0.81048  Biso   1.000  O
  O171     1.0000 0.56553  0.83562  0.07806  Biso   1.000  O
  O172     1.0000 0.42665  0.90443  0.76553  Biso   1.000  O
  O173     1.0000 0.46208  0.96966  0.78432  Biso   1.000  O
  O174     1.0000 0.63112  0.87134  0.05841  Biso   1.000  O
  N57      1.0000 0.62500  0.31089  0.77618  Biso   1.000  N
  N58      1.0000 0.58855  0.16402  0.78444  Biso   1.000  N
  C757     1.0000 0.53979  0.95866  0.90963  Biso   1.000  C
  H449     1.0000 0.52037  0.93123  0.91023  Biso   1.000  H
  C758     1.0000 0.64832  0.29382  0.77626  Biso   1.000  C
  C759     1.0000 0.62764  0.24857  0.77811  Biso   1.000  C
  C760     1.0000 0.57694  0.94624  0.97215  Biso   1.000  C
  C761     1.0000 0.53634  0.98394  0.87795  Biso   1.000  C
  H450     1.0000 0.51507  0.97313  0.85733  Biso   1.000  H
  C762     1.0000 0.40257  0.92670  0.82578  Biso   1.000  C
  C763     1.0000 0.58808  0.89325  0.02915  Biso   1.000  C
  C764     1.0000 0.56459  0.02528  0.87712  Biso   1.000  C
  C765     1.0000 0.59541  0.86406  0.05723  Biso   1.000  C
  C766     1.0000 0.64925  0.22842  0.78116  Biso   1.000  C
  H451     1.0000 0.67747  0.24293  0.78133  Biso   1.000  H
  C767     1.0000 0.56206  0.05262  0.84232  Biso   1.000  C
  C768     1.0000 0.58530  0.22490  0.77821  Biso   1.000  C
  H452     1.0000 0.56937  0.23713  0.77613  Biso   1.000  H
  C769     1.0000 0.57192  0.97396  0.94055  Biso   1.000  C
  C770     1.0000 0.54945  0.88349  0.01496  Biso   1.000  C
  H453     1.0000 0.52697  0.85933  0.02433  Biso   1.000  H
  C771     1.0000 0.43300  0.93449  0.78901  Biso   1.000  C
  C772     1.0000 0.56746  0.18340  0.78142  Biso   1.000  C
  H454     1.0000 0.53927  0.16803  0.78153  Biso   1.000  H
  C773     1.0000 0.62100  0.92935  0.01498  Biso   1.000  C
  H455     1.0000 0.64707  0.93613  0.02413  Biso   1.000  H
  C774     1.0000 0.59581  0.04103  0.90866  Biso   1.000  C
  H456     1.0000 0.61457  0.06873  0.90893  Biso   1.000  H
  C775     1.0000 0.38710  0.93829  0.90072  Biso   1.000  C
  H457     1.0000 0.39557  0.95303  0.92743  Biso   1.000  H
  C776     1.0000 0.61556  0.95563  0.98726  Biso   1.000  C
  H458     1.0000 0.63807  0.98003  0.97853  Biso   1.000  H
  C777     1.0000 0.59910  0.01548  0.93976  Biso   1.000  C
  H459     1.0000 0.62017  0.02653  0.96073  Biso   1.000  H
  C778     1.0000 0.54424  0.90964  0.98691  Biso   1.000  C
  H460     1.0000 0.51817  0.90263  0.97763  Biso   1.000  H
  C779     1.0000 0.62879  0.18670  0.78396  Biso   1.000  C
  H461     1.0000 0.64397  0.17363  0.78563  Biso   1.000  H
  C780     1.0000 0.41462  0.94790  0.86480  Biso   1.000  C
  H462     1.0000 0.44127  0.96893  0.86793  Biso   1.000  H
  C781     1.0000 0.33532  0.88743  0.85565  Biso   1.000  C
  H463     1.0000 0.30827  0.86773  0.85153  Biso   1.000  H
  C782     1.0000 0.34767  0.90713  0.89643  Biso   1.000  C
  C783     1.0000 0.36267  0.89658  0.82078  Biso   1.000  C
  H464     1.0000 0.35407  0.88233  0.79373  Biso   1.000  H
  Co39     1.0000 0.22592  0.43338  0.11922  Biso   1.000  Co
  O175     1.0000 0.25185  0.42382  0.17832  Biso   1.000  O
  O176     1.0000 0.20293  0.37097  0.14382  Biso   1.000  O
  O177     1.0000 0.23219  0.16896  0.41140  Biso   1.000  O
  O178     1.0000 0.09331  0.23777  0.09887  Biso   1.000  O
  O179     1.0000 0.12874  0.30300  0.11766  Biso   1.000  O
  O180     1.0000 0.29778  0.20468  0.39175  Biso   1.000  O
  N59      1.0000 0.29166  0.64423  0.10952  Biso   1.000  N
  N60      1.0000 0.25521  0.49736  0.11778  Biso   1.000  N
  C784     1.0000 0.20645  0.29200  0.24297  Biso   1.000  C
  H465     1.0000 0.18703  0.26457  0.24357  Biso   1.000  H
  C785     1.0000 0.31498  0.62716  0.10960  Biso   1.000  C
  C786     1.0000 0.29430  0.58191  0.11145  Biso   1.000  C
  C787     1.0000 0.24360  0.27958  0.30549  Biso   1.000  C
  C788     1.0000 0.20300  0.31728  0.21129  Biso   1.000  C
  H466     1.0000 0.18173  0.30647  0.19067  Biso   1.000  H
  C789     1.0000 0.06923  0.26004  0.15912  Biso   1.000  C
  C790     1.0000 0.25474  0.22659  0.36249  Biso   1.000  C
  C791     1.0000 0.23125  0.35862  0.21046  Biso   1.000  C
  C792     1.0000 0.26207  0.19740  0.39057  Biso   1.000  C
  C793     1.0000 0.31591  0.56176  0.11450  Biso   1.000  C
  H467     1.0000 0.34413  0.57627  0.11467  Biso   1.000  H
  C794     1.0000 0.22872  0.38596  0.17566  Biso   1.000  C
  C795     1.0000 0.25196  0.55824  0.11155  Biso   1.000  C
  H468     1.0000 0.23603  0.57047  0.10947  Biso   1.000  H
  C796     1.0000 0.23858  0.30730  0.27389  Biso   1.000  C
  C797     1.0000 0.21611  0.21683  0.34830  Biso   1.000  C
  H469     1.0000 0.19363  0.19267  0.35767  Biso   1.000  H
  C798     1.0000 0.09966  0.26783  0.12235  Biso   1.000  C
  C799     1.0000 0.23412  0.51674  0.11476  Biso   1.000  C
  H470     1.0000 0.20593  0.50137  0.11487  Biso   1.000  H
  C800     1.0000 0.28766  0.26269  0.34832  Biso   1.000  C
  H471     1.0000 0.31373  0.26947  0.35747  Biso   1.000  H
  C801     1.0000 0.26247  0.37437  0.24200  Biso   1.000  C
  H472     1.0000 0.28123  0.40207  0.24227  Biso   1.000  H
  C802     1.0000 0.05376  0.27163  0.23406  Biso   1.000  C
  H473     1.0000 0.06223  0.28637  0.26077  Biso   1.000  H
  C803     1.0000 0.28222  0.28897  0.32060  Biso   1.000  C
  H474     1.0000 0.30473  0.31337  0.31187  Biso   1.000  H
  C804     1.0000 0.26576  0.34882  0.27310  Biso   1.000  C
  H475     1.0000 0.28683  0.35987  0.29407  Biso   1.000  H
  C805     1.0000 0.21090  0.24298  0.32025  Biso   1.000  C
  H476     1.0000 0.18483  0.23597  0.31097  Biso   1.000  H
  C806     1.0000 0.29545  0.52004  0.11730  Biso   1.000  C
  H477     1.0000 0.31063  0.50697  0.11897  Biso   1.000  H
  C807     1.0000 0.08128  0.28124  0.19814  Biso   1.000  C
  H478     1.0000 0.10793  0.30227  0.20127  Biso   1.000  H
  C808     1.0000 0.00198  0.22077  0.18899  Biso   1.000  C
  H479     1.0000 0.97493  0.20107  0.18487  Biso   1.000  H
  C809     1.0000 0.01433  0.24047  0.22977  Biso   1.000  C
  C810     1.0000 0.02933  0.22992  0.15412  Biso   1.000  C
  H480     1.0000 0.02073  0.21567  0.12707  Biso   1.000  H
  Co40     1.0000 0.87413  0.10742  0.45255  Biso   1.000  Co
  O181     1.0000 0.83863  0.08148  0.51165  Biso   1.000  O
  O182     1.0000 0.83470  0.13040  0.47715  Biso   1.000  O
  O183     1.0000 0.60343  0.10114  0.74473  Biso   1.000  O
  O184     1.0000 0.81112  0.24002  0.43220  Biso   1.000  O
  O185     1.0000 0.84092  0.20459  0.45099  Biso   1.000  O
  O186     1.0000 0.57356  0.03555  0.72508  Biso   1.000  O
  N61      1.0000 0.01923  0.04167  0.44285  Biso   1.000  N
  N62      1.0000 0.90881  0.07812  0.45111  Biso   1.000  N
  C811     1.0000 0.75221  0.12688  0.57630  Biso   1.000  C
  H481     1.0000 0.74420  0.14630  0.57690  Biso   1.000  H
  C812     1.0000 0.97884  0.01835  0.44293  Biso   1.000  C
  C813     1.0000 0.95427  0.03903  0.44478  Biso   1.000  C
  C814     1.0000 0.70264  0.08973  0.63882  Biso   1.000  C
  C815     1.0000 0.78094  0.13033  0.54462  Biso   1.000  C
  H482     1.0000 0.79140  0.15160  0.52400  Biso   1.000  H
  C816     1.0000 0.85747  0.26410  0.49245  Biso   1.000  C
  C817     1.0000 0.63851  0.07859  0.69582  Biso   1.000  C
  C818     1.0000 0.79403  0.10208  0.54379  Biso   1.000  C
  C819     1.0000 0.60199  0.07126  0.72390  Biso   1.000  C
  C820     1.0000 0.91251  0.01742  0.44783  Biso   1.000  C
  H483     1.0000 0.89880  0.98920  0.44800  Biso   1.000  H
  C821     1.0000 0.82390  0.10461  0.50899  Biso   1.000  C
  C822     1.0000 0.97294  0.08137  0.44488  Biso   1.000  C
  H484     1.0000 0.00110  0.09730  0.44280  Biso   1.000  H
  C823     1.0000 0.73538  0.09475  0.60722  Biso   1.000  C
  C824     1.0000 0.66738  0.11722  0.68163  Biso   1.000  C
  H485     1.0000 0.66570  0.13970  0.69100  Biso   1.000  H
  C825     1.0000 0.83483  0.23367  0.45568  Biso   1.000  C
  C826     1.0000 0.94928  0.09921  0.44809  Biso   1.000  C
  H486     1.0000 0.96210  0.12740  0.44820  Biso   1.000  H
  C827     1.0000 0.64169  0.04567  0.68165  Biso   1.000  C
  H487     1.0000 0.62240  0.01960  0.69080  Biso   1.000  H
  C828     1.0000 0.77856  0.07086  0.57533  Biso   1.000  C
  H488     1.0000 0.78750  0.05210  0.57560  Biso   1.000  H
  C829     1.0000 0.88453  0.27957  0.56739  Biso   1.000  C
  H489     1.0000 0.89080  0.27110  0.59410  Biso   1.000  H
  C830     1.0000 0.67341  0.05111  0.65393  Biso   1.000  C
  H490     1.0000 0.67530  0.02860  0.64520  Biso   1.000  H
  C831     1.0000 0.74972  0.06757  0.60643  Biso   1.000  C
  H491     1.0000 0.73970  0.04650  0.62740  Biso   1.000  H
  C832     1.0000 0.69874  0.12243  0.65358  Biso   1.000  C
  H492     1.0000 0.71780  0.14850  0.64430  Biso   1.000  H
  C833     1.0000 0.89125  0.03788  0.45063  Biso   1.000  C
  H493     1.0000 0.86300  0.02270  0.45230  Biso   1.000  H
  C834     1.0000 0.86662  0.25205  0.53147  Biso   1.000  C
  H494     1.0000 0.86100  0.22540  0.53460  Biso   1.000  H
  C835     1.0000 0.88545  0.33135  0.52232  Biso   1.000  C
  H495     1.0000 0.89280  0.35840  0.51820  Biso   1.000  H
  C836     1.0000 0.89280  0.31900  0.56310  Biso   1.000  C
  C837     1.0000 0.86725  0.30400  0.48745  Biso   1.000  C
  H496     1.0000 0.86160  0.31260  0.46040  Biso   1.000  H
  Co41     1.0000 0.54080  0.44075  0.78589  Biso   1.000  Co
  O187     1.0000 0.50530  0.41481  0.84498  Biso   1.000  O
  O188     1.0000 0.50137  0.46373  0.81048  Biso   1.000  O
  O189     1.0000 0.27010  0.43447  0.07806  Biso   1.000  O
  O190     1.0000 0.47779  0.57335  0.76553  Biso   1.000  O
  O191     1.0000 0.50759  0.53792  0.78432  Biso   1.000  O
  O192     1.0000 0.24023  0.36888  0.05841  Biso   1.000  O
  N63      1.0000 0.68590  0.37500  0.77618  Biso   1.000  N
  N64      1.0000 0.57548  0.41145  0.78444  Biso   1.000  N
  C838     1.0000 0.41888  0.46021  0.90963  Biso   1.000  C
  H497     1.0000 0.41087  0.47963  0.91023  Biso   1.000  H
  C839     1.0000 0.64551  0.35168  0.77626  Biso   1.000  C
  C840     1.0000 0.62094  0.37236  0.77811  Biso   1.000  C
  C841     1.0000 0.36931  0.42306  0.97215  Biso   1.000  C
  C842     1.0000 0.44761  0.46366  0.87795  Biso   1.000  C
  H498     1.0000 0.45807  0.48493  0.85733  Biso   1.000  H
  C843     1.0000 0.52414  0.59743  0.82578  Biso   1.000  C
  C844     1.0000 0.30518  0.41192  0.02915  Biso   1.000  C
  C845     1.0000 0.46070  0.43541  0.87712  Biso   1.000  C
  C846     1.0000 0.26866  0.40459  0.05723  Biso   1.000  C
  C847     1.0000 0.57918  0.35075  0.78116  Biso   1.000  C
  H499     1.0000 0.56547  0.32253  0.78133  Biso   1.000  H
  C848     1.0000 0.49057  0.43794  0.84232  Biso   1.000  C
  C849     1.0000 0.63961  0.41470  0.77821  Biso   1.000  C
  H500     1.0000 0.66777  0.43063  0.77613  Biso   1.000  H
  C850     1.0000 0.40205  0.42808  0.94055  Biso   1.000  C
  C851     1.0000 0.33405  0.45055  0.01496  Biso   1.000  C
  H501     1.0000 0.33237  0.47303  0.02433  Biso   1.000  H
  C852     1.0000 0.50150  0.56700  0.78901  Biso   1.000  C
  C853     1.0000 0.61595  0.43254  0.78142  Biso   1.000  C
  H502     1.0000 0.62877  0.46073  0.78153  Biso   1.000  H
  C854     1.0000 0.30836  0.37900  0.01498  Biso   1.000  C
  H503     1.0000 0.28907  0.35293  0.02413  Biso   1.000  H
  C855     1.0000 0.44523  0.40419  0.90866  Biso   1.000  C
  H504     1.0000 0.45417  0.38543  0.90893  Biso   1.000  H
  C856     1.0000 0.55120  0.61290  0.90072  Biso   1.000  C
  H505     1.0000 0.55747  0.60443  0.92743  Biso   1.000  H
  C857     1.0000 0.34008  0.38444  0.98726  Biso   1.000  C
  H506     1.0000 0.34197  0.36193  0.97853  Biso   1.000  H
  C858     1.0000 0.41639  0.40090  0.93976  Biso   1.000  C
  H507     1.0000 0.40637  0.37983  0.96073  Biso   1.000  H
  C859     1.0000 0.36541  0.45576  0.98691  Biso   1.000  C
  H508     1.0000 0.38447  0.48183  0.97763  Biso   1.000  H
  C860     1.0000 0.55792  0.37121  0.78396  Biso   1.000  C
  H509     1.0000 0.52967  0.35603  0.78563  Biso   1.000  H
  C861     1.0000 0.53329  0.58538  0.86480  Biso   1.000  C
  H510     1.0000 0.52767  0.55873  0.86793  Biso   1.000  H
  C862     1.0000 0.55212  0.66468  0.85565  Biso   1.000  C
  H511     1.0000 0.55947  0.69173  0.85153  Biso   1.000  H
  C863     1.0000 0.55947  0.65233  0.89643  Biso   1.000  C
  C864     1.0000 0.53392  0.63733  0.82078  Biso   1.000  C
  H512     1.0000 0.52827  0.64593  0.79373  Biso   1.000  H
  Co42     1.0000 0.20746  0.77408  0.11922  Biso   1.000  Co
  O193     1.0000 0.17196  0.74815  0.17832  Biso   1.000  O
  O194     1.0000 0.16803  0.79707  0.14382  Biso   1.000  O
  O195     1.0000 0.93676  0.76781  0.41140  Biso   1.000  O
  O196     1.0000 0.14445  0.90669  0.09887  Biso   1.000  O
  O197     1.0000 0.17425  0.87126  0.11766  Biso   1.000  O
  O198     1.0000 0.90689  0.70222  0.39175  Biso   1.000  O
  N65      1.0000 0.35256  0.70834  0.10952  Biso   1.000  N
  N66      1.0000 0.24214  0.74479  0.11778  Biso   1.000  N
  C865     1.0000 0.08554  0.79355  0.24297  Biso   1.000  C
  H513     1.0000 0.07753  0.81297  0.24357  Biso   1.000  H
  C866     1.0000 0.31217  0.68502  0.10960  Biso   1.000  C
  C867     1.0000 0.28760  0.70570  0.11145  Biso   1.000  C
  C868     1.0000 0.03597  0.75640  0.30549  Biso   1.000  C
  C869     1.0000 0.11427  0.79700  0.21129  Biso   1.000  C
  H514     1.0000 0.12473  0.81827  0.19067  Biso   1.000  H
  C870     1.0000 0.19080  0.93077  0.15912  Biso   1.000  C
  C871     1.0000 0.97184  0.74526  0.36249  Biso   1.000  C
  C872     1.0000 0.12736  0.76875  0.21046  Biso   1.000  C
  C873     1.0000 0.93532  0.73793  0.39057  Biso   1.000  C
  C874     1.0000 0.24584  0.68409  0.11450  Biso   1.000  C
  H515     1.0000 0.23213  0.65587  0.11467  Biso   1.000  H
  C875     1.0000 0.15723  0.77128  0.17566  Biso   1.000  C
  C876     1.0000 0.30627  0.74804  0.11155  Biso   1.000  C
  H516     1.0000 0.33443  0.76397  0.10947  Biso   1.000  H
  C877     1.0000 0.06871  0.76142  0.27389  Biso   1.000  C
  C878     1.0000 0.00071  0.78389  0.34830  Biso   1.000  C
  H517     1.0000 0.99903  0.80637  0.35767  Biso   1.000  H
  C879     1.0000 0.16816  0.90034  0.12235  Biso   1.000  C
  C880     1.0000 0.28261  0.76588  0.11476  Biso   1.000  C
  H518     1.0000 0.29543  0.79407  0.11487  Biso   1.000  H
  C881     1.0000 0.97502  0.71234  0.34832  Biso   1.000  C
  H519     1.0000 0.95573  0.68627  0.35747  Biso   1.000  H
  C882     1.0000 0.11189  0.73753  0.24200  Biso   1.000  C
  H520     1.0000 0.12083  0.71877  0.24227  Biso   1.000  H
  C883     1.0000 0.21786  0.94624  0.23406  Biso   1.000  C
  H521     1.0000 0.22413  0.93777  0.26077  Biso   1.000  H
  C884     1.0000 0.00674  0.71778  0.32060  Biso   1.000  C
  H522     1.0000 0.00863  0.69527  0.31187  Biso   1.000  H
  C885     1.0000 0.08305  0.73424  0.27310  Biso   1.000  C
  H523     1.0000 0.07303  0.71317  0.29407  Biso   1.000  H
  C886     1.0000 0.03207  0.78910  0.32025  Biso   1.000  C
  H524     1.0000 0.05113  0.81517  0.31097  Biso   1.000  H
  C887     1.0000 0.22458  0.70455  0.11730  Biso   1.000  C
  H525     1.0000 0.19633  0.68937  0.11897  Biso   1.000  H
  C888     1.0000 0.19995  0.91872  0.19814  Biso   1.000  C
  H526     1.0000 0.19433  0.89207  0.20127  Biso   1.000  H
  C889     1.0000 0.21878  0.99802  0.18899  Biso   1.000  C
  H527     1.0000 0.22613  0.02507  0.18487  Biso   1.000  H
  C890     1.0000 0.22613  0.98567  0.22977  Biso   1.000  C
  C891     1.0000 0.20058  0.97067  0.15412  Biso   1.000  C
  H528     1.0000 0.19493  0.97927  0.12707  Biso   1.000  H
  Co43     1.0000 0.23329  0.12587  0.45255  Biso   1.000  Co
  O199     1.0000 0.24285  0.16137  0.51165  Biso   1.000  O
  O200     1.0000 0.29570  0.16530  0.47715  Biso   1.000  O
  O201     1.0000 0.49771  0.39657  0.74473  Biso   1.000  O
  O202     1.0000 0.42890  0.18888  0.43220  Biso   1.000  O
  O203     1.0000 0.36367  0.15908  0.45099  Biso   1.000  O
  O204     1.0000 0.46199  0.42644  0.72508  Biso   1.000  O
  N67      1.0000 0.02244  0.98077  0.44285  Biso   1.000  N
  N68      1.0000 0.16931  0.09119  0.45111  Biso   1.000  N
  C892     1.0000 0.37467  0.24779  0.57630  Biso   1.000  C
  H529     1.0000 0.40210  0.25580  0.57690  Biso   1.000  H
  C893     1.0000 0.03951  0.02116  0.44293  Biso   1.000  C
  C894     1.0000 0.08476  0.04573  0.44478  Biso   1.000  C
  C895     1.0000 0.38709  0.29736  0.63882  Biso   1.000  C
  C896     1.0000 0.34939  0.21906  0.54462  Biso   1.000  C
  H530     1.0000 0.36020  0.20860  0.52400  Biso   1.000  H
  C897     1.0000 0.40663  0.14253  0.49245  Biso   1.000  C
  C898     1.0000 0.44008  0.36149  0.69582  Biso   1.000  C
  C899     1.0000 0.30805  0.20597  0.54379  Biso   1.000  C
  C900     1.0000 0.46927  0.39801  0.72390  Biso   1.000  C
  C901     1.0000 0.10491  0.08749  0.44783  Biso   1.000  C
  H531     1.0000 0.09040  0.10120  0.44800  Biso   1.000  H
  C902     1.0000 0.28071  0.17610  0.50899  Biso   1.000  C
  C903     1.0000 0.10843  0.02706  0.44488  Biso   1.000  C
  H532     1.0000 0.09620  0.99890  0.44280  Biso   1.000  H
  C904     1.0000 0.35937  0.26462  0.60722  Biso   1.000  C
  C905     1.0000 0.44984  0.33262  0.68163  Biso   1.000  C
  H533     1.0000 0.47400  0.33430  0.69100  Biso   1.000  H
  C906     1.0000 0.39884  0.16517  0.45568  Biso   1.000  C
  C907     1.0000 0.14993  0.05072  0.44809  Biso   1.000  C
  H534     1.0000 0.16530  0.03790  0.44820  Biso   1.000  H
  C908     1.0000 0.40398  0.35831  0.68165  Biso   1.000  C
  H535     1.0000 0.39720  0.37760  0.69080  Biso   1.000  H
  C909     1.0000 0.29230  0.22144  0.57533  Biso   1.000  C
  H536     1.0000 0.26460  0.21250  0.57560  Biso   1.000  H
  C910     1.0000 0.39504  0.11547  0.56739  Biso   1.000  C
  H537     1.0000 0.38030  0.10920  0.59410  Biso   1.000  H
  C911     1.0000 0.37770  0.32659  0.65393  Biso   1.000  C
  H538     1.0000 0.35330  0.32470  0.64520  Biso   1.000  H
  C912     1.0000 0.31785  0.25028  0.60643  Biso   1.000  C
  H539     1.0000 0.30680  0.26030  0.62740  Biso   1.000  H
  C913     1.0000 0.42369  0.30126  0.65358  Biso   1.000  C
  H540     1.0000 0.43070  0.28220  0.64430  Biso   1.000  H
  C914     1.0000 0.14663  0.10875  0.45063  Biso   1.000  C
  H541     1.0000 0.15970  0.13700  0.45230  Biso   1.000  H
  C915     1.0000 0.38543  0.13338  0.53147  Biso   1.000  C
  H542     1.0000 0.36440  0.13900  0.53460  Biso   1.000  H
  C916     1.0000 0.44590  0.11455  0.52232  Biso   1.000  C
  H543     1.0000 0.46560  0.10720  0.51820  Biso   1.000  H
  C917     1.0000 0.42620  0.10720  0.56310  Biso   1.000  C
  C918     1.0000 0.43675  0.13275  0.48745  Biso   1.000  C
  H544     1.0000 0.45100  0.13840  0.46040  Biso   1.000  H
  Co44     1.0000 0.89995  0.45920  0.78589  Biso   1.000  Co
  O205     1.0000 0.90952  0.49470  0.84498  Biso   1.000  O
  O206     1.0000 0.96237  0.49863  0.81048  Biso   1.000  O
  O207     1.0000 0.16438  0.72990  0.07806  Biso   1.000  O
  O208     1.0000 0.09557  0.52221  0.76553  Biso   1.000  O
  O209     1.0000 0.03034  0.49241  0.78432  Biso   1.000  O
  O210     1.0000 0.12866  0.75977  0.05841  Biso   1.000  O
  N69      1.0000 0.68911  0.31410  0.77618  Biso   1.000  N
  N70      1.0000 0.83598  0.42452  0.78444  Biso   1.000  N
  C919     1.0000 0.04134  0.58112  0.90963  Biso   1.000  C
  H545     1.0000 0.06877  0.58913  0.91023  Biso   1.000  H
  C920     1.0000 0.70618  0.35449  0.77626  Biso   1.000  C
  C921     1.0000 0.75143  0.37906  0.77811  Biso   1.000  C
  C922     1.0000 0.05376  0.63069  0.97215  Biso   1.000  C
  C923     1.0000 0.01606  0.55239  0.87795  Biso   1.000  C
  H546     1.0000 0.02687  0.54193  0.85733  Biso   1.000  H
  C924     1.0000 0.07330  0.47586  0.82578  Biso   1.000  C
  C925     1.0000 0.10675  0.69482  0.02915  Biso   1.000  C
  C926     1.0000 0.97472  0.53930  0.87712  Biso   1.000  C
  C927     1.0000 0.13594  0.73134  0.05723  Biso   1.000  C
  C928     1.0000 0.77158  0.42082  0.78116  Biso   1.000  C
  H547     1.0000 0.75707  0.43453  0.78133  Biso   1.000  H
  C929     1.0000 0.94738  0.50943  0.84232  Biso   1.000  C
  C930     1.0000 0.77510  0.36039  0.77821  Biso   1.000  C
  H548     1.0000 0.76287  0.33223  0.77613  Biso   1.000  H
  C931     1.0000 0.02604  0.59795  0.94055  Biso   1.000  C
  C932     1.0000 0.11651  0.66595  0.01496  Biso   1.000  C
  H549     1.0000 0.14067  0.66763  0.02433  Biso   1.000  H
  C933     1.0000 0.06551  0.49850  0.78901  Biso   1.000  C
  C934     1.0000 0.81660  0.38405  0.78142  Biso   1.000  C
  H550     1.0000 0.83197  0.37123  0.78153  Biso   1.000  H
  C935     1.0000 0.07065  0.69164  0.01498  Biso   1.000  C
  H551     1.0000 0.06387  0.71093  0.02413  Biso   1.000  H
  C936     1.0000 0.95897  0.55477  0.90866  Biso   1.000  C
  H552     1.0000 0.93127  0.54583  0.90893  Biso   1.000  H
  C937     1.0000 0.06171  0.44880  0.90072  Biso   1.000  C
  H553     1.0000 0.04697  0.44253  0.92743  Biso   1.000  H
  C938     1.0000 0.04437  0.65992  0.98726  Biso   1.000  C
  H554     1.0000 0.01997  0.65803  0.97853  Biso   1.000  H
  C939     1.0000 0.98452  0.58361  0.93976  Biso   1.000  C
  H555     1.0000 0.97347  0.59363  0.96073  Biso   1.000  H
  C940     1.0000 0.09036  0.63459  0.98691  Biso   1.000  C
  H556     1.0000 0.09737  0.61553  0.97763  Biso   1.000  H
  C941     1.0000 0.81330  0.44208  0.78396  Biso   1.000  C
  H557     1.0000 0.82637  0.47033  0.78563  Biso   1.000  H
  C942     1.0000 0.05210  0.46671  0.86480  Biso   1.000  C
  H558     1.0000 0.03107  0.47233  0.86793  Biso   1.000  H
  C943     1.0000 0.11257  0.44788  0.85565  Biso   1.000  C
  H559     1.0000 0.13227  0.44053  0.85153  Biso   1.000  H
  C944     1.0000 0.09287  0.44053  0.89643  Biso   1.000  C
  C945     1.0000 0.10342  0.46608  0.82078  Biso   1.000  C
  H560     1.0000 0.11767  0.47173  0.79373  Biso   1.000  H
  Co45     1.0000 0.56662  0.79254  0.11922  Biso   1.000  Co
  O211     1.0000 0.57618  0.82804  0.17832  Biso   1.000  O
  O212     1.0000 0.62903  0.83197  0.14382  Biso   1.000  O
  O213     1.0000 0.83104  0.06324  0.41140  Biso   1.000  O
  O214     1.0000 0.76223  0.85555  0.09887  Biso   1.000  O
  O215     1.0000 0.69700  0.82575  0.11766  Biso   1.000  O
  O216     1.0000 0.79532  0.09311  0.39175  Biso   1.000  O
  N71      1.0000 0.35577  0.64744  0.10952  Biso   1.000  N
  N72      1.0000 0.50264  0.75786  0.11778  Biso   1.000  N
  C946     1.0000 0.70800  0.91446  0.24297  Biso   1.000  C
  H561     1.0000 0.73543  0.92247  0.24357  Biso   1.000  H
  C947     1.0000 0.37284  0.68783  0.10960  Biso   1.000  C
  C948     1.0000 0.41809  0.71240  0.11145  Biso   1.000  C
  C949     1.0000 0.72042  0.96403  0.30549  Biso   1.000  C
  C950     1.0000 0.68272  0.88573  0.21129  Biso   1.000  C
  H562     1.0000 0.69353  0.87527  0.19067  Biso   1.000  H
  C951     1.0000 0.73996  0.80920  0.15912  Biso   1.000  C
  C952     1.0000 0.77341  0.02816  0.36249  Biso   1.000  C
  C953     1.0000 0.64138  0.87264  0.21046  Biso   1.000  C
  C954     1.0000 0.80260  0.06468  0.39057  Biso   1.000  C
  C955     1.0000 0.43824  0.75416  0.11450  Biso   1.000  C
  H563     1.0000 0.42373  0.76787  0.11467  Biso   1.000  H
  C956     1.0000 0.61404  0.84277  0.17566  Biso   1.000  C
  C957     1.0000 0.44176  0.69373  0.11155  Biso   1.000  C
  H564     1.0000 0.42953  0.66557  0.10947  Biso   1.000  H
  C958     1.0000 0.69270  0.93129  0.27389  Biso   1.000  C
  C959     1.0000 0.78317  0.99929  0.34830  Biso   1.000  C
  H565     1.0000 0.80733  0.00097  0.35767  Biso   1.000  H
  C960     1.0000 0.73217  0.83184  0.12235  Biso   1.000  C
  C961     1.0000 0.48326  0.71739  0.11476  Biso   1.000  C
  H566     1.0000 0.49863  0.70457  0.11487  Biso   1.000  H
  C962     1.0000 0.73731  0.02498  0.34832  Biso   1.000  C
  H567     1.0000 0.73053  0.04427  0.35747  Biso   1.000  H
  C963     1.0000 0.62563  0.88811  0.24200  Biso   1.000  C
  H568     1.0000 0.59793  0.87917  0.24227  Biso   1.000  H
  C964     1.0000 0.72837  0.78214  0.23406  Biso   1.000  C
  H569     1.0000 0.71363  0.77587  0.26077  Biso   1.000  H
  C965     1.0000 0.71103  0.99326  0.32060  Biso   1.000  C
  H570     1.0000 0.68663  0.99137  0.31187  Biso   1.000  H
  C966     1.0000 0.65118  0.91695  0.27310  Biso   1.000  C
  H571     1.0000 0.64013  0.92697  0.29407  Biso   1.000  H
  C967     1.0000 0.75702  0.96793  0.32025  Biso   1.000  C
  H572     1.0000 0.76403  0.94887  0.31097  Biso   1.000  H
  C968     1.0000 0.47996  0.77542  0.11730  Biso   1.000  C
  H573     1.0000 0.49303  0.80367  0.11897  Biso   1.000  H
  C969     1.0000 0.71876  0.80005  0.19814  Biso   1.000  C
  H574     1.0000 0.69773  0.80567  0.20127  Biso   1.000  H
  C970     1.0000 0.77923  0.78122  0.18899  Biso   1.000  C
  H575     1.0000 0.79893  0.77387  0.18487  Biso   1.000  H
  C971     1.0000 0.75953  0.77387  0.22977  Biso   1.000  C
  C972     1.0000 0.77008  0.79942  0.15412  Biso   1.000  C
  H576     1.0000 0.78433  0.80507  0.12707  Biso   1.000  H
  Co46     1.0000 0.66667  0.85009  0.08333  Biso   1.000  Co
  Co47     1.0000 0.33333  0.18343  0.41667  Biso   1.000  Co
  Co48     1.0000 0.14991  0.81657  0.08333  Biso   1.000  Co
  Co49     1.0000 0.48324  0.48324  0.75000  Biso   1.000  Co
  Co50     1.0000 0.18343  0.33333  0.08333  Biso   1.000  Co
  Co51     1.0000 0.85009  0.66667  0.41667  Biso   1.000  Co
  Co52     1.0000 0.51676  0.00000  0.75000  Biso   1.000  Co
  Co53     1.0000 0.81657  0.14991  0.41667  Biso   1.000  Co
  Co54     1.0000 0.00000  0.51676  0.75000  Biso   1.000  Co
