data_image0
_cell_length_a       18.0973
_cell_length_b       28.4369
_cell_length_c       28.5016
_cell_angle_alpha    90
_cell_angle_beta     90
_cell_angle_gamma    90

_symmetry_space_group_name_H-M    "P 1"
_symmetry_int_tables_number       1

loop_
  _symmetry_equiv_pos_as_xyz
  'x, y, z'

loop_
  _atom_site_label
  _atom_site_occupancy
  _atom_site_fract_x
  _atom_site_fract_y
  _atom_site_fract_z
  _atom_site_thermal_displace_type
  _atom_site_B_iso_or_equiv
  _atom_site_type_symbol
  Cu1      1.0000 0.98439  0.24352  0.76392  Biso   1.000  Cu
  Cu2      1.0000 0.74176  0.48614  0.50309  Biso   1.000  Cu
  N1       1.0000 0.53250  0.29336  0.28897  Biso   1.000  N
  N2       1.0000 0.93990  0.28653  0.71588  Biso   1.000  N
  N3       1.0000 0.78660  0.43611  0.54502  Biso   1.000  N
  N4       1.0000 0.96490  0.70338  0.68782  Biso   1.000  N
  N5       1.0000 0.68880  0.43612  0.46496  Biso   1.000  N
  N6       1.0000 0.93880  0.28440  0.81493  Biso   1.000  N
  N7       1.0000 0.80170  0.46264  0.96243  Biso   1.000  N
  N8       1.0000 0.79290  0.53639  0.54142  Biso   1.000  N
  C1       1.0000 0.88120  0.35030  0.87670  Biso   1.000  C
  C2       1.0000 0.89710  0.64050  0.62610  Biso   1.000  C
  C3       1.0000 0.87870  0.34480  0.64810  Biso   1.000  C
  C4       1.0000 0.60160  0.29760  0.36030  Biso   1.000  C
  H1       1.0000 0.62860  0.28190  0.38330  Biso   1.000  H
  C5       1.0000 0.98080  0.30280  0.84900  Biso   1.000  C
  H2       1.0000 0.02990  0.29350  0.85150  Biso   1.000  H
  C6       1.0000 0.62340  0.37470  0.40070  Biso   1.000  C
  C7       1.0000 0.84640  0.37640  0.61190  Biso   1.000  C
  C8       1.0000 0.83670  0.33020  0.84180  Biso   1.000  C
  H3       1.0000 0.78740  0.33890  0.83870  Biso   1.000  H
  C9       1.0000 0.77210  0.37370  0.60010  Biso   1.000  C
  H4       1.0000 0.74150  0.35170  0.61440  Biso   1.000  H
  C10      1.0000 0.89420  0.26950  0.68360  Biso   1.000  C
  H5       1.0000 0.88450  0.23740  0.68350  Biso   1.000  H
  C11      1.0000 0.61830  0.43990  0.45380  Biso   1.000  C
  H6       1.0000 0.59030  0.46340  0.46790  Biso   1.000  H
  C12      1.0000 0.81850  0.56980  0.61660  Biso   1.000  C
  H7       1.0000 0.81170  0.56920  0.64900  Biso   1.000  H
  C13      1.0000 0.85330  0.38960  0.90690  Biso   1.000  C
  C14      1.0000 0.72670  0.40030  0.44660  Biso   1.000  C
  H8       1.0000 0.77550  0.39610  0.45580  Biso   1.000  H
  C15      1.0000 0.57070  0.27300  0.32330  Biso   1.000  C
  H9       1.0000 0.57700  0.24060  0.32240  Biso   1.000  H
  C16      1.0000 0.86040  0.29760  0.65000  Biso   1.000  C
  H10      1.0000 0.82610  0.28500  0.62930  Biso   1.000  H
  C17      1.0000 0.00190  0.68480  0.65160  Biso   1.000  C
  H11      1.0000 0.05120  0.69320  0.64750  Biso   1.000  H
  C18      1.0000 0.89030  0.40800  0.58840  Biso   1.000  C
  H12      1.0000 0.94070  0.40970  0.59470  Biso   1.000  H
  C19      1.0000 0.58400  0.41020  0.42190  Biso   1.000  C
  H13      1.0000 0.53430  0.41430  0.41470  Biso   1.000  H
  C20      1.0000 0.97020  0.65380  0.62000  Biso   1.000  C
  H14      1.0000 0.99760  0.64210  0.59490  Biso   1.000  H
  C21      1.0000 0.85920  0.66020  0.66250  Biso   1.000  C
  H15      1.0000 0.80970  0.65290  0.66730  Biso   1.000  H
  C22      1.0000 0.86120  0.60400  0.59620  Biso   1.000  C
  C23      1.0000 0.74400  0.40440  0.56650  Biso   1.000  C
  H16      1.0000 0.69410  0.40270  0.55890  Biso   1.000  H
  C24      1.0000 0.86810  0.39110  0.95470  Biso   1.000  C
  H17      1.0000 0.89640  0.36770  0.96870  Biso   1.000  H
  C25      1.0000 0.92710  0.36300  0.68200  Biso   1.000  C
  H18      1.0000 0.93910  0.39480  0.68220  Biso   1.000  H
  C26      1.0000 0.85850  0.43730  0.55550  Biso   1.000  C
  H19      1.0000 0.88850  0.45870  0.53990  Biso   1.000  H
  C27      1.0000 0.69690  0.36940  0.41460  Biso   1.000  C
  H20      1.0000 0.72550  0.34520  0.40230  Biso   1.000  H
  C28      1.0000 0.89500  0.69130  0.69220  Biso   1.000  C
  H21      1.0000 0.86810  0.70440  0.71670  Biso   1.000  H
  C29      1.0000 0.55110  0.36730  0.32720  Biso   1.000  C
  H22      1.0000 0.54270  0.39960  0.32810  Biso   1.000  H
  C30      1.0000 0.52330  0.34060  0.29090  Biso   1.000  C
  H23      1.0000 0.49740  0.35560  0.26690  Biso   1.000  H
  C31      1.0000 0.87020  0.60370  0.54770  Biso   1.000  C
  H24      1.0000 0.89980  0.62600  0.53290  Biso   1.000  H
  C32      1.0000 0.95640  0.33320  0.71500  Biso   1.000  C
  H25      1.0000 0.98860  0.34520  0.73740  Biso   1.000  H
  C33      1.0000 0.59190  0.34570  0.36270  Biso   1.000  C
  C34      1.0000 0.86710  0.29760  0.81220  Biso   1.000  C
  H26      1.0000 0.83740  0.28400  0.78930  Biso   1.000  H
  C35      1.0000 0.95310  0.33510  0.88050  Biso   1.000  C
  H27      1.0000 0.98320  0.34670  0.90430  Biso   1.000  H
  C36      1.0000 0.83420  0.56950  0.52220  Biso   1.000  C
  H28      1.0000 0.83910  0.56980  0.48970  Biso   1.000  H
  C37      1.0000 0.81210  0.42580  0.88810  Biso   1.000  C
  H29      1.0000 0.80000  0.42570  0.85640  Biso   1.000  H
  C38      1.0000 0.78580  0.53620  0.58830  Biso   1.000  C
  H30      1.0000 0.75780  0.51270  0.60230  Biso   1.000  H
  C39      1.0000 0.84060  0.42750  0.98070  Biso   1.000  C
  H31      1.0000 0.84950  0.42770  0.01290  Biso   1.000  H
  C40      1.0000 0.78910  0.46180  0.91610  Biso   1.000  C
  H32      1.0000 0.76370  0.48670  0.90260  Biso   1.000  H
  Cu3      1.0000 0.51561  0.75648  0.26392  Biso   1.000  Cu
  Cu4      1.0000 0.75824  0.51386  0.00309  Biso   1.000  Cu
  N9       1.0000 0.96750  0.70664  0.78897  Biso   1.000  N
  N10      1.0000 0.56010  0.71347  0.21588  Biso   1.000  N
  N11      1.0000 0.71340  0.56389  0.04502  Biso   1.000  N
  N12      1.0000 0.53510  0.29662  0.18782  Biso   1.000  N
  N13      1.0000 0.81120  0.56388  0.96496  Biso   1.000  N
  N14      1.0000 0.56120  0.71560  0.31493  Biso   1.000  N
  N15      1.0000 0.69830  0.53736  0.46243  Biso   1.000  N
  N16      1.0000 0.70710  0.46361  0.04142  Biso   1.000  N
  C41      1.0000 0.61880  0.64970  0.37670  Biso   1.000  C
  C42      1.0000 0.60290  0.35950  0.12610  Biso   1.000  C
  C43      1.0000 0.62130  0.65520  0.14810  Biso   1.000  C
  C44      1.0000 0.89840  0.70240  0.86030  Biso   1.000  C
  H33      1.0000 0.87140  0.71810  0.88330  Biso   1.000  H
  C45      1.0000 0.51920  0.69720  0.34900  Biso   1.000  C
  H34      1.0000 0.47010  0.70650  0.35150  Biso   1.000  H
  C46      1.0000 0.87660  0.62530  0.90070  Biso   1.000  C
  C47      1.0000 0.65360  0.62360  0.11190  Biso   1.000  C
  C48      1.0000 0.66330  0.66980  0.34180  Biso   1.000  C
  H35      1.0000 0.71260  0.66110  0.33870  Biso   1.000  H
  C49      1.0000 0.72790  0.62630  0.10010  Biso   1.000  C
  H36      1.0000 0.75850  0.64830  0.11440  Biso   1.000  H
  C50      1.0000 0.60580  0.73050  0.18360  Biso   1.000  C
  H37      1.0000 0.61550  0.76260  0.18350  Biso   1.000  H
  C51      1.0000 0.88170  0.56010  0.95380  Biso   1.000  C
  H38      1.0000 0.90970  0.53660  0.96790  Biso   1.000  H
  C52      1.0000 0.68150  0.43020  0.11660  Biso   1.000  C
  H39      1.0000 0.68830  0.43080  0.14900  Biso   1.000  H
  C53      1.0000 0.64670  0.61040  0.40690  Biso   1.000  C
  C54      1.0000 0.77330  0.59970  0.94660  Biso   1.000  C
  H40      1.0000 0.72450  0.60390  0.95580  Biso   1.000  H
  C55      1.0000 0.92930  0.72700  0.82330  Biso   1.000  C
  H41      1.0000 0.92300  0.75940  0.82240  Biso   1.000  H
  C56      1.0000 0.63960  0.70240  0.15000  Biso   1.000  C
  H42      1.0000 0.67390  0.71500  0.12930  Biso   1.000  H
  C57      1.0000 0.49810  0.31520  0.15160  Biso   1.000  C
  H43      1.0000 0.44880  0.30680  0.14750  Biso   1.000  H
  C58      1.0000 0.60970  0.59200  0.08840  Biso   1.000  C
  H44      1.0000 0.55930  0.59030  0.09470  Biso   1.000  H
  C59      1.0000 0.91600  0.58980  0.92190  Biso   1.000  C
  H45      1.0000 0.96570  0.58570  0.91470  Biso   1.000  H
  C60      1.0000 0.52980  0.34620  0.12000  Biso   1.000  C
  H46      1.0000 0.50240  0.35790  0.09490  Biso   1.000  H
  C61      1.0000 0.64080  0.33980  0.16250  Biso   1.000  C
  H47      1.0000 0.69030  0.34710  0.16730  Biso   1.000  H
  C62      1.0000 0.63880  0.39600  0.09620  Biso   1.000  C
  C63      1.0000 0.75600  0.59560  0.06650  Biso   1.000  C
  H48      1.0000 0.80590  0.59730  0.05890  Biso   1.000  H
  C64      1.0000 0.63190  0.60890  0.45470  Biso   1.000  C
  H49      1.0000 0.60360  0.63230  0.46870  Biso   1.000  H
  C65      1.0000 0.57290  0.63700  0.18200  Biso   1.000  C
  H50      1.0000 0.56090  0.60520  0.18220  Biso   1.000  H
  C66      1.0000 0.64150  0.56270  0.05550  Biso   1.000  C
  H51      1.0000 0.61150  0.54130  0.03990  Biso   1.000  H
  C67      1.0000 0.80310  0.63060  0.91460  Biso   1.000  C
  H52      1.0000 0.77450  0.65480  0.90230  Biso   1.000  H
  C68      1.0000 0.60500  0.30870  0.19220  Biso   1.000  C
  H53      1.0000 0.63190  0.29560  0.21670  Biso   1.000  H
  C69      1.0000 0.94890  0.63270  0.82720  Biso   1.000  C
  H54      1.0000 0.95730  0.60040  0.82810  Biso   1.000  H
  C70      1.0000 0.97670  0.65940  0.79090  Biso   1.000  C
  H55      1.0000 0.00260  0.64440  0.76690  Biso   1.000  H
  C71      1.0000 0.62980  0.39630  0.04770  Biso   1.000  C
  H56      1.0000 0.60020  0.37400  0.03290  Biso   1.000  H
  C72      1.0000 0.54360  0.66680  0.21500  Biso   1.000  C
  H57      1.0000 0.51140  0.65480  0.23740  Biso   1.000  H
  C73      1.0000 0.90810  0.65430  0.86270  Biso   1.000  C
  C74      1.0000 0.63290  0.70240  0.31220  Biso   1.000  C
  H58      1.0000 0.66260  0.71600  0.28930  Biso   1.000  H
  C75      1.0000 0.54690  0.66490  0.38050  Biso   1.000  C
  H59      1.0000 0.51680  0.65330  0.40430  Biso   1.000  H
  C76      1.0000 0.66580  0.43050  0.02220  Biso   1.000  C
  H60      1.0000 0.66090  0.43020  0.98970  Biso   1.000  H
  C77      1.0000 0.68790  0.57420  0.38810  Biso   1.000  C
  H61      1.0000 0.70000  0.57430  0.35640  Biso   1.000  H
  C78      1.0000 0.71420  0.46380  0.08830  Biso   1.000  C
  H62      1.0000 0.74220  0.48730  0.10230  Biso   1.000  H
  C79      1.0000 0.65940  0.57250  0.48070  Biso   1.000  C
  H63      1.0000 0.65050  0.57230  0.51290  Biso   1.000  H
  C80      1.0000 0.71090  0.53820  0.41610  Biso   1.000  C
  H64      1.0000 0.73630  0.51330  0.40260  Biso   1.000  H
  Cu5      1.0000 0.01561  0.74352  0.73608  Biso   1.000  Cu
  Cu6      1.0000 0.25824  0.98614  0.99691  Biso   1.000  Cu
  N17      1.0000 0.46750  0.79336  0.21103  Biso   1.000  N
  N18      1.0000 0.06010  0.78653  0.78412  Biso   1.000  N
  N19      1.0000 0.21340  0.93611  0.95498  Biso   1.000  N
  N20      1.0000 0.03510  0.20338  0.81218  Biso   1.000  N
  N21      1.0000 0.31120  0.93612  0.03504  Biso   1.000  N
  N22      1.0000 0.06120  0.78440  0.68507  Biso   1.000  N
  N23      1.0000 0.19830  0.96264  0.53757  Biso   1.000  N
  N24      1.0000 0.20710  0.03639  0.95858  Biso   1.000  N
  C81      1.0000 0.11880  0.85030  0.62330  Biso   1.000  C
  C82      1.0000 0.10290  0.14050  0.87390  Biso   1.000  C
  C83      1.0000 0.12130  0.84480  0.85190  Biso   1.000  C
  C84      1.0000 0.39840  0.79760  0.13970  Biso   1.000  C
  H65      1.0000 0.37140  0.78190  0.11670  Biso   1.000  H
  C85      1.0000 0.01920  0.80280  0.65100  Biso   1.000  C
  H66      1.0000 0.97010  0.79350  0.64850  Biso   1.000  H
  C86      1.0000 0.37660  0.87470  0.09930  Biso   1.000  C
  C87      1.0000 0.15360  0.87640  0.88810  Biso   1.000  C
  C88      1.0000 0.16330  0.83020  0.65820  Biso   1.000  C
  H67      1.0000 0.21260  0.83890  0.66130  Biso   1.000  H
  C89      1.0000 0.22790  0.87370  0.89990  Biso   1.000  C
  H68      1.0000 0.25850  0.85170  0.88560  Biso   1.000  H
  C90      1.0000 0.10580  0.76950  0.81640  Biso   1.000  C
  H69      1.0000 0.11550  0.73740  0.81650  Biso   1.000  H
  C91      1.0000 0.38170  0.93990  0.04620  Biso   1.000  C
  H70      1.0000 0.40970  0.96340  0.03210  Biso   1.000  H
  C92      1.0000 0.18150  0.06980  0.88340  Biso   1.000  C
  H71      1.0000 0.18830  0.06920  0.85100  Biso   1.000  H
  C93      1.0000 0.14670  0.88960  0.59310  Biso   1.000  C
  C94      1.0000 0.27330  0.90030  0.05340  Biso   1.000  C
  H72      1.0000 0.22450  0.89610  0.04420  Biso   1.000  H
  C95      1.0000 0.42930  0.77300  0.17670  Biso   1.000  C
  H73      1.0000 0.42300  0.74060  0.17760  Biso   1.000  H
  C96      1.0000 0.13960  0.79760  0.85000  Biso   1.000  C
  H74      1.0000 0.17390  0.78500  0.87070  Biso   1.000  H
  C97      1.0000 0.99810  0.18480  0.84840  Biso   1.000  C
  H75      1.0000 0.94880  0.19320  0.85250  Biso   1.000  H
  C98      1.0000 0.10970  0.90800  0.91160  Biso   1.000  C
  H76      1.0000 0.05930  0.90970  0.90530  Biso   1.000  H
  C99      1.0000 0.41600  0.91020  0.07810  Biso   1.000  C
  H77      1.0000 0.46570  0.91430  0.08530  Biso   1.000  H
  C100     1.0000 0.02980  0.15380  0.88000  Biso   1.000  C
  H78      1.0000 0.00240  0.14210  0.90510  Biso   1.000  H
  C101     1.0000 0.14080  0.16020  0.83750  Biso   1.000  C
  H79      1.0000 0.19030  0.15290  0.83270  Biso   1.000  H
  C102     1.0000 0.13880  0.10400  0.90380  Biso   1.000  C
  C103     1.0000 0.25600  0.90440  0.93350  Biso   1.000  C
  H80      1.0000 0.30590  0.90270  0.94110  Biso   1.000  H
  C104     1.0000 0.13190  0.89110  0.54530  Biso   1.000  C
  H81      1.0000 0.10360  0.86770  0.53130  Biso   1.000  H
  C105     1.0000 0.07290  0.86300  0.81800  Biso   1.000  C
  H82      1.0000 0.06090  0.89480  0.81780  Biso   1.000  H
  C106     1.0000 0.14150  0.93730  0.94450  Biso   1.000  C
  H83      1.0000 0.11150  0.95870  0.96010  Biso   1.000  H
  C107     1.0000 0.30310  0.86940  0.08540  Biso   1.000  C
  H84      1.0000 0.27450  0.84520  0.09770  Biso   1.000  H
  C108     1.0000 0.10500  0.19130  0.80780  Biso   1.000  C
  H85      1.0000 0.13190  0.20440  0.78330  Biso   1.000  H
  C109     1.0000 0.44890  0.86730  0.17280  Biso   1.000  C
  H86      1.0000 0.45730  0.89960  0.17190  Biso   1.000  H
  C110     1.0000 0.47670  0.84060  0.20910  Biso   1.000  C
  H87      1.0000 0.50260  0.85560  0.23310  Biso   1.000  H
  C111     1.0000 0.12980  0.10370  0.95230  Biso   1.000  C
  H88      1.0000 0.10020  0.12600  0.96710  Biso   1.000  H
  C112     1.0000 0.04360  0.83320  0.78500  Biso   1.000  C
  H89      1.0000 0.01140  0.84520  0.76260  Biso   1.000  H
  C113     1.0000 0.40810  0.84570  0.13730  Biso   1.000  C
  C114     1.0000 0.13290  0.79760  0.68780  Biso   1.000  C
  H90      1.0000 0.16260  0.78400  0.71070  Biso   1.000  H
  C115     1.0000 0.04690  0.83510  0.61950  Biso   1.000  C
  H91      1.0000 0.01680  0.84670  0.59570  Biso   1.000  H
  C116     1.0000 0.16580  0.06950  0.97780  Biso   1.000  C
  H92      1.0000 0.16090  0.06980  0.01030  Biso   1.000  H
  C117     1.0000 0.18790  0.92580  0.61190  Biso   1.000  C
  H93      1.0000 0.20000  0.92570  0.64360  Biso   1.000  H
  C118     1.0000 0.21420  0.03620  0.91170  Biso   1.000  C
  H94      1.0000 0.24220  0.01270  0.89770  Biso   1.000  H
  C119     1.0000 0.15940  0.92750  0.51930  Biso   1.000  C
  H95      1.0000 0.15050  0.92770  0.48710  Biso   1.000  H
  C120     1.0000 0.21090  0.96180  0.58390  Biso   1.000  C
  H96      1.0000 0.23630  0.98670  0.59740  Biso   1.000  H
  Cu7      1.0000 0.48439  0.25648  0.23608  Biso   1.000  Cu
  Cu8      1.0000 0.24176  0.01386  0.49691  Biso   1.000  Cu
  N25      1.0000 0.03250  0.20664  0.71103  Biso   1.000  N
  N26      1.0000 0.43990  0.21347  0.28412  Biso   1.000  N
  N27      1.0000 0.28660  0.06389  0.45498  Biso   1.000  N
  N28      1.0000 0.46490  0.79662  0.31218  Biso   1.000  N
  N29      1.0000 0.18880  0.06388  0.53504  Biso   1.000  N
  N30      1.0000 0.43880  0.21560  0.18507  Biso   1.000  N
  N31      1.0000 0.30170  0.03736  0.03757  Biso   1.000  N
  N32      1.0000 0.29290  0.96361  0.45858  Biso   1.000  N
  C121     1.0000 0.38120  0.14970  0.12330  Biso   1.000  C
  C122     1.0000 0.39710  0.85950  0.37390  Biso   1.000  C
  C123     1.0000 0.37870  0.15520  0.35190  Biso   1.000  C
  C124     1.0000 0.10160  0.20240  0.63970  Biso   1.000  C
  H97      1.0000 0.12860  0.21810  0.61670  Biso   1.000  H
  C125     1.0000 0.48080  0.19720  0.15100  Biso   1.000  C
  H98      1.0000 0.52990  0.20650  0.14850  Biso   1.000  H
  C126     1.0000 0.12340  0.12530  0.59930  Biso   1.000  C
  C127     1.0000 0.34640  0.12360  0.38810  Biso   1.000  C
  C128     1.0000 0.33670  0.16980  0.15820  Biso   1.000  C
  H99      1.0000 0.28740  0.16110  0.16130  Biso   1.000  H
  C129     1.0000 0.27210  0.12630  0.39990  Biso   1.000  C
  H100     1.0000 0.24150  0.14830  0.38560  Biso   1.000  H
  C130     1.0000 0.39420  0.23050  0.31640  Biso   1.000  C
  H101     1.0000 0.38450  0.26260  0.31650  Biso   1.000  H
  C131     1.0000 0.11830  0.06010  0.54620  Biso   1.000  C
  H102     1.0000 0.09030  0.03660  0.53210  Biso   1.000  H
  C132     1.0000 0.31850  0.93020  0.38340  Biso   1.000  C
  H103     1.0000 0.31170  0.93080  0.35100  Biso   1.000  H
  C133     1.0000 0.35330  0.11040  0.09310  Biso   1.000  C
  C134     1.0000 0.22670  0.09970  0.55340  Biso   1.000  C
  H104     1.0000 0.27550  0.10390  0.54420  Biso   1.000  H
  C135     1.0000 0.07070  0.22700  0.67670  Biso   1.000  C
  H105     1.0000 0.07700  0.25940  0.67760  Biso   1.000  H
  C136     1.0000 0.36040  0.20240  0.35000  Biso   1.000  C
  H106     1.0000 0.32610  0.21500  0.37070  Biso   1.000  H
  C137     1.0000 0.50190  0.81520  0.34840  Biso   1.000  C
  H107     1.0000 0.55120  0.80680  0.35250  Biso   1.000  H
  C138     1.0000 0.39030  0.09200  0.41160  Biso   1.000  C
  H108     1.0000 0.44070  0.09030  0.40530  Biso   1.000  H
  C139     1.0000 0.08400  0.08980  0.57810  Biso   1.000  C
  H109     1.0000 0.03430  0.08570  0.58530  Biso   1.000  H
  C140     1.0000 0.47020  0.84620  0.38000  Biso   1.000  C
  H110     1.0000 0.49760  0.85790  0.40510  Biso   1.000  H
  C141     1.0000 0.35920  0.83980  0.33750  Biso   1.000  C
  H111     1.0000 0.30970  0.84710  0.33270  Biso   1.000  H
  C142     1.0000 0.36120  0.89600  0.40380  Biso   1.000  C
  C143     1.0000 0.24400  0.09560  0.43350  Biso   1.000  C
  H112     1.0000 0.19410  0.09730  0.44110  Biso   1.000  H
  C144     1.0000 0.36810  0.10890  0.04530  Biso   1.000  C
  H113     1.0000 0.39640  0.13230  0.03130  Biso   1.000  H
  C145     1.0000 0.42710  0.13700  0.31800  Biso   1.000  C
  H114     1.0000 0.43910  0.10520  0.31780  Biso   1.000  H
  C146     1.0000 0.35850  0.06270  0.44450  Biso   1.000  C
  H115     1.0000 0.38850  0.04130  0.46010  Biso   1.000  H
  C147     1.0000 0.19690  0.13060  0.58540  Biso   1.000  C
  H116     1.0000 0.22550  0.15480  0.59770  Biso   1.000  H
  C148     1.0000 0.39500  0.80870  0.30780  Biso   1.000  C
  H117     1.0000 0.36810  0.79560  0.28330  Biso   1.000  H
  C149     1.0000 0.05110  0.13270  0.67280  Biso   1.000  C
  H118     1.0000 0.04270  0.10040  0.67190  Biso   1.000  H
  C150     1.0000 0.02330  0.15940  0.70910  Biso   1.000  C
  H119     1.0000 0.99740  0.14440  0.73310  Biso   1.000  H
  C151     1.0000 0.37020  0.89630  0.45230  Biso   1.000  C
  H120     1.0000 0.39980  0.87400  0.46710  Biso   1.000  H
  C152     1.0000 0.45640  0.16680  0.28500  Biso   1.000  C
  H121     1.0000 0.48860  0.15480  0.26260  Biso   1.000  H
  C153     1.0000 0.09190  0.15430  0.63730  Biso   1.000  C
  C154     1.0000 0.36710  0.20240  0.18780  Biso   1.000  C
  H122     1.0000 0.33740  0.21600  0.21070  Biso   1.000  H
  C155     1.0000 0.45310  0.16490  0.11950  Biso   1.000  C
  H123     1.0000 0.48320  0.15330  0.09570  Biso   1.000  H
  C156     1.0000 0.33420  0.93050  0.47780  Biso   1.000  C
  H124     1.0000 0.33910  0.93020  0.51030  Biso   1.000  H
  C157     1.0000 0.31210  0.07420  0.11190  Biso   1.000  C
  H125     1.0000 0.30000  0.07430  0.14360  Biso   1.000  H
  C158     1.0000 0.28580  0.96380  0.41170  Biso   1.000  C
  H126     1.0000 0.25780  0.98730  0.39770  Biso   1.000  H
  C159     1.0000 0.34060  0.07250  0.01930  Biso   1.000  C
  H127     1.0000 0.34950  0.07230  0.98710  Biso   1.000  H
  C160     1.0000 0.28910  0.03820  0.08390  Biso   1.000  C
  H128     1.0000 0.26370  0.01330  0.09740  Biso   1.000  H
  Cu9      1.0000 0.01561  0.75648  0.23608  Biso   1.000  Cu
  Cu10     1.0000 0.25824  0.51386  0.49691  Biso   1.000  Cu
  N33      1.0000 0.46750  0.70664  0.71103  Biso   1.000  N
  N34      1.0000 0.06010  0.71347  0.28412  Biso   1.000  N
  N35      1.0000 0.21340  0.56389  0.45498  Biso   1.000  N
  N36      1.0000 0.03510  0.29662  0.31218  Biso   1.000  N
  N37      1.0000 0.31120  0.56388  0.53504  Biso   1.000  N
  N38      1.0000 0.06120  0.71560  0.18507  Biso   1.000  N
  N39      1.0000 0.19830  0.53736  0.03757  Biso   1.000  N
  N40      1.0000 0.20710  0.46361  0.45858  Biso   1.000  N
  C161     1.0000 0.11880  0.64970  0.12330  Biso   1.000  C
  C162     1.0000 0.10290  0.35950  0.37390  Biso   1.000  C
  C163     1.0000 0.12130  0.65520  0.35190  Biso   1.000  C
  C164     1.0000 0.39840  0.70240  0.63970  Biso   1.000  C
  H129     1.0000 0.37140  0.71810  0.61670  Biso   1.000  H
  C165     1.0000 0.01920  0.69720  0.15100  Biso   1.000  C
  H130     1.0000 0.97010  0.70650  0.14850  Biso   1.000  H
  C166     1.0000 0.37660  0.62530  0.59930  Biso   1.000  C
  C167     1.0000 0.15360  0.62360  0.38810  Biso   1.000  C
  C168     1.0000 0.16330  0.66980  0.15820  Biso   1.000  C
  H131     1.0000 0.21260  0.66110  0.16130  Biso   1.000  H
  C169     1.0000 0.22790  0.62630  0.39990  Biso   1.000  C
  H132     1.0000 0.25850  0.64830  0.38560  Biso   1.000  H
  C170     1.0000 0.10580  0.73050  0.31640  Biso   1.000  C
  H133     1.0000 0.11550  0.76260  0.31650  Biso   1.000  H
  C171     1.0000 0.38170  0.56010  0.54620  Biso   1.000  C
  H134     1.0000 0.40970  0.53660  0.53210  Biso   1.000  H
  C172     1.0000 0.18150  0.43020  0.38340  Biso   1.000  C
  H135     1.0000 0.18830  0.43080  0.35100  Biso   1.000  H
  C173     1.0000 0.14670  0.61040  0.09310  Biso   1.000  C
  C174     1.0000 0.27330  0.59970  0.55340  Biso   1.000  C
  H136     1.0000 0.22450  0.60390  0.54420  Biso   1.000  H
  C175     1.0000 0.42930  0.72700  0.67670  Biso   1.000  C
  H137     1.0000 0.42300  0.75940  0.67760  Biso   1.000  H
  C176     1.0000 0.13960  0.70240  0.35000  Biso   1.000  C
  H138     1.0000 0.17390  0.71500  0.37070  Biso   1.000  H
  C177     1.0000 0.99810  0.31520  0.34840  Biso   1.000  C
  H139     1.0000 0.94880  0.30680  0.35250  Biso   1.000  H
  C178     1.0000 0.10970  0.59200  0.41160  Biso   1.000  C
  H140     1.0000 0.05930  0.59030  0.40530  Biso   1.000  H
  C179     1.0000 0.41600  0.58980  0.57810  Biso   1.000  C
  H141     1.0000 0.46570  0.58570  0.58530  Biso   1.000  H
  C180     1.0000 0.02980  0.34620  0.38000  Biso   1.000  C
  H142     1.0000 0.00240  0.35790  0.40510  Biso   1.000  H
  C181     1.0000 0.14080  0.33980  0.33750  Biso   1.000  C
  H143     1.0000 0.19030  0.34710  0.33270  Biso   1.000  H
  C182     1.0000 0.13880  0.39600  0.40380  Biso   1.000  C
  C183     1.0000 0.25600  0.59560  0.43350  Biso   1.000  C
  H144     1.0000 0.30590  0.59730  0.44110  Biso   1.000  H
  C184     1.0000 0.13190  0.60890  0.04530  Biso   1.000  C
  H145     1.0000 0.10360  0.63230  0.03130  Biso   1.000  H
  C185     1.0000 0.07290  0.63700  0.31800  Biso   1.000  C
  H146     1.0000 0.06090  0.60520  0.31780  Biso   1.000  H
  C186     1.0000 0.14150  0.56270  0.44450  Biso   1.000  C
  H147     1.0000 0.11150  0.54130  0.46010  Biso   1.000  H
  C187     1.0000 0.30310  0.63060  0.58540  Biso   1.000  C
  H148     1.0000 0.27450  0.65480  0.59770  Biso   1.000  H
  C188     1.0000 0.10500  0.30870  0.30780  Biso   1.000  C
  H149     1.0000 0.13190  0.29560  0.28330  Biso   1.000  H
  C189     1.0000 0.44890  0.63270  0.67280  Biso   1.000  C
  H150     1.0000 0.45730  0.60040  0.67190  Biso   1.000  H
  C190     1.0000 0.47670  0.65940  0.70910  Biso   1.000  C
  H151     1.0000 0.50260  0.64440  0.73310  Biso   1.000  H
  C191     1.0000 0.12980  0.39630  0.45230  Biso   1.000  C
  H152     1.0000 0.10020  0.37400  0.46710  Biso   1.000  H
  C192     1.0000 0.04360  0.66680  0.28500  Biso   1.000  C
  H153     1.0000 0.01140  0.65480  0.26260  Biso   1.000  H
  C193     1.0000 0.40810  0.65430  0.63730  Biso   1.000  C
  C194     1.0000 0.13290  0.70240  0.18780  Biso   1.000  C
  H154     1.0000 0.16260  0.71600  0.21070  Biso   1.000  H
  C195     1.0000 0.04690  0.66490  0.11950  Biso   1.000  C
  H155     1.0000 0.01680  0.65330  0.09570  Biso   1.000  H
  C196     1.0000 0.16580  0.43050  0.47780  Biso   1.000  C
  H156     1.0000 0.16090  0.43020  0.51030  Biso   1.000  H
  C197     1.0000 0.18790  0.57420  0.11190  Biso   1.000  C
  H157     1.0000 0.20000  0.57430  0.14360  Biso   1.000  H
  C198     1.0000 0.21420  0.46380  0.41170  Biso   1.000  C
  H158     1.0000 0.24220  0.48730  0.39770  Biso   1.000  H
  C199     1.0000 0.15940  0.57250  0.01930  Biso   1.000  C
  H159     1.0000 0.15050  0.57230  0.98710  Biso   1.000  H
  C200     1.0000 0.21090  0.53820  0.08390  Biso   1.000  C
  H160     1.0000 0.23630  0.51330  0.09740  Biso   1.000  H
  Cu11     1.0000 0.48439  0.24352  0.73608  Biso   1.000  Cu
  Cu12     1.0000 0.24176  0.48614  0.99691  Biso   1.000  Cu
  N41      1.0000 0.03250  0.29336  0.21103  Biso   1.000  N
  N42      1.0000 0.43990  0.28653  0.78412  Biso   1.000  N
  N43      1.0000 0.28660  0.43611  0.95498  Biso   1.000  N
  N44      1.0000 0.46490  0.70338  0.81218  Biso   1.000  N
  N45      1.0000 0.18880  0.43612  0.03504  Biso   1.000  N
  N46      1.0000 0.43880  0.28440  0.68507  Biso   1.000  N
  N47      1.0000 0.30170  0.46264  0.53757  Biso   1.000  N
  N48      1.0000 0.29290  0.53639  0.95858  Biso   1.000  N
  C201     1.0000 0.38120  0.35030  0.62330  Biso   1.000  C
  C202     1.0000 0.39710  0.64050  0.87390  Biso   1.000  C
  C203     1.0000 0.37870  0.34480  0.85190  Biso   1.000  C
  C204     1.0000 0.10160  0.29760  0.13970  Biso   1.000  C
  H161     1.0000 0.12860  0.28190  0.11670  Biso   1.000  H
  C205     1.0000 0.48080  0.30280  0.65100  Biso   1.000  C
  H162     1.0000 0.52990  0.29350  0.64850  Biso   1.000  H
  C206     1.0000 0.12340  0.37470  0.09930  Biso   1.000  C
  C207     1.0000 0.34640  0.37640  0.88810  Biso   1.000  C
  C208     1.0000 0.33670  0.33020  0.65820  Biso   1.000  C
  H163     1.0000 0.28740  0.33890  0.66130  Biso   1.000  H
  C209     1.0000 0.27210  0.37370  0.89990  Biso   1.000  C
  H164     1.0000 0.24150  0.35170  0.88560  Biso   1.000  H
  C210     1.0000 0.39420  0.26950  0.81640  Biso   1.000  C
  H165     1.0000 0.38450  0.23740  0.81650  Biso   1.000  H
  C211     1.0000 0.11830  0.43990  0.04620  Biso   1.000  C
  H166     1.0000 0.09030  0.46340  0.03210  Biso   1.000  H
  C212     1.0000 0.31850  0.56980  0.88340  Biso   1.000  C
  H167     1.0000 0.31170  0.56920  0.85100  Biso   1.000  H
  C213     1.0000 0.35330  0.38960  0.59310  Biso   1.000  C
  C214     1.0000 0.22670  0.40030  0.05340  Biso   1.000  C
  H168     1.0000 0.27550  0.39610  0.04420  Biso   1.000  H
  C215     1.0000 0.07070  0.27300  0.17670  Biso   1.000  C
  H169     1.0000 0.07700  0.24060  0.17760  Biso   1.000  H
  C216     1.0000 0.36040  0.29760  0.85000  Biso   1.000  C
  H170     1.0000 0.32610  0.28500  0.87070  Biso   1.000  H
  C217     1.0000 0.50190  0.68480  0.84840  Biso   1.000  C
  H171     1.0000 0.55120  0.69320  0.85250  Biso   1.000  H
  C218     1.0000 0.39030  0.40800  0.91160  Biso   1.000  C
  H172     1.0000 0.44070  0.40970  0.90530  Biso   1.000  H
  C219     1.0000 0.08400  0.41020  0.07810  Biso   1.000  C
  H173     1.0000 0.03430  0.41430  0.08530  Biso   1.000  H
  C220     1.0000 0.47020  0.65380  0.88000  Biso   1.000  C
  H174     1.0000 0.49760  0.64210  0.90510  Biso   1.000  H
  C221     1.0000 0.35920  0.66020  0.83750  Biso   1.000  C
  H175     1.0000 0.30970  0.65290  0.83270  Biso   1.000  H
  C222     1.0000 0.36120  0.60400  0.90380  Biso   1.000  C
  C223     1.0000 0.24400  0.40440  0.93350  Biso   1.000  C
  H176     1.0000 0.19410  0.40270  0.94110  Biso   1.000  H
  C224     1.0000 0.36810  0.39110  0.54530  Biso   1.000  C
  H177     1.0000 0.39640  0.36770  0.53130  Biso   1.000  H
  C225     1.0000 0.42710  0.36300  0.81800  Biso   1.000  C
  H178     1.0000 0.43910  0.39480  0.81780  Biso   1.000  H
  C226     1.0000 0.35850  0.43730  0.94450  Biso   1.000  C
  H179     1.0000 0.38850  0.45870  0.96010  Biso   1.000  H
  C227     1.0000 0.19690  0.36940  0.08540  Biso   1.000  C
  H180     1.0000 0.22550  0.34520  0.09770  Biso   1.000  H
  C228     1.0000 0.39500  0.69130  0.80780  Biso   1.000  C
  H181     1.0000 0.36810  0.70440  0.78330  Biso   1.000  H
  C229     1.0000 0.05110  0.36730  0.17280  Biso   1.000  C
  H182     1.0000 0.04270  0.39960  0.17190  Biso   1.000  H
  C230     1.0000 0.02330  0.34060  0.20910  Biso   1.000  C
  H183     1.0000 0.99740  0.35560  0.23310  Biso   1.000  H
  C231     1.0000 0.37020  0.60370  0.95230  Biso   1.000  C
  H184     1.0000 0.39980  0.62600  0.96710  Biso   1.000  H
  C232     1.0000 0.45640  0.33320  0.78500  Biso   1.000  C
  H185     1.0000 0.48860  0.34520  0.76260  Biso   1.000  H
  C233     1.0000 0.09190  0.34570  0.13730  Biso   1.000  C
  C234     1.0000 0.36710  0.29760  0.68780  Biso   1.000  C
  H186     1.0000 0.33740  0.28400  0.71070  Biso   1.000  H
  C235     1.0000 0.45310  0.33510  0.61950  Biso   1.000  C
  H187     1.0000 0.48320  0.34670  0.59570  Biso   1.000  H
  C236     1.0000 0.33420  0.56950  0.97780  Biso   1.000  C
  H188     1.0000 0.33910  0.56980  0.01030  Biso   1.000  H
  C237     1.0000 0.31210  0.42580  0.61190  Biso   1.000  C
  H189     1.0000 0.30000  0.42570  0.64360  Biso   1.000  H
  C238     1.0000 0.28580  0.53620  0.91170  Biso   1.000  C
  H190     1.0000 0.25780  0.51270  0.89770  Biso   1.000  H
  C239     1.0000 0.34060  0.42750  0.51930  Biso   1.000  C
  H191     1.0000 0.34950  0.42770  0.48710  Biso   1.000  H
  C240     1.0000 0.28910  0.46180  0.58390  Biso   1.000  C
  H192     1.0000 0.26370  0.48670  0.59740  Biso   1.000  H
  Cu13     1.0000 0.98439  0.25648  0.26392  Biso   1.000  Cu
  Cu14     1.0000 0.74176  0.01386  0.00309  Biso   1.000  Cu
  N49      1.0000 0.53250  0.20664  0.78897  Biso   1.000  N
  N50      1.0000 0.93990  0.21347  0.21588  Biso   1.000  N
  N51      1.0000 0.78660  0.06389  0.04502  Biso   1.000  N
  N52      1.0000 0.96490  0.79662  0.18782  Biso   1.000  N
  N53      1.0000 0.68880  0.06388  0.96496  Biso   1.000  N
  N54      1.0000 0.93880  0.21560  0.31493  Biso   1.000  N
  N55      1.0000 0.80170  0.03736  0.46243  Biso   1.000  N
  N56      1.0000 0.79290  0.96361  0.04142  Biso   1.000  N
  C241     1.0000 0.88120  0.14970  0.37670  Biso   1.000  C
  C242     1.0000 0.89710  0.85950  0.12610  Biso   1.000  C
  C243     1.0000 0.87870  0.15520  0.14810  Biso   1.000  C
  C244     1.0000 0.60160  0.20240  0.86030  Biso   1.000  C
  H193     1.0000 0.62860  0.21810  0.88330  Biso   1.000  H
  C245     1.0000 0.98080  0.19720  0.34900  Biso   1.000  C
  H194     1.0000 0.02990  0.20650  0.35150  Biso   1.000  H
  C246     1.0000 0.62340  0.12530  0.90070  Biso   1.000  C
  C247     1.0000 0.84640  0.12360  0.11190  Biso   1.000  C
  C248     1.0000 0.83670  0.16980  0.34180  Biso   1.000  C
  H195     1.0000 0.78740  0.16110  0.33870  Biso   1.000  H
  C249     1.0000 0.77210  0.12630  0.10010  Biso   1.000  C
  H196     1.0000 0.74150  0.14830  0.11440  Biso   1.000  H
  C250     1.0000 0.89420  0.23050  0.18360  Biso   1.000  C
  H197     1.0000 0.88450  0.26260  0.18350  Biso   1.000  H
  C251     1.0000 0.61830  0.06010  0.95380  Biso   1.000  C
  H198     1.0000 0.59030  0.03660  0.96790  Biso   1.000  H
  C252     1.0000 0.81850  0.93020  0.11660  Biso   1.000  C
  H199     1.0000 0.81170  0.93080  0.14900  Biso   1.000  H
  C253     1.0000 0.85330  0.11040  0.40690  Biso   1.000  C
  C254     1.0000 0.72670  0.09970  0.94660  Biso   1.000  C
  H200     1.0000 0.77550  0.10390  0.95580  Biso   1.000  H
  C255     1.0000 0.57070  0.22700  0.82330  Biso   1.000  C
  H201     1.0000 0.57700  0.25940  0.82240  Biso   1.000  H
  C256     1.0000 0.86040  0.20240  0.15000  Biso   1.000  C
  H202     1.0000 0.82610  0.21500  0.12930  Biso   1.000  H
  C257     1.0000 0.00190  0.81520  0.15160  Biso   1.000  C
  H203     1.0000 0.05120  0.80680  0.14750  Biso   1.000  H
  C258     1.0000 0.89030  0.09200  0.08840  Biso   1.000  C
  H204     1.0000 0.94070  0.09030  0.09470  Biso   1.000  H
  C259     1.0000 0.58400  0.08980  0.92190  Biso   1.000  C
  H205     1.0000 0.53430  0.08570  0.91470  Biso   1.000  H
  C260     1.0000 0.97020  0.84620  0.12000  Biso   1.000  C
  H206     1.0000 0.99760  0.85790  0.09490  Biso   1.000  H
  C261     1.0000 0.85920  0.83980  0.16250  Biso   1.000  C
  H207     1.0000 0.80970  0.84710  0.16730  Biso   1.000  H
  C262     1.0000 0.86120  0.89600  0.09620  Biso   1.000  C
  C263     1.0000 0.74400  0.09560  0.06650  Biso   1.000  C
  H208     1.0000 0.69410  0.09730  0.05890  Biso   1.000  H
  C264     1.0000 0.86810  0.10890  0.45470  Biso   1.000  C
  H209     1.0000 0.89640  0.13230  0.46870  Biso   1.000  H
  C265     1.0000 0.92710  0.13700  0.18200  Biso   1.000  C
  H210     1.0000 0.93910  0.10520  0.18220  Biso   1.000  H
  C266     1.0000 0.85850  0.06270  0.05550  Biso   1.000  C
  H211     1.0000 0.88850  0.04130  0.03990  Biso   1.000  H
  C267     1.0000 0.69690  0.13060  0.91460  Biso   1.000  C
  H212     1.0000 0.72550  0.15480  0.90230  Biso   1.000  H
  C268     1.0000 0.89500  0.80870  0.19220  Biso   1.000  C
  H213     1.0000 0.86810  0.79560  0.21670  Biso   1.000  H
  C269     1.0000 0.55110  0.13270  0.82720  Biso   1.000  C
  H214     1.0000 0.54270  0.10040  0.82810  Biso   1.000  H
  C270     1.0000 0.52330  0.15940  0.79090  Biso   1.000  C
  H215     1.0000 0.49740  0.14440  0.76690  Biso   1.000  H
  C271     1.0000 0.87020  0.89630  0.04770  Biso   1.000  C
  H216     1.0000 0.89980  0.87400  0.03290  Biso   1.000  H
  C272     1.0000 0.95640  0.16680  0.21500  Biso   1.000  C
  H217     1.0000 0.98860  0.15480  0.23740  Biso   1.000  H
  C273     1.0000 0.59190  0.15430  0.86270  Biso   1.000  C
  C274     1.0000 0.86710  0.20240  0.31220  Biso   1.000  C
  H218     1.0000 0.83740  0.21600  0.28930  Biso   1.000  H
  C275     1.0000 0.95310  0.16490  0.38050  Biso   1.000  C
  H219     1.0000 0.98320  0.15330  0.40430  Biso   1.000  H
  C276     1.0000 0.83420  0.93050  0.02220  Biso   1.000  C
  H220     1.0000 0.83910  0.93020  0.98970  Biso   1.000  H
  C277     1.0000 0.81210  0.07420  0.38810  Biso   1.000  C
  H221     1.0000 0.80000  0.07430  0.35640  Biso   1.000  H
  C278     1.0000 0.78580  0.96380  0.08830  Biso   1.000  C
  H222     1.0000 0.75780  0.98730  0.10230  Biso   1.000  H
  C279     1.0000 0.84060  0.07250  0.48070  Biso   1.000  C
  H223     1.0000 0.84950  0.07230  0.51290  Biso   1.000  H
  C280     1.0000 0.78910  0.03820  0.41610  Biso   1.000  C
  H224     1.0000 0.76370  0.01330  0.40260  Biso   1.000  H
  Cu15     1.0000 0.51561  0.74352  0.76392  Biso   1.000  Cu
  Cu16     1.0000 0.75824  0.98614  0.50309  Biso   1.000  Cu
  N57      1.0000 0.96750  0.79336  0.28897  Biso   1.000  N
  N58      1.0000 0.56010  0.78653  0.71588  Biso   1.000  N
  N59      1.0000 0.71340  0.93611  0.54502  Biso   1.000  N
  N60      1.0000 0.53510  0.20338  0.68782  Biso   1.000  N
  N61      1.0000 0.81120  0.93612  0.46496  Biso   1.000  N
  N62      1.0000 0.56120  0.78440  0.81493  Biso   1.000  N
  N63      1.0000 0.69830  0.96264  0.96243  Biso   1.000  N
  N64      1.0000 0.70710  0.03639  0.54142  Biso   1.000  N
  C281     1.0000 0.61880  0.85030  0.87670  Biso   1.000  C
  C282     1.0000 0.60290  0.14050  0.62610  Biso   1.000  C
  C283     1.0000 0.62130  0.84480  0.64810  Biso   1.000  C
  C284     1.0000 0.89840  0.79760  0.36030  Biso   1.000  C
  H225     1.0000 0.87140  0.78190  0.38330  Biso   1.000  H
  C285     1.0000 0.51920  0.80280  0.84900  Biso   1.000  C
  H226     1.0000 0.47010  0.79350  0.85150  Biso   1.000  H
  C286     1.0000 0.87660  0.87470  0.40070  Biso   1.000  C
  C287     1.0000 0.65360  0.87640  0.61190  Biso   1.000  C
  C288     1.0000 0.66330  0.83020  0.84180  Biso   1.000  C
  H227     1.0000 0.71260  0.83890  0.83870  Biso   1.000  H
  C289     1.0000 0.72790  0.87370  0.60010  Biso   1.000  C
  H228     1.0000 0.75850  0.85170  0.61440  Biso   1.000  H
  C290     1.0000 0.60580  0.76950  0.68360  Biso   1.000  C
  H229     1.0000 0.61550  0.73740  0.68350  Biso   1.000  H
  C291     1.0000 0.88170  0.93990  0.45380  Biso   1.000  C
  H230     1.0000 0.90970  0.96340  0.46790  Biso   1.000  H
  C292     1.0000 0.68150  0.06980  0.61660  Biso   1.000  C
  H231     1.0000 0.68830  0.06920  0.64900  Biso   1.000  H
  C293     1.0000 0.64670  0.88960  0.90690  Biso   1.000  C
  C294     1.0000 0.77330  0.90030  0.44660  Biso   1.000  C
  H232     1.0000 0.72450  0.89610  0.45580  Biso   1.000  H
  C295     1.0000 0.92930  0.77300  0.32330  Biso   1.000  C
  H233     1.0000 0.92300  0.74060  0.32240  Biso   1.000  H
  C296     1.0000 0.63960  0.79760  0.65000  Biso   1.000  C
  H234     1.0000 0.67390  0.78500  0.62930  Biso   1.000  H
  C297     1.0000 0.49810  0.18480  0.65160  Biso   1.000  C
  H235     1.0000 0.44880  0.19320  0.64750  Biso   1.000  H
  C298     1.0000 0.60970  0.90800  0.58840  Biso   1.000  C
  H236     1.0000 0.55930  0.90970  0.59470  Biso   1.000  H
  C299     1.0000 0.91600  0.91020  0.42190  Biso   1.000  C
  H237     1.0000 0.96570  0.91430  0.41470  Biso   1.000  H
  C300     1.0000 0.52980  0.15380  0.62000  Biso   1.000  C
  H238     1.0000 0.50240  0.14210  0.59490  Biso   1.000  H
  C301     1.0000 0.64080  0.16020  0.66250  Biso   1.000  C
  H239     1.0000 0.69030  0.15290  0.66730  Biso   1.000  H
  C302     1.0000 0.63880  0.10400  0.59620  Biso   1.000  C
  C303     1.0000 0.75600  0.90440  0.56650  Biso   1.000  C
  H240     1.0000 0.80590  0.90270  0.55890  Biso   1.000  H
  C304     1.0000 0.63190  0.89110  0.95470  Biso   1.000  C
  H241     1.0000 0.60360  0.86770  0.96870  Biso   1.000  H
  C305     1.0000 0.57290  0.86300  0.68200  Biso   1.000  C
  H242     1.0000 0.56090  0.89480  0.68220  Biso   1.000  H
  C306     1.0000 0.64150  0.93730  0.55550  Biso   1.000  C
  H243     1.0000 0.61150  0.95870  0.53990  Biso   1.000  H
  C307     1.0000 0.80310  0.86940  0.41460  Biso   1.000  C
  H244     1.0000 0.77450  0.84520  0.40230  Biso   1.000  H
  C308     1.0000 0.60500  0.19130  0.69220  Biso   1.000  C
  H245     1.0000 0.63190  0.20440  0.71670  Biso   1.000  H
  C309     1.0000 0.94890  0.86730  0.32720  Biso   1.000  C
  H246     1.0000 0.95730  0.89960  0.32810  Biso   1.000  H
  C310     1.0000 0.97670  0.84060  0.29090  Biso   1.000  C
  H247     1.0000 0.00260  0.85560  0.26690  Biso   1.000  H
  C311     1.0000 0.62980  0.10370  0.54770  Biso   1.000  C
  H248     1.0000 0.60020  0.12600  0.53290  Biso   1.000  H
  C312     1.0000 0.54360  0.83320  0.71500  Biso   1.000  C
  H249     1.0000 0.51140  0.84520  0.73740  Biso   1.000  H
  C313     1.0000 0.90810  0.84570  0.36270  Biso   1.000  C
  C314     1.0000 0.63290  0.79760  0.81220  Biso   1.000  C
  H250     1.0000 0.66260  0.78400  0.78930  Biso   1.000  H
  C315     1.0000 0.54690  0.83510  0.88050  Biso   1.000  C
  H251     1.0000 0.51680  0.84670  0.90430  Biso   1.000  H
  C316     1.0000 0.66580  0.06950  0.52220  Biso   1.000  C
  H252     1.0000 0.66090  0.06980  0.48970  Biso   1.000  H
  C317     1.0000 0.68790  0.92580  0.88810  Biso   1.000  C
  H253     1.0000 0.70000  0.92570  0.85640  Biso   1.000  H
  C318     1.0000 0.71420  0.03620  0.58830  Biso   1.000  C
  H254     1.0000 0.74220  0.01270  0.60230  Biso   1.000  H
  C319     1.0000 0.65940  0.92750  0.98070  Biso   1.000  C
  H255     1.0000 0.65050  0.92770  0.01290  Biso   1.000  H
  C320     1.0000 0.71090  0.96180  0.91610  Biso   1.000  C
  H256     1.0000 0.73630  0.98670  0.90260  Biso   1.000  H
