data_image0
_cell_length_a       28.9123
_cell_length_b       20.7706
_cell_length_c       29.7284
_cell_angle_alpha    90
_cell_angle_beta     101.224
_cell_angle_gamma    90

_symmetry_space_group_name_H-M    "P 1"
_symmetry_int_tables_number       1

loop_
  _symmetry_equiv_pos_as_xyz
  'x, y, z'

loop_
  _atom_site_label
  _atom_site_occupancy
  _atom_site_fract_x
  _atom_site_fract_y
  _atom_site_fract_z
  _atom_site_thermal_displace_type
  _atom_site_B_iso_or_equiv
  _atom_site_type_symbol
  Cu1      1.0000 0.74012  0.50369  0.56474  Biso   1.000  Cu
  O1       1.0000 0.34210  0.83010  0.25930  Biso   1.000  O
  N1       1.0000 0.28330  0.60050  0.12047  Biso   1.000  N
  C1       1.0000 0.45700  0.91430  0.28400  Biso   1.000  C
  Cu2      1.0000 0.23860  0.54932  0.07284  Biso   1.000  Cu
  O2       1.0000 0.60870  0.66980  0.30200  Biso   1.000  O
  N2       1.0000 0.77110  0.43070  0.60240  Biso   1.000  N
  O3       1.0000 0.57450  0.64420  0.39120  Biso   1.000  O
  O4       1.0000 0.12420  0.35700  0.89600  Biso   1.000  O
  O5       1.0000 0.38870  0.76390  0.20500  Biso   1.000  O
  N3       1.0000 0.70170  0.55040  0.51220  Biso   1.000  N
  C2       1.0000 0.40910  0.90020  0.28360  Biso   1.000  C
  H1       1.0000 0.39160  0.92730  0.29990  Biso   1.000  H
  O6       1.0000 0.38580  0.69290  0.26190  Biso   1.000  O
  N4       1.0000 0.28610  0.94300  0.53070  Biso   1.000  N
  C3       1.0000 0.38740  0.84740  0.26000  Biso   1.000  C
  C4       1.0000 0.41270  0.81060  0.23520  Biso   1.000  C
  O7       1.0000 0.63808  0.70650  0.39049  Biso   1.000  O
  N5       1.0000 0.19461  0.49900  0.02431  Biso   1.000  N
  C5       1.0000 0.45910  0.82210  0.23470  Biso   1.000  C
  H2       1.0000 0.47570  0.79530  0.21730  Biso   1.000  H
  N6       1.0000 0.79490  0.99840  0.03160  Biso   1.000  N
  C6       1.0000 0.48240  0.87470  0.26030  Biso   1.000  C
  O8       1.0000 0.50614  0.90820  0.50098  Biso   1.000  O
  C7       1.0000 0.53530  0.88110  0.26150  Biso   1.000  C
  H3       1.0000 0.54190  0.87050  0.23090  Biso   1.000  H
  H4       1.0000 0.54500  0.92630  0.26860  Biso   1.000  H
  O9       1.0000 0.42469  0.95860  0.45713  Biso   1.000  O
  C8       1.0000 0.56360  0.83710  0.29700  Biso   1.000  C
  O10      1.0000 0.39380  0.86610  0.43060  Biso   1.000  O
  C9       1.0000 0.57250  0.77540  0.28270  Biso   1.000  C
  H5       1.0000 0.56190  0.76380  0.25150  Biso   1.000  H
  O11      1.0000 0.82810  0.19370  0.74770  Biso   1.000  O
  C10      1.0000 0.59680  0.73050  0.31310  Biso   1.000  C
  O12      1.0000 0.87315  0.28000  0.70475  Biso   1.000  O
  C11      1.0000 0.61080  0.74930  0.35840  Biso   1.000  C
  O13      1.0000 0.84480  0.21470  0.64580  Biso   1.000  O
  C12      1.0000 0.60370  0.81000  0.37310  Biso   1.000  C
  H6       1.0000 0.61470  0.82110  0.40440  Biso   1.000  H
  O14      1.0000 0.08260  0.40060  0.81200  Biso   1.000  O
  C13      1.0000 0.58040  0.85600  0.34250  Biso   1.000  C
  C14      1.0000 0.57510  0.92440  0.36040  Biso   1.000  C
  H7       1.0000 0.60460  0.93620  0.38180  Biso   1.000  H
  H8       1.0000 0.57110  0.95470  0.33420  Biso   1.000  H
  O15      1.0000 0.05921  0.39320  0.91890  Biso   1.000  O
  C15      1.0000 0.53390  0.93320  0.38490  Biso   1.000  C
  O16      1.0000 0.99029  0.14500  0.99601  Biso   1.000  O
  C16      1.0000 0.54040  0.91700  0.43170  Biso   1.000  C
  H9       1.0000 0.57010  0.90090  0.44690  Biso   1.000  H
  O17      1.0000 0.91304  0.08550  0.94940  Biso   1.000  O
  C17      1.0000 0.50440  0.92410  0.45630  Biso   1.000  C
  O18      1.0000 0.94560  0.98960  0.97230  Biso   1.000  O
  C18      1.0000 0.46100  0.94940  0.43220  Biso   1.000  C
  C19      1.0000 0.45460  0.96670  0.38770  Biso   1.000  C
  H10      1.0000 0.42540  0.98490  0.37310  Biso   1.000  H
  C20      1.0000 0.49050  0.95810  0.36230  Biso   1.000  C
  C21      1.0000 0.47840  0.97200  0.31150  Biso   1.000  C
  H11      1.0000 0.50730  0.98530  0.30080  Biso   1.000  H
  H12      1.0000 0.45570  0.00830  0.30610  Biso   1.000  H
  C22      1.0000 0.31720  0.86530  0.28680  Biso   1.000  C
  H13      1.0000 0.33560  0.86740  0.31810  Biso   1.000  H
  H14      1.0000 0.28690  0.84420  0.28700  Biso   1.000  H
  H15      1.0000 0.31160  0.90900  0.27450  Biso   1.000  H
  C23      1.0000 0.37490  0.70880  0.22180  Biso   1.000  C
  C24      1.0000 0.34410  0.67030  0.18550  Biso   1.000  C
  C25      1.0000 0.32980  0.61070  0.19640  Biso   1.000  C
  H16      1.0000 0.34070  0.59270  0.22590  Biso   1.000  H
  C26      1.0000 0.29850  0.57690  0.16240  Biso   1.000  C
  H17      1.0000 0.28770  0.53560  0.16960  Biso   1.000  H
  C27      1.0000 0.29980  0.65740  0.11050  Biso   1.000  C
  H18      1.0000 0.29050  0.67330  0.08010  Biso   1.000  H
  C28      1.0000 0.32960  0.69500  0.14210  Biso   1.000  C
  H19      1.0000 0.33980  0.73620  0.13410  Biso   1.000  H
  C29      1.0000 0.60200  0.65540  0.25350  Biso   1.000  C
  H20      1.0000 0.56840  0.65840  0.23970  Biso   1.000  H
  H21      1.0000 0.61330  0.61170  0.24940  Biso   1.000  H
  H22      1.0000 0.61980  0.68630  0.23870  Biso   1.000  H
  C30      1.0000 0.61520  0.65690  0.40490  Biso   1.000  C
  C31      1.0000 0.64710  0.61960  0.44130  Biso   1.000  C
  C32      1.0000 0.63060  0.56070  0.45570  Biso   1.000  C
  H23      1.0000 0.60100  0.54360  0.44100  Biso   1.000  H
  C33      1.0000 0.65850  0.52870  0.49130  Biso   1.000  C
  H24      1.0000 0.64710  0.48980  0.50190  Biso   1.000  H
  C34      1.0000 0.71750  0.60500  0.49710  Biso   1.000  C
  H25      1.0000 0.74810  0.61970  0.51090  Biso   1.000  H
  C35      1.0000 0.69130  0.64130  0.46230  Biso   1.000  C
  H26      1.0000 0.70350  0.68050  0.45290  Biso   1.000  H
  C36      1.0000 0.54910  0.88040  0.52450  Biso   1.000  C
  H27      1.0000 0.55520  0.84040  0.50920  Biso   1.000  H
  H28      1.0000 0.54670  0.87100  0.55630  Biso   1.000  H
  H29      1.0000 0.57510  0.91070  0.52430  Biso   1.000  H
  C37      1.0000 0.39210  0.91300  0.45290  Biso   1.000  C
  C38      1.0000 0.35530  0.92560  0.48000  Biso   1.000  C
  C39      1.0000 0.31780  0.88450  0.47530  Biso   1.000  C
  H30      1.0000 0.31570  0.84860  0.45520  Biso   1.000  H
  C40      1.0000 0.28270  0.89620  0.50030  Biso   1.000  C
  H31      1.0000 0.25550  0.86960  0.49530  Biso   1.000  H
  C41      1.0000 0.32330  0.98240  0.53590  Biso   1.000  C
  H32      1.0000 0.32540  0.01660  0.55740  Biso   1.000  H
  C42      1.0000 0.35860  0.97510  0.51130  Biso   1.000  C
  H33      1.0000 0.38480  0.00360  0.51590  Biso   1.000  H
  C43      1.0000 0.97370  0.17950  0.75800  Biso   1.000  C
  C44      1.0000 0.94690  0.22720  0.73170  Biso   1.000  C
  H34      1.0000 0.96180  0.25850  0.71610  Biso   1.000  H
  C45      1.0000 0.89910  0.22840  0.72850  Biso   1.000  C
  C46      1.0000 0.87580  0.18480  0.75090  Biso   1.000  C
  C47      1.0000 0.90200  0.13620  0.77520  Biso   1.000  C
  H35      1.0000 0.88640  0.10420  0.78950  Biso   1.000  H
  C48      1.0000 0.95100  0.13300  0.77930  Biso   1.000  C
  C49      1.0000 0.97660  0.07890  0.80860  Biso   1.000  C
  H36      1.0000 0.95790  0.03880  0.80270  Biso   1.000  H
  H37      1.0000 0.00750  0.07130  0.80000  Biso   1.000  H
  C50      1.0000 0.98390  0.09560  0.85920  Biso   1.000  C
  C51      1.0000 0.94720  0.08270  0.88210  Biso   1.000  C
  H38      1.0000 0.91930  0.06240  0.86640  Biso   1.000  H
  C52      1.0000 0.95130  0.09920  0.92700  Biso   1.000  C
  C53      1.0000 0.99150  0.13000  0.95150  Biso   1.000  C
  C54      1.0000 0.02800  0.14150  0.92920  Biso   1.000  C
  H39      1.0000 0.05580  0.16160  0.94540  Biso   1.000  H
  C55      1.0000 0.02520  0.12420  0.88310  Biso   1.000  C
  C56      1.0000 0.06770  0.13720  0.86180  Biso   1.000  C
  H40      1.0000 0.06670  0.10770  0.83550  Biso   1.000  H
  H41      1.0000 0.09660  0.12730  0.88460  Biso   1.000  H
  C57      1.0000 0.07080  0.20700  0.84500  Biso   1.000  C
  C58      1.0000 0.09350  0.25120  0.87650  Biso   1.000  C
  H42      1.0000 0.10680  0.23770  0.90670  Biso   1.000  H
  C59      1.0000 0.09720  0.31530  0.86430  Biso   1.000  C
  C60      1.0000 0.07770  0.33710  0.82070  Biso   1.000  C
  C61      1.0000 0.05540  0.29150  0.78890  Biso   1.000  C
  H43      1.0000 0.04230  0.30510  0.75860  Biso   1.000  H
  C62      1.0000 0.05190  0.22740  0.80030  Biso   1.000  C
  C63      1.0000 0.02730  0.18330  0.76200  Biso   1.000  C
  H44      1.0000 0.04070  0.13950  0.76740  Biso   1.000  H
  H45      1.0000 0.03420  0.19880  0.73250  Biso   1.000  H
  C64      1.0000 0.80630  0.15890  0.78030  Biso   1.000  C
  H46      1.0000 0.80270  0.11360  0.77130  Biso   1.000  H
  H47      1.0000 0.77530  0.17760  0.78090  Biso   1.000  H
  H48      1.0000 0.82630  0.16220  0.81090  Biso   1.000  H
  C65      1.0000 0.84650  0.26650  0.66410  Biso   1.000  C
  C66      1.0000 0.82010  0.32410  0.64320  Biso   1.000  C
  C67      1.0000 0.78250  0.31610  0.60720  Biso   1.000  C
  H49      1.0000 0.77290  0.27440  0.59600  Biso   1.000  H
  C68      1.0000 0.75900  0.37060  0.58780  Biso   1.000  C
  H50      1.0000 0.73310  0.36520  0.56310  Biso   1.000  H
  C69      1.0000 0.80750  0.43750  0.63740  Biso   1.000  C
  H51      1.0000 0.81660  0.47970  0.64780  Biso   1.000  H
  C70      1.0000 0.83240  0.38560  0.65920  Biso   1.000  C
  H52      1.0000 0.85750  0.39200  0.68470  Biso   1.000  H
  C71      1.0000 0.05680  0.42460  0.76870  Biso   1.000  C
  H53      1.0000 0.07090  0.40760  0.74370  Biso   1.000  H
  H54      1.0000 0.05830  0.47180  0.76850  Biso   1.000  H
  H55      1.0000 0.02390  0.41080  0.76450  Biso   1.000  H
  C72      1.0000 0.10160  0.39170  0.92290  Biso   1.000  C
  C73      1.0000 0.13480  0.42810  0.95810  Biso   1.000  C
  C74      1.0000 0.11840  0.48220  0.97780  Biso   1.000  C
  H56      1.0000 0.08650  0.49580  0.96870  Biso   1.000  H
  C75      1.0000 0.14970  0.51610  0.01110  Biso   1.000  C
  H57      1.0000 0.13850  0.55270  0.02490  Biso   1.000  H
  C76      1.0000 0.21040  0.44670  0.00510  Biso   1.000  C
  H58      1.0000 0.24250  0.43450  0.01460  Biso   1.000  H
  C77      1.0000 0.18170  0.41000  0.97200  Biso   1.000  C
  H59      1.0000 0.19380  0.37330  0.95900  Biso   1.000  H
  C78      1.0000 0.03320  0.17190  0.02210  Biso   1.000  C
  H60      1.0000 0.05920  0.14170  0.02230  Biso   1.000  H
  H61      1.0000 0.02930  0.17980  0.05370  Biso   1.000  H
  H62      1.0000 0.04010  0.21260  0.00810  Biso   1.000  H
  C79      1.0000 0.91420  0.02750  0.97060  Biso   1.000  C
  C80      1.0000 0.87180  0.01800  0.99100  Biso   1.000  C
  C81      1.0000 0.87400  0.97580  0.02660  Biso   1.000  C
  H63      1.0000 0.90220  0.95240  0.03750  Biso   1.000  H
  C82      1.0000 0.83570  0.96740  0.04640  Biso   1.000  C
  H64      1.0000 0.83800  0.93870  0.07160  Biso   1.000  H
  C83      1.0000 0.79230  0.03860  0.99580  Biso   1.000  C
  H65      1.0000 0.76340  0.06020  0.98460  Biso   1.000  H
  C84      1.0000 0.82980  0.04980  0.97490  Biso   1.000  C
  H66      1.0000 0.82700  0.07880  0.94990  Biso   1.000  H
  Cu3      1.0000 0.74012  0.99631  0.06474  Biso   1.000  Cu
  O19      1.0000 0.34210  0.66990  0.75930  Biso   1.000  O
  N7       1.0000 0.28330  0.89950  0.62047  Biso   1.000  N
  C85      1.0000 0.45700  0.58570  0.78400  Biso   1.000  C
  Cu4      1.0000 0.23860  0.95068  0.57284  Biso   1.000  Cu
  O20      1.0000 0.60870  0.83020  0.80200  Biso   1.000  O
  N8       1.0000 0.77110  0.06930  0.10240  Biso   1.000  N
  O21      1.0000 0.57450  0.85580  0.89120  Biso   1.000  O
  O22      1.0000 0.12420  0.14300  0.39600  Biso   1.000  O
  O23      1.0000 0.38870  0.73610  0.70500  Biso   1.000  O
  N9       1.0000 0.70170  0.94960  0.01220  Biso   1.000  N
  C86      1.0000 0.40910  0.59980  0.78360  Biso   1.000  C
  H67      1.0000 0.39160  0.57270  0.79990  Biso   1.000  H
  O24      1.0000 0.38580  0.80710  0.76190  Biso   1.000  O
  N10      1.0000 0.28610  0.55700  0.03070  Biso   1.000  N
  C87      1.0000 0.38740  0.65260  0.76000  Biso   1.000  C
  C88      1.0000 0.41270  0.68940  0.73520  Biso   1.000  C
  O25      1.0000 0.63808  0.79350  0.89049  Biso   1.000  O
  N11      1.0000 0.19461  0.00100  0.52431  Biso   1.000  N
  C89      1.0000 0.45910  0.67790  0.73470  Biso   1.000  C
  H68      1.0000 0.47570  0.70470  0.71730  Biso   1.000  H
  N12      1.0000 0.79490  0.50160  0.53160  Biso   1.000  N
  C90      1.0000 0.48240  0.62530  0.76030  Biso   1.000  C
  O26      1.0000 0.50614  0.59180  0.00098  Biso   1.000  O
  C91      1.0000 0.53530  0.61890  0.76150  Biso   1.000  C
  H69      1.0000 0.54190  0.62950  0.73090  Biso   1.000  H
  H70      1.0000 0.54500  0.57370  0.76860  Biso   1.000  H
  O27      1.0000 0.42469  0.54140  0.95713  Biso   1.000  O
  C92      1.0000 0.56360  0.66290  0.79700  Biso   1.000  C
  O28      1.0000 0.39380  0.63390  0.93060  Biso   1.000  O
  C93      1.0000 0.57250  0.72460  0.78270  Biso   1.000  C
  H71      1.0000 0.56190  0.73620  0.75150  Biso   1.000  H
  O29      1.0000 0.82810  0.30630  0.24770  Biso   1.000  O
  C94      1.0000 0.59680  0.76950  0.81310  Biso   1.000  C
  O30      1.0000 0.87315  0.22000  0.20475  Biso   1.000  O
  C95      1.0000 0.61080  0.75070  0.85840  Biso   1.000  C
  O31      1.0000 0.84480  0.28530  0.14580  Biso   1.000  O
  C96      1.0000 0.60370  0.69000  0.87310  Biso   1.000  C
  H72      1.0000 0.61470  0.67890  0.90440  Biso   1.000  H
  O32      1.0000 0.08260  0.09940  0.31200  Biso   1.000  O
  C97      1.0000 0.58040  0.64400  0.84250  Biso   1.000  C
  C98      1.0000 0.57510  0.57560  0.86040  Biso   1.000  C
  H73      1.0000 0.60460  0.56380  0.88180  Biso   1.000  H
  H74      1.0000 0.57110  0.54530  0.83420  Biso   1.000  H
  O33      1.0000 0.05921  0.10680  0.41890  Biso   1.000  O
  C99      1.0000 0.53390  0.56680  0.88490  Biso   1.000  C
  O34      1.0000 0.99029  0.35500  0.49601  Biso   1.000  O
  C100     1.0000 0.54040  0.58300  0.93170  Biso   1.000  C
  H75      1.0000 0.57010  0.59910  0.94690  Biso   1.000  H
  O35      1.0000 0.91304  0.41450  0.44940  Biso   1.000  O
  C101     1.0000 0.50440  0.57590  0.95630  Biso   1.000  C
  O36      1.0000 0.94560  0.51040  0.47230  Biso   1.000  O
  C102     1.0000 0.46100  0.55060  0.93220  Biso   1.000  C
  C103     1.0000 0.45460  0.53330  0.88770  Biso   1.000  C
  H76      1.0000 0.42540  0.51510  0.87310  Biso   1.000  H
  C104     1.0000 0.49050  0.54190  0.86230  Biso   1.000  C
  C105     1.0000 0.47840  0.52800  0.81150  Biso   1.000  C
  H77      1.0000 0.50730  0.51470  0.80080  Biso   1.000  H
  H78      1.0000 0.45570  0.49170  0.80610  Biso   1.000  H
  C106     1.0000 0.31720  0.63470  0.78680  Biso   1.000  C
  H79      1.0000 0.33560  0.63260  0.81810  Biso   1.000  H
  H80      1.0000 0.28690  0.65580  0.78700  Biso   1.000  H
  H81      1.0000 0.31160  0.59100  0.77450  Biso   1.000  H
  C107     1.0000 0.37490  0.79120  0.72180  Biso   1.000  C
  C108     1.0000 0.34410  0.82970  0.68550  Biso   1.000  C
  C109     1.0000 0.32980  0.88930  0.69640  Biso   1.000  C
  H82      1.0000 0.34070  0.90730  0.72590  Biso   1.000  H
  C110     1.0000 0.29850  0.92310  0.66240  Biso   1.000  C
  H83      1.0000 0.28770  0.96440  0.66960  Biso   1.000  H
  C111     1.0000 0.29980  0.84260  0.61050  Biso   1.000  C
  H84      1.0000 0.29050  0.82670  0.58010  Biso   1.000  H
  C112     1.0000 0.32960  0.80500  0.64210  Biso   1.000  C
  H85      1.0000 0.33980  0.76380  0.63410  Biso   1.000  H
  C113     1.0000 0.60200  0.84460  0.75350  Biso   1.000  C
  H86      1.0000 0.56840  0.84160  0.73970  Biso   1.000  H
  H87      1.0000 0.61330  0.88830  0.74940  Biso   1.000  H
  H88      1.0000 0.61980  0.81370  0.73870  Biso   1.000  H
  C114     1.0000 0.61520  0.84310  0.90490  Biso   1.000  C
  C115     1.0000 0.64710  0.88040  0.94130  Biso   1.000  C
  C116     1.0000 0.63060  0.93930  0.95570  Biso   1.000  C
  H89      1.0000 0.60100  0.95640  0.94100  Biso   1.000  H
  C117     1.0000 0.65850  0.97130  0.99130  Biso   1.000  C
  H90      1.0000 0.64710  0.01020  0.00190  Biso   1.000  H
  C118     1.0000 0.71750  0.89500  0.99710  Biso   1.000  C
  H91      1.0000 0.74810  0.88030  0.01090  Biso   1.000  H
  C119     1.0000 0.69130  0.85870  0.96230  Biso   1.000  C
  H92      1.0000 0.70350  0.81950  0.95290  Biso   1.000  H
  C120     1.0000 0.54910  0.61960  0.02450  Biso   1.000  C
  H93      1.0000 0.55520  0.65960  0.00920  Biso   1.000  H
  H94      1.0000 0.54670  0.62900  0.05630  Biso   1.000  H
  H95      1.0000 0.57510  0.58930  0.02430  Biso   1.000  H
  C121     1.0000 0.39210  0.58700  0.95290  Biso   1.000  C
  C122     1.0000 0.35530  0.57440  0.98000  Biso   1.000  C
  C123     1.0000 0.31780  0.61550  0.97530  Biso   1.000  C
  H96      1.0000 0.31570  0.65140  0.95520  Biso   1.000  H
  C124     1.0000 0.28270  0.60380  0.00030  Biso   1.000  C
  H97      1.0000 0.25550  0.63040  0.99530  Biso   1.000  H
  C125     1.0000 0.32330  0.51760  0.03590  Biso   1.000  C
  H98      1.0000 0.32540  0.48340  0.05740  Biso   1.000  H
  C126     1.0000 0.35860  0.52490  0.01130  Biso   1.000  C
  H99      1.0000 0.38480  0.49640  0.01590  Biso   1.000  H
  C127     1.0000 0.97370  0.32050  0.25800  Biso   1.000  C
  C128     1.0000 0.94690  0.27280  0.23170  Biso   1.000  C
  H100     1.0000 0.96180  0.24150  0.21610  Biso   1.000  H
  C129     1.0000 0.89910  0.27160  0.22850  Biso   1.000  C
  C130     1.0000 0.87580  0.31520  0.25090  Biso   1.000  C
  C131     1.0000 0.90200  0.36380  0.27520  Biso   1.000  C
  H101     1.0000 0.88640  0.39580  0.28950  Biso   1.000  H
  C132     1.0000 0.95100  0.36700  0.27930  Biso   1.000  C
  C133     1.0000 0.97660  0.42110  0.30860  Biso   1.000  C
  H102     1.0000 0.95790  0.46120  0.30270  Biso   1.000  H
  H103     1.0000 0.00750  0.42870  0.30000  Biso   1.000  H
  C134     1.0000 0.98390  0.40440  0.35920  Biso   1.000  C
  C135     1.0000 0.94720  0.41730  0.38210  Biso   1.000  C
  H104     1.0000 0.91930  0.43760  0.36640  Biso   1.000  H
  C136     1.0000 0.95130  0.40080  0.42700  Biso   1.000  C
  C137     1.0000 0.99150  0.37000  0.45150  Biso   1.000  C
  C138     1.0000 0.02800  0.35850  0.42920  Biso   1.000  C
  H105     1.0000 0.05580  0.33840  0.44540  Biso   1.000  H
  C139     1.0000 0.02520  0.37580  0.38310  Biso   1.000  C
  C140     1.0000 0.06770  0.36280  0.36180  Biso   1.000  C
  H106     1.0000 0.06670  0.39230  0.33550  Biso   1.000  H
  H107     1.0000 0.09660  0.37270  0.38460  Biso   1.000  H
  C141     1.0000 0.07080  0.29300  0.34500  Biso   1.000  C
  C142     1.0000 0.09350  0.24880  0.37650  Biso   1.000  C
  H108     1.0000 0.10680  0.26230  0.40670  Biso   1.000  H
  C143     1.0000 0.09720  0.18470  0.36430  Biso   1.000  C
  C144     1.0000 0.07770  0.16290  0.32070  Biso   1.000  C
  C145     1.0000 0.05540  0.20850  0.28890  Biso   1.000  C
  H109     1.0000 0.04230  0.19490  0.25860  Biso   1.000  H
  C146     1.0000 0.05190  0.27260  0.30030  Biso   1.000  C
  C147     1.0000 0.02730  0.31670  0.26200  Biso   1.000  C
  H110     1.0000 0.04070  0.36050  0.26740  Biso   1.000  H
  H111     1.0000 0.03420  0.30120  0.23250  Biso   1.000  H
  C148     1.0000 0.80630  0.34110  0.28030  Biso   1.000  C
  H112     1.0000 0.80270  0.38640  0.27130  Biso   1.000  H
  H113     1.0000 0.77530  0.32240  0.28090  Biso   1.000  H
  H114     1.0000 0.82630  0.33780  0.31090  Biso   1.000  H
  C149     1.0000 0.84650  0.23350  0.16410  Biso   1.000  C
  C150     1.0000 0.82010  0.17590  0.14320  Biso   1.000  C
  C151     1.0000 0.78250  0.18390  0.10720  Biso   1.000  C
  H115     1.0000 0.77290  0.22560  0.09600  Biso   1.000  H
  C152     1.0000 0.75900  0.12940  0.08780  Biso   1.000  C
  H116     1.0000 0.73310  0.13480  0.06310  Biso   1.000  H
  C153     1.0000 0.80750  0.06250  0.13740  Biso   1.000  C
  H117     1.0000 0.81660  0.02030  0.14780  Biso   1.000  H
  C154     1.0000 0.83240  0.11440  0.15920  Biso   1.000  C
  H118     1.0000 0.85750  0.10800  0.18470  Biso   1.000  H
  C155     1.0000 0.05680  0.07540  0.26870  Biso   1.000  C
  H119     1.0000 0.07090  0.09240  0.24370  Biso   1.000  H
  H120     1.0000 0.05830  0.02820  0.26850  Biso   1.000  H
  H121     1.0000 0.02390  0.08920  0.26450  Biso   1.000  H
  C156     1.0000 0.10160  0.10830  0.42290  Biso   1.000  C
  C157     1.0000 0.13480  0.07190  0.45810  Biso   1.000  C
  C158     1.0000 0.11840  0.01780  0.47780  Biso   1.000  C
  H122     1.0000 0.08650  0.00420  0.46870  Biso   1.000  H
  C159     1.0000 0.14970  0.98390  0.51110  Biso   1.000  C
  H123     1.0000 0.13850  0.94730  0.52490  Biso   1.000  H
  C160     1.0000 0.21040  0.05330  0.50510  Biso   1.000  C
  H124     1.0000 0.24250  0.06550  0.51460  Biso   1.000  H
  C161     1.0000 0.18170  0.09000  0.47200  Biso   1.000  C
  H125     1.0000 0.19380  0.12670  0.45900  Biso   1.000  H
  C162     1.0000 0.03320  0.32810  0.52210  Biso   1.000  C
  H126     1.0000 0.05920  0.35830  0.52230  Biso   1.000  H
  H127     1.0000 0.02930  0.32020  0.55370  Biso   1.000  H
  H128     1.0000 0.04010  0.28740  0.50810  Biso   1.000  H
  C163     1.0000 0.91420  0.47250  0.47060  Biso   1.000  C
  C164     1.0000 0.87180  0.48200  0.49100  Biso   1.000  C
  C165     1.0000 0.87400  0.52420  0.52660  Biso   1.000  C
  H129     1.0000 0.90220  0.54760  0.53750  Biso   1.000  H
  C166     1.0000 0.83570  0.53260  0.54640  Biso   1.000  C
  H130     1.0000 0.83800  0.56130  0.57160  Biso   1.000  H
  C167     1.0000 0.79230  0.46140  0.49580  Biso   1.000  C
  H131     1.0000 0.76340  0.43980  0.48460  Biso   1.000  H
  C168     1.0000 0.82980  0.45020  0.47490  Biso   1.000  C
  H132     1.0000 0.82700  0.42120  0.44990  Biso   1.000  H
  Cu5      1.0000 0.25988  0.00369  0.93526  Biso   1.000  Cu
  O37      1.0000 0.65790  0.33010  0.24070  Biso   1.000  O
  N13      1.0000 0.71670  0.10050  0.37953  Biso   1.000  N
  C169     1.0000 0.54300  0.41430  0.21600  Biso   1.000  C
  Cu6      1.0000 0.76140  0.04932  0.42716  Biso   1.000  Cu
  O38      1.0000 0.39130  0.16980  0.19800  Biso   1.000  O
  N14      1.0000 0.22890  0.93070  0.89760  Biso   1.000  N
  O39      1.0000 0.42550  0.14420  0.10880  Biso   1.000  O
  O40      1.0000 0.87580  0.85700  0.60400  Biso   1.000  O
  O41      1.0000 0.61130  0.26390  0.29500  Biso   1.000  O
  N15      1.0000 0.29830  0.05040  0.98780  Biso   1.000  N
  C170     1.0000 0.59090  0.40020  0.21640  Biso   1.000  C
  H133     1.0000 0.60840  0.42730  0.20010  Biso   1.000  H
  O42      1.0000 0.61420  0.19290  0.23810  Biso   1.000  O
  N16      1.0000 0.71390  0.44300  0.96930  Biso   1.000  N
  C171     1.0000 0.61260  0.34740  0.24000  Biso   1.000  C
  C172     1.0000 0.58730  0.31060  0.26480  Biso   1.000  C
  O43      1.0000 0.36192  0.20650  0.10951  Biso   1.000  O
  N17      1.0000 0.80539  0.99900  0.47569  Biso   1.000  N
  C173     1.0000 0.54090  0.32210  0.26530  Biso   1.000  C
  H134     1.0000 0.52430  0.29530  0.28270  Biso   1.000  H
  N18      1.0000 0.20510  0.49840  0.46840  Biso   1.000  N
  C174     1.0000 0.51760  0.37470  0.23970  Biso   1.000  C
  O44      1.0000 0.49386  0.40820  0.99902  Biso   1.000  O
  C175     1.0000 0.46470  0.38110  0.23850  Biso   1.000  C
  H135     1.0000 0.45810  0.37050  0.26910  Biso   1.000  H
  H136     1.0000 0.45500  0.42630  0.23140  Biso   1.000  H
  O45      1.0000 0.57531  0.45860  0.04287  Biso   1.000  O
  C176     1.0000 0.43640  0.33710  0.20300  Biso   1.000  C
  O46      1.0000 0.60620  0.36610  0.06940  Biso   1.000  O
  C177     1.0000 0.42750  0.27540  0.21730  Biso   1.000  C
  H137     1.0000 0.43810  0.26380  0.24850  Biso   1.000  H
  O47      1.0000 0.17190  0.69370  0.75230  Biso   1.000  O
  C178     1.0000 0.40320  0.23050  0.18690  Biso   1.000  C
  O48      1.0000 0.12685  0.78000  0.79525  Biso   1.000  O
  C179     1.0000 0.38920  0.24930  0.14160  Biso   1.000  C
  O49      1.0000 0.15520  0.71470  0.85420  Biso   1.000  O
  C180     1.0000 0.39630  0.31000  0.12690  Biso   1.000  C
  H138     1.0000 0.38530  0.32110  0.09560  Biso   1.000  H
  O50      1.0000 0.91740  0.90060  0.68800  Biso   1.000  O
  C181     1.0000 0.41960  0.35600  0.15750  Biso   1.000  C
  C182     1.0000 0.42490  0.42440  0.13960  Biso   1.000  C
  H139     1.0000 0.39540  0.43620  0.11820  Biso   1.000  H
  H140     1.0000 0.42890  0.45470  0.16580  Biso   1.000  H
  O51      1.0000 0.94079  0.89320  0.58110  Biso   1.000  O
  C183     1.0000 0.46610  0.43320  0.11510  Biso   1.000  C
  O52      1.0000 0.00971  0.64500  0.50399  Biso   1.000  O
  C184     1.0000 0.45960  0.41700  0.06830  Biso   1.000  C
  H141     1.0000 0.42990  0.40090  0.05310  Biso   1.000  H
  O53      1.0000 0.08696  0.58550  0.55060  Biso   1.000  O
  C185     1.0000 0.49560  0.42410  0.04370  Biso   1.000  C
  O54      1.0000 0.05440  0.48960  0.52770  Biso   1.000  O
  C186     1.0000 0.53900  0.44940  0.06780  Biso   1.000  C
  C187     1.0000 0.54540  0.46670  0.11230  Biso   1.000  C
  H142     1.0000 0.57460  0.48490  0.12690  Biso   1.000  H
  C188     1.0000 0.50950  0.45810  0.13770  Biso   1.000  C
  C189     1.0000 0.52160  0.47200  0.18850  Biso   1.000  C
  H143     1.0000 0.49270  0.48530  0.19920  Biso   1.000  H
  H144     1.0000 0.54430  0.50830  0.19390  Biso   1.000  H
  C190     1.0000 0.68280  0.36530  0.21320  Biso   1.000  C
  H145     1.0000 0.66440  0.36740  0.18190  Biso   1.000  H
  H146     1.0000 0.71310  0.34420  0.21300  Biso   1.000  H
  H147     1.0000 0.68840  0.40900  0.22550  Biso   1.000  H
  C191     1.0000 0.62510  0.20880  0.27820  Biso   1.000  C
  C192     1.0000 0.65590  0.17030  0.31450  Biso   1.000  C
  C193     1.0000 0.67020  0.11070  0.30360  Biso   1.000  C
  H148     1.0000 0.65930  0.09270  0.27410  Biso   1.000  H
  C194     1.0000 0.70150  0.07690  0.33760  Biso   1.000  C
  H149     1.0000 0.71230  0.03560  0.33040  Biso   1.000  H
  C195     1.0000 0.70020  0.15740  0.38950  Biso   1.000  C
  H150     1.0000 0.70950  0.17330  0.41990  Biso   1.000  H
  C196     1.0000 0.67040  0.19500  0.35790  Biso   1.000  C
  H151     1.0000 0.66020  0.23620  0.36590  Biso   1.000  H
  C197     1.0000 0.39800  0.15540  0.24650  Biso   1.000  C
  H152     1.0000 0.43160  0.15840  0.26030  Biso   1.000  H
  H153     1.0000 0.38670  0.11170  0.25060  Biso   1.000  H
  H154     1.0000 0.38020  0.18630  0.26130  Biso   1.000  H
  C198     1.0000 0.38480  0.15690  0.09510  Biso   1.000  C
  C199     1.0000 0.35290  0.11960  0.05870  Biso   1.000  C
  C200     1.0000 0.36940  0.06070  0.04430  Biso   1.000  C
  H155     1.0000 0.39900  0.04360  0.05900  Biso   1.000  H
  C201     1.0000 0.34150  0.02870  0.00870  Biso   1.000  C
  H156     1.0000 0.35290  0.98980  0.99810  Biso   1.000  H
  C202     1.0000 0.28250  0.10500  0.00290  Biso   1.000  C
  H157     1.0000 0.25190  0.11970  0.98910  Biso   1.000  H
  C203     1.0000 0.30870  0.14130  0.03770  Biso   1.000  C
  H158     1.0000 0.29650  0.18050  0.04710  Biso   1.000  H
  C204     1.0000 0.45090  0.38040  0.97550  Biso   1.000  C
  H159     1.0000 0.44480  0.34040  0.99080  Biso   1.000  H
  H160     1.0000 0.45330  0.37100  0.94370  Biso   1.000  H
  H161     1.0000 0.42490  0.41070  0.97570  Biso   1.000  H
  C205     1.0000 0.60790  0.41300  0.04710  Biso   1.000  C
  C206     1.0000 0.64470  0.42560  0.02000  Biso   1.000  C
  C207     1.0000 0.68220  0.38450  0.02470  Biso   1.000  C
  H162     1.0000 0.68430  0.34860  0.04480  Biso   1.000  H
  C208     1.0000 0.71730  0.39620  0.99970  Biso   1.000  C
  H163     1.0000 0.74450  0.36960  0.00470  Biso   1.000  H
  C209     1.0000 0.67670  0.48240  0.96410  Biso   1.000  C
  H164     1.0000 0.67460  0.51660  0.94260  Biso   1.000  H
  C210     1.0000 0.64140  0.47510  0.98870  Biso   1.000  C
  H165     1.0000 0.61520  0.50360  0.98410  Biso   1.000  H
  C211     1.0000 0.02630  0.67950  0.74200  Biso   1.000  C
  C212     1.0000 0.05310  0.72720  0.76830  Biso   1.000  C
  H166     1.0000 0.03820  0.75850  0.78390  Biso   1.000  H
  C213     1.0000 0.10090  0.72840  0.77150  Biso   1.000  C
  C214     1.0000 0.12420  0.68480  0.74910  Biso   1.000  C
  C215     1.0000 0.09800  0.63620  0.72480  Biso   1.000  C
  H167     1.0000 0.11360  0.60420  0.71050  Biso   1.000  H
  C216     1.0000 0.04900  0.63300  0.72070  Biso   1.000  C
  C217     1.0000 0.02340  0.57890  0.69140  Biso   1.000  C
  H168     1.0000 0.04210  0.53880  0.69730  Biso   1.000  H
  H169     1.0000 0.99250  0.57130  0.70000  Biso   1.000  H
  C218     1.0000 0.01610  0.59560  0.64080  Biso   1.000  C
  C219     1.0000 0.05280  0.58270  0.61790  Biso   1.000  C
  H170     1.0000 0.08070  0.56240  0.63360  Biso   1.000  H
  C220     1.0000 0.04870  0.59920  0.57300  Biso   1.000  C
  C221     1.0000 0.00850  0.63000  0.54850  Biso   1.000  C
  C222     1.0000 0.97200  0.64150  0.57080  Biso   1.000  C
  H171     1.0000 0.94420  0.66160  0.55460  Biso   1.000  H
  C223     1.0000 0.97480  0.62420  0.61690  Biso   1.000  C
  C224     1.0000 0.93230  0.63720  0.63820  Biso   1.000  C
  H172     1.0000 0.93330  0.60770  0.66450  Biso   1.000  H
  H173     1.0000 0.90340  0.62730  0.61540  Biso   1.000  H
  C225     1.0000 0.92920  0.70700  0.65500  Biso   1.000  C
  C226     1.0000 0.90650  0.75120  0.62350  Biso   1.000  C
  H174     1.0000 0.89320  0.73770  0.59330  Biso   1.000  H
  C227     1.0000 0.90280  0.81530  0.63570  Biso   1.000  C
  C228     1.0000 0.92230  0.83710  0.67930  Biso   1.000  C
  C229     1.0000 0.94460  0.79150  0.71110  Biso   1.000  C
  H175     1.0000 0.95770  0.80510  0.74140  Biso   1.000  H
  C230     1.0000 0.94810  0.72740  0.69970  Biso   1.000  C
  C231     1.0000 0.97270  0.68330  0.73800  Biso   1.000  C
  H176     1.0000 0.95930  0.63950  0.73260  Biso   1.000  H
  H177     1.0000 0.96580  0.69880  0.76750  Biso   1.000  H
  C232     1.0000 0.19370  0.65890  0.71970  Biso   1.000  C
  H178     1.0000 0.19730  0.61360  0.72870  Biso   1.000  H
  H179     1.0000 0.22470  0.67760  0.71910  Biso   1.000  H
  H180     1.0000 0.17370  0.66220  0.68910  Biso   1.000  H
  C233     1.0000 0.15350  0.76650  0.83590  Biso   1.000  C
  C234     1.0000 0.17990  0.82410  0.85680  Biso   1.000  C
  C235     1.0000 0.21750  0.81610  0.89280  Biso   1.000  C
  H181     1.0000 0.22710  0.77440  0.90400  Biso   1.000  H
  C236     1.0000 0.24100  0.87060  0.91220  Biso   1.000  C
  H182     1.0000 0.26690  0.86520  0.93690  Biso   1.000  H
  C237     1.0000 0.19250  0.93750  0.86260  Biso   1.000  C
  H183     1.0000 0.18340  0.97970  0.85220  Biso   1.000  H
  C238     1.0000 0.16760  0.88560  0.84080  Biso   1.000  C
  H184     1.0000 0.14250  0.89200  0.81530  Biso   1.000  H
  C239     1.0000 0.94320  0.92460  0.73130  Biso   1.000  C
  H185     1.0000 0.92910  0.90760  0.75630  Biso   1.000  H
  H186     1.0000 0.94170  0.97180  0.73150  Biso   1.000  H
  H187     1.0000 0.97610  0.91080  0.73550  Biso   1.000  H
  C240     1.0000 0.89840  0.89170  0.57710  Biso   1.000  C
  C241     1.0000 0.86520  0.92810  0.54190  Biso   1.000  C
  C242     1.0000 0.88160  0.98220  0.52220  Biso   1.000  C
  H188     1.0000 0.91350  0.99580  0.53130  Biso   1.000  H
  C243     1.0000 0.85030  0.01610  0.48890  Biso   1.000  C
  H189     1.0000 0.86150  0.05270  0.47510  Biso   1.000  H
  C244     1.0000 0.78960  0.94670  0.49490  Biso   1.000  C
  H190     1.0000 0.75750  0.93450  0.48540  Biso   1.000  H
  C245     1.0000 0.81830  0.91000  0.52800  Biso   1.000  C
  H191     1.0000 0.80620  0.87330  0.54100  Biso   1.000  H
  C246     1.0000 0.96680  0.67190  0.47790  Biso   1.000  C
  H192     1.0000 0.94080  0.64170  0.47770  Biso   1.000  H
  H193     1.0000 0.97070  0.67980  0.44630  Biso   1.000  H
  H194     1.0000 0.95990  0.71260  0.49190  Biso   1.000  H
  C247     1.0000 0.08580  0.52750  0.52940  Biso   1.000  C
  C248     1.0000 0.12820  0.51800  0.50900  Biso   1.000  C
  C249     1.0000 0.12600  0.47580  0.47340  Biso   1.000  C
  H195     1.0000 0.09780  0.45240  0.46250  Biso   1.000  H
  C250     1.0000 0.16430  0.46740  0.45360  Biso   1.000  C
  H196     1.0000 0.16200  0.43870  0.42840  Biso   1.000  H
  C251     1.0000 0.20770  0.53860  0.50420  Biso   1.000  C
  H197     1.0000 0.23660  0.56020  0.51540  Biso   1.000  H
  C252     1.0000 0.17020  0.54980  0.52510  Biso   1.000  C
  H198     1.0000 0.17300  0.57880  0.55010  Biso   1.000  H
  Cu7      1.0000 0.25988  0.49631  0.43526  Biso   1.000  Cu
  O55      1.0000 0.65790  0.16990  0.74070  Biso   1.000  O
  N19      1.0000 0.71670  0.39950  0.87953  Biso   1.000  N
  C253     1.0000 0.54300  0.08570  0.71600  Biso   1.000  C
  Cu8      1.0000 0.76140  0.45068  0.92716  Biso   1.000  Cu
  O56      1.0000 0.39130  0.33020  0.69800  Biso   1.000  O
  N20      1.0000 0.22890  0.56930  0.39760  Biso   1.000  N
  O57      1.0000 0.42550  0.35580  0.60880  Biso   1.000  O
  O58      1.0000 0.87580  0.64300  0.10400  Biso   1.000  O
  O59      1.0000 0.61130  0.23610  0.79500  Biso   1.000  O
  N21      1.0000 0.29830  0.44960  0.48780  Biso   1.000  N
  C254     1.0000 0.59090  0.09980  0.71640  Biso   1.000  C
  H199     1.0000 0.60840  0.07270  0.70010  Biso   1.000  H
  O60      1.0000 0.61420  0.30710  0.73810  Biso   1.000  O
  N22      1.0000 0.71390  0.05700  0.46930  Biso   1.000  N
  C255     1.0000 0.61260  0.15260  0.74000  Biso   1.000  C
  C256     1.0000 0.58730  0.18940  0.76480  Biso   1.000  C
  O61      1.0000 0.36192  0.29350  0.60951  Biso   1.000  O
  N23      1.0000 0.80539  0.50100  0.97569  Biso   1.000  N
  C257     1.0000 0.54090  0.17790  0.76530  Biso   1.000  C
  H200     1.0000 0.52430  0.20470  0.78270  Biso   1.000  H
  N24      1.0000 0.20510  0.00160  0.96840  Biso   1.000  N
  C258     1.0000 0.51760  0.12530  0.73970  Biso   1.000  C
  O62      1.0000 0.49386  0.09180  0.49902  Biso   1.000  O
  C259     1.0000 0.46470  0.11890  0.73850  Biso   1.000  C
  H201     1.0000 0.45810  0.12950  0.76910  Biso   1.000  H
  H202     1.0000 0.45500  0.07370  0.73140  Biso   1.000  H
  O63      1.0000 0.57531  0.04140  0.54287  Biso   1.000  O
  C260     1.0000 0.43640  0.16290  0.70300  Biso   1.000  C
  O64      1.0000 0.60620  0.13390  0.56940  Biso   1.000  O
  C261     1.0000 0.42750  0.22460  0.71730  Biso   1.000  C
  H203     1.0000 0.43810  0.23620  0.74850  Biso   1.000  H
  O65      1.0000 0.17190  0.80630  0.25230  Biso   1.000  O
  C262     1.0000 0.40320  0.26950  0.68690  Biso   1.000  C
  O66      1.0000 0.12685  0.72000  0.29525  Biso   1.000  O
  C263     1.0000 0.38920  0.25070  0.64160  Biso   1.000  C
  O67      1.0000 0.15520  0.78530  0.35420  Biso   1.000  O
  C264     1.0000 0.39630  0.19000  0.62690  Biso   1.000  C
  H204     1.0000 0.38530  0.17890  0.59560  Biso   1.000  H
  O68      1.0000 0.91740  0.59940  0.18800  Biso   1.000  O
  C265     1.0000 0.41960  0.14400  0.65750  Biso   1.000  C
  C266     1.0000 0.42490  0.07560  0.63960  Biso   1.000  C
  H205     1.0000 0.39540  0.06380  0.61820  Biso   1.000  H
  H206     1.0000 0.42890  0.04530  0.66580  Biso   1.000  H
  O69      1.0000 0.94079  0.60680  0.08110  Biso   1.000  O
  C267     1.0000 0.46610  0.06680  0.61510  Biso   1.000  C
  O70      1.0000 0.00971  0.85500  0.00399  Biso   1.000  O
  C268     1.0000 0.45960  0.08300  0.56830  Biso   1.000  C
  H207     1.0000 0.42990  0.09910  0.55310  Biso   1.000  H
  O71      1.0000 0.08696  0.91450  0.05060  Biso   1.000  O
  C269     1.0000 0.49560  0.07590  0.54370  Biso   1.000  C
  O72      1.0000 0.05440  0.01040  0.02770  Biso   1.000  O
  C270     1.0000 0.53900  0.05060  0.56780  Biso   1.000  C
  C271     1.0000 0.54540  0.03330  0.61230  Biso   1.000  C
  H208     1.0000 0.57460  0.01510  0.62690  Biso   1.000  H
  C272     1.0000 0.50950  0.04190  0.63770  Biso   1.000  C
  C273     1.0000 0.52160  0.02800  0.68850  Biso   1.000  C
  H209     1.0000 0.49270  0.01470  0.69920  Biso   1.000  H
  H210     1.0000 0.54430  0.99170  0.69390  Biso   1.000  H
  C274     1.0000 0.68280  0.13470  0.71320  Biso   1.000  C
  H211     1.0000 0.66440  0.13260  0.68190  Biso   1.000  H
  H212     1.0000 0.71310  0.15580  0.71300  Biso   1.000  H
  H213     1.0000 0.68840  0.09100  0.72550  Biso   1.000  H
  C275     1.0000 0.62510  0.29120  0.77820  Biso   1.000  C
  C276     1.0000 0.65590  0.32970  0.81450  Biso   1.000  C
  C277     1.0000 0.67020  0.38930  0.80360  Biso   1.000  C
  H214     1.0000 0.65930  0.40730  0.77410  Biso   1.000  H
  C278     1.0000 0.70150  0.42310  0.83760  Biso   1.000  C
  H215     1.0000 0.71230  0.46440  0.83040  Biso   1.000  H
  C279     1.0000 0.70020  0.34260  0.88950  Biso   1.000  C
  H216     1.0000 0.70950  0.32670  0.91990  Biso   1.000  H
  C280     1.0000 0.67040  0.30500  0.85790  Biso   1.000  C
  H217     1.0000 0.66020  0.26380  0.86590  Biso   1.000  H
  C281     1.0000 0.39800  0.34460  0.74650  Biso   1.000  C
  H218     1.0000 0.43160  0.34160  0.76030  Biso   1.000  H
  H219     1.0000 0.38670  0.38830  0.75060  Biso   1.000  H
  H220     1.0000 0.38020  0.31370  0.76130  Biso   1.000  H
  C282     1.0000 0.38480  0.34310  0.59510  Biso   1.000  C
  C283     1.0000 0.35290  0.38040  0.55870  Biso   1.000  C
  C284     1.0000 0.36940  0.43930  0.54430  Biso   1.000  C
  H221     1.0000 0.39900  0.45640  0.55900  Biso   1.000  H
  C285     1.0000 0.34150  0.47130  0.50870  Biso   1.000  C
  H222     1.0000 0.35290  0.51020  0.49810  Biso   1.000  H
  C286     1.0000 0.28250  0.39500  0.50290  Biso   1.000  C
  H223     1.0000 0.25190  0.38030  0.48910  Biso   1.000  H
  C287     1.0000 0.30870  0.35870  0.53770  Biso   1.000  C
  H224     1.0000 0.29650  0.31950  0.54710  Biso   1.000  H
  C288     1.0000 0.45090  0.11960  0.47550  Biso   1.000  C
  H225     1.0000 0.44480  0.15960  0.49080  Biso   1.000  H
  H226     1.0000 0.45330  0.12900  0.44370  Biso   1.000  H
  H227     1.0000 0.42490  0.08930  0.47570  Biso   1.000  H
  C289     1.0000 0.60790  0.08700  0.54710  Biso   1.000  C
  C290     1.0000 0.64470  0.07440  0.52000  Biso   1.000  C
  C291     1.0000 0.68220  0.11550  0.52470  Biso   1.000  C
  H228     1.0000 0.68430  0.15140  0.54480  Biso   1.000  H
  C292     1.0000 0.71730  0.10380  0.49970  Biso   1.000  C
  H229     1.0000 0.74450  0.13040  0.50470  Biso   1.000  H
  C293     1.0000 0.67670  0.01760  0.46410  Biso   1.000  C
  H230     1.0000 0.67460  0.98340  0.44260  Biso   1.000  H
  C294     1.0000 0.64140  0.02490  0.48870  Biso   1.000  C
  H231     1.0000 0.61520  0.99640  0.48410  Biso   1.000  H
  C295     1.0000 0.02630  0.82050  0.24200  Biso   1.000  C
  C296     1.0000 0.05310  0.77280  0.26830  Biso   1.000  C
  H232     1.0000 0.03820  0.74150  0.28390  Biso   1.000  H
  C297     1.0000 0.10090  0.77160  0.27150  Biso   1.000  C
  C298     1.0000 0.12420  0.81520  0.24910  Biso   1.000  C
  C299     1.0000 0.09800  0.86380  0.22480  Biso   1.000  C
  H233     1.0000 0.11360  0.89580  0.21050  Biso   1.000  H
  C300     1.0000 0.04900  0.86700  0.22070  Biso   1.000  C
  C301     1.0000 0.02340  0.92110  0.19140  Biso   1.000  C
  H234     1.0000 0.04210  0.96120  0.19730  Biso   1.000  H
  H235     1.0000 0.99250  0.92870  0.20000  Biso   1.000  H
  C302     1.0000 0.01610  0.90440  0.14080  Biso   1.000  C
  C303     1.0000 0.05280  0.91730  0.11790  Biso   1.000  C
  H236     1.0000 0.08070  0.93760  0.13360  Biso   1.000  H
  C304     1.0000 0.04870  0.90080  0.07300  Biso   1.000  C
  C305     1.0000 0.00850  0.87000  0.04850  Biso   1.000  C
  C306     1.0000 0.97200  0.85850  0.07080  Biso   1.000  C
  H237     1.0000 0.94420  0.83840  0.05460  Biso   1.000  H
  C307     1.0000 0.97480  0.87580  0.11690  Biso   1.000  C
  C308     1.0000 0.93230  0.86280  0.13820  Biso   1.000  C
  H238     1.0000 0.93330  0.89230  0.16450  Biso   1.000  H
  H239     1.0000 0.90340  0.87270  0.11540  Biso   1.000  H
  C309     1.0000 0.92920  0.79300  0.15500  Biso   1.000  C
  C310     1.0000 0.90650  0.74880  0.12350  Biso   1.000  C
  H240     1.0000 0.89320  0.76230  0.09330  Biso   1.000  H
  C311     1.0000 0.90280  0.68470  0.13570  Biso   1.000  C
  C312     1.0000 0.92230  0.66290  0.17930  Biso   1.000  C
  C313     1.0000 0.94460  0.70850  0.21110  Biso   1.000  C
  H241     1.0000 0.95770  0.69490  0.24140  Biso   1.000  H
  C314     1.0000 0.94810  0.77260  0.19970  Biso   1.000  C
  C315     1.0000 0.97270  0.81670  0.23800  Biso   1.000  C
  H242     1.0000 0.95930  0.86050  0.23260  Biso   1.000  H
  H243     1.0000 0.96580  0.80120  0.26750  Biso   1.000  H
  C316     1.0000 0.19370  0.84110  0.21970  Biso   1.000  C
  H244     1.0000 0.19730  0.88640  0.22870  Biso   1.000  H
  H245     1.0000 0.22470  0.82240  0.21910  Biso   1.000  H
  H246     1.0000 0.17370  0.83780  0.18910  Biso   1.000  H
  C317     1.0000 0.15350  0.73350  0.33590  Biso   1.000  C
  C318     1.0000 0.17990  0.67590  0.35680  Biso   1.000  C
  C319     1.0000 0.21750  0.68390  0.39280  Biso   1.000  C
  H247     1.0000 0.22710  0.72560  0.40400  Biso   1.000  H
  C320     1.0000 0.24100  0.62940  0.41220  Biso   1.000  C
  H248     1.0000 0.26690  0.63480  0.43690  Biso   1.000  H
  C321     1.0000 0.19250  0.56250  0.36260  Biso   1.000  C
  H249     1.0000 0.18340  0.52030  0.35220  Biso   1.000  H
  C322     1.0000 0.16760  0.61440  0.34080  Biso   1.000  C
  H250     1.0000 0.14250  0.60800  0.31530  Biso   1.000  H
  C323     1.0000 0.94320  0.57540  0.23130  Biso   1.000  C
  H251     1.0000 0.92910  0.59240  0.25630  Biso   1.000  H
  H252     1.0000 0.94170  0.52820  0.23150  Biso   1.000  H
  H253     1.0000 0.97610  0.58920  0.23550  Biso   1.000  H
  C324     1.0000 0.89840  0.60830  0.07710  Biso   1.000  C
  C325     1.0000 0.86520  0.57190  0.04190  Biso   1.000  C
  C326     1.0000 0.88160  0.51780  0.02220  Biso   1.000  C
  H254     1.0000 0.91350  0.50420  0.03130  Biso   1.000  H
  C327     1.0000 0.85030  0.48390  0.98890  Biso   1.000  C
  H255     1.0000 0.86150  0.44730  0.97510  Biso   1.000  H
  C328     1.0000 0.78960  0.55330  0.99490  Biso   1.000  C
  H256     1.0000 0.75750  0.56550  0.98540  Biso   1.000  H
  C329     1.0000 0.81830  0.59000  0.02800  Biso   1.000  C
  H257     1.0000 0.80620  0.62670  0.04100  Biso   1.000  H
  C330     1.0000 0.96680  0.82810  0.97790  Biso   1.000  C
  H258     1.0000 0.94080  0.85830  0.97770  Biso   1.000  H
  H259     1.0000 0.97070  0.82020  0.94630  Biso   1.000  H
  H260     1.0000 0.95990  0.78740  0.99190  Biso   1.000  H
  C331     1.0000 0.08580  0.97250  0.02940  Biso   1.000  C
  C332     1.0000 0.12820  0.98200  0.00900  Biso   1.000  C
  C333     1.0000 0.12600  0.02420  0.97340  Biso   1.000  C
  H261     1.0000 0.09780  0.04760  0.96250  Biso   1.000  H
  C334     1.0000 0.16430  0.03260  0.95360  Biso   1.000  C
  H262     1.0000 0.16200  0.06130  0.92840  Biso   1.000  H
  C335     1.0000 0.20770  0.96140  0.00420  Biso   1.000  C
  H263     1.0000 0.23660  0.93980  0.01540  Biso   1.000  H
  C336     1.0000 0.17020  0.95020  0.02510  Biso   1.000  C
  H264     1.0000 0.17300  0.92120  0.05010  Biso   1.000  H
