data_image0
_cell_length_a       34.967
_cell_length_b       21.6125
_cell_length_c       41.296
_cell_angle_alpha    90
_cell_angle_beta     90
_cell_angle_gamma    90

_symmetry_space_group_name_H-M    "P 1"
_symmetry_int_tables_number       1

loop_
  _symmetry_equiv_pos_as_xyz
  'x, y, z'

loop_
  _atom_site_label
  _atom_site_occupancy
  _atom_site_fract_x
  _atom_site_fract_y
  _atom_site_fract_z
  _atom_site_thermal_displace_type
  _atom_site_B_iso_or_equiv
  _atom_site_type_symbol
  Gd1      1.0000 0.27660  0.06248  0.04341  Biso   1.000  Gd
  Gd2      1.0000 0.52233  0.27573  0.89407  Biso   1.000  Gd
  Gd3      1.0000 0.44891  0.14542  0.83986  Biso   1.000  Gd
  Gd4      1.0000 0.59304  0.35301  0.14623  Biso   1.000  Gd
  Gd5      1.0000 0.35367  0.78027  0.92994  Biso   1.000  Gd
  Gd6      1.0000 0.34570  0.94007  0.98324  Biso   1.000  Gd
  C1       1.0000 0.27420  0.25680  0.06170  Biso   1.000  C
  C2       1.0000 0.27300  0.18810  0.05700  Biso   1.000  C
  O1       1.0000 0.24940  0.16710  0.03740  Biso   1.000  O
  O2       1.0000 0.29270  0.15530  0.07500  Biso   1.000  O
  C3       1.0000 0.24950  0.29490  0.04510  Biso   1.000  C
  H1       1.0000 0.23120  0.27750  0.03150  Biso   1.000  H
  C4       1.0000 0.25120  0.35930  0.04830  Biso   1.000  C
  C5       1.0000 0.22340  0.39980  0.03040  Biso   1.000  C
  O3       1.0000 0.22540  0.45790  0.03610  Biso   1.000  O
  O4       1.0000 0.19980  0.37480  0.01060  Biso   1.000  O
  C6       1.0000 0.27900  0.38610  0.06640  Biso   1.000  C
  H2       1.0000 0.28120  0.42900  0.06750  Biso   1.000  H
  C7       1.0000 0.30460  0.34730  0.08360  Biso   1.000  C
  C8       1.0000 0.33160  0.37390  0.10290  Biso   1.000  C
  N1       1.0000 0.35750  0.39330  0.11940  Biso   1.000  N
  C9       1.0000 0.38600  0.33080  0.81840  Biso   1.000  C
  H3       1.0000 0.38210  0.28840  0.81620  Biso   1.000  H
  C10      1.0000 0.30120  0.28430  0.08090  Biso   1.000  C
  H4       1.0000 0.31790  0.25930  0.09260  Biso   1.000  H
  C11      1.0000 0.37710  0.14960  0.98610  Biso   1.000  C
  C12      1.0000 0.34880  0.10000  0.99720  Biso   1.000  C
  O5       1.0000 0.32210  0.11520  0.01460  Biso   1.000  O
  O6       1.0000 0.35570  0.04590  0.98770  Biso   1.000  O
  C13      1.0000 0.39790  0.14290  0.95870  Biso   1.000  C
  H5       1.0000 0.39620  0.10680  0.94650  Biso   1.000  H
  C14      1.0000 0.42240  0.19130  0.94890  Biso   1.000  C
  C15      1.0000 0.44190  0.19040  0.91730  Biso   1.000  C
  O7       1.0000 0.46960  0.22890  0.91350  Biso   1.000  O
  O8       1.0000 0.43100  0.15400  0.89600  Biso   1.000  O
  C16      1.0000 0.42650  0.24130  0.96950  Biso   1.000  C
  H6       1.0000 0.44210  0.27400  0.96320  Biso   1.000  H
  C17      1.0000 0.40800  0.24460  0.99920  Biso   1.000  C
  C18      1.0000 0.40930  0.30020  0.01860  Biso   1.000  C
  N2       1.0000 0.41310  0.34320  0.03450  Biso   1.000  N
  C19      1.0000 0.38190  0.19850  0.00820  Biso   1.000  C
  H7       1.0000 0.36860  0.20010  0.02760  Biso   1.000  H
  C20      1.0000 0.55490  0.06640  0.88940  Biso   1.000  C
  C21      1.0000 0.53030  0.12380  0.88680  Biso   1.000  C
  O9       1.0000 0.54090  0.17030  0.90170  Biso   1.000  O
  O10      1.0000 0.50350  0.11850  0.86740  Biso   1.000  O
  C22      1.0000 0.58420  0.06320  0.91240  Biso   1.000  C
  H8       1.0000 0.58830  0.09720  0.92570  Biso   1.000  H
  C23      1.0000 0.60800  0.01060  0.91620  Biso   1.000  C
  C24      1.0000 0.63930  0.00960  0.93980  Biso   1.000  C
  O11      1.0000 0.63710  0.04930  0.96290  Biso   1.000  O
  O12      1.0000 0.66400  0.96930  0.93670  Biso   1.000  O
  C25      1.0000 0.60200  0.96060  0.89870  Biso   1.000  C
  H9       1.0000 0.61690  0.92550  0.90180  Biso   1.000  H
  C26      1.0000 0.57190  0.96070  0.87440  Biso   1.000  C
  C27      1.0000 0.56200  0.90200  0.86620  Biso   1.000  C
  N3       1.0000 0.55800  0.87100  0.84380  Biso   1.000  N
  C28      1.0000 0.54860  0.01670  0.87020  Biso   1.000  C
  H10      1.0000 0.52950  0.01790  0.85450  Biso   1.000  H
  C29      1.0000 0.52200  0.35280  0.99000  Biso   1.000  C
  C30      1.0000 0.52200  0.32830  0.95710  Biso   1.000  C
  O13      1.0000 0.49900  0.35080  0.93560  Biso   1.000  O
  O14      1.0000 0.54350  0.28390  0.94960  Biso   1.000  O
  C31      1.0000 0.54700  0.33200  0.01320  Biso   1.000  C
  H11      1.0000 0.56330  0.29960  0.00800  Biso   1.000  H
  C32      1.0000 0.54890  0.35650  0.04370  Biso   1.000  C
  C33      1.0000 0.57720  0.33270  0.06580  Biso   1.000  C
  O15      1.0000 0.58490  0.36670  0.09040  Biso   1.000  O
  O16      1.0000 0.59280  0.28060  0.06160  Biso   1.000  O
  C34      1.0000 0.52330  0.40200  0.05220  Biso   1.000  C
  H12      1.0000 0.52420  0.41870  0.07300  Biso   1.000  H
  C35      1.0000 0.49580  0.42350  0.03020  Biso   1.000  C
  C36      1.0000 0.46850  0.47230  0.04020  Biso   1.000  C
  N4       1.0000 0.44780  0.50870  0.04800  Biso   1.000  N
  C37      1.0000 0.49540  0.40010  0.99940  Biso   1.000  C
  H13      1.0000 0.47780  0.41510  0.98440  Biso   1.000  H
  C38      1.0000 0.55780  0.23260  0.79290  Biso   1.000  C
  C39      1.0000 0.52600  0.21530  0.81370  Biso   1.000  C
  O17      1.0000 0.52630  0.24350  0.84190  Biso   1.000  O
  O18      1.0000 0.50110  0.17950  0.80520  Biso   1.000  O
  C40      1.0000 0.56080  0.20430  0.76190  Biso   1.000  C
  H14      1.0000 0.54240  0.17630  0.75480  Biso   1.000  H
  C41      1.0000 0.59180  0.21970  0.74260  Biso   1.000  C
  C42      1.0000 0.59440  0.19090  0.70920  Biso   1.000  C
  O19      1.0000 0.56460  0.16320  0.69870  Biso   1.000  O
  O20      1.0000 0.62450  0.19840  0.69270  Biso   1.000  O
  C43      1.0000 0.61960  0.25840  0.75220  Biso   1.000  C
  H15      1.0000 0.64150  0.26650  0.74010  Biso   1.000  H
  C44      1.0000 0.61260  0.28500  0.78200  Biso   1.000  C
  C45      1.0000 0.64180  0.32100  0.79200  Biso   1.000  C
  N5       1.0000 0.66270  0.35900  0.80020  Biso   1.000  N
  C46      1.0000 0.58520  0.27260  0.80320  Biso   1.000  C
  H16      1.0000 0.58470  0.29010  0.82380  Biso   1.000  H
  C47      1.0000 0.45190  0.94740  0.82900  Biso   1.000  C
  C48      1.0000 0.44950  0.01540  0.83150  Biso   1.000  C
  O21      1.0000 0.46640  0.04940  0.81150  Biso   1.000  O
  O22      1.0000 0.43040  0.03790  0.85440  Biso   1.000  O
  C49      1.0000 0.43510  0.91110  0.85070  Biso   1.000  C
  H17      1.0000 0.42160  0.92900  0.86770  Biso   1.000  H
  C50      1.0000 0.43720  0.84490  0.84850  Biso   1.000  C
  C51      1.0000 0.41530  0.80660  0.87260  Biso   1.000  C
  O23      1.0000 0.40110  0.82960  0.89770  Biso   1.000  O
  O24      1.0000 0.41390  0.75000  0.86600  Biso   1.000  O
  C52      1.0000 0.45530  0.82150  0.82300  Biso   1.000  C
  H18      1.0000 0.45540  0.77880  0.82020  Biso   1.000  H
  C53      1.0000 0.47400  0.85870  0.80020  Biso   1.000  C
  C54      1.0000 0.49500  0.83230  0.77370  Biso   1.000  C
  N6       1.0000 0.51250  0.81390  0.75170  Biso   1.000  N
  C55      1.0000 0.47120  0.92060  0.80340  Biso   1.000  C
  H19      1.0000 0.48250  0.94600  0.78790  Biso   1.000  H
  C56      1.0000 0.24180  0.02940  0.93400  Biso   1.000  C
  C57      1.0000 0.26430  0.02140  0.96480  Biso   1.000  C
  O25      1.0000 0.25660  0.05490  0.98850  Biso   1.000  O
  O26      1.0000 0.28840  0.97450  0.96580  Biso   1.000  O
  C58      1.0000 0.21880  0.07860  0.93130  Biso   1.000  C
  H20      1.0000 0.21540  0.10520  0.94880  Biso   1.000  H
  C59      1.0000 0.20040  0.08960  0.90300  Biso   1.000  C
  C60      1.0000 0.17360  0.14530  0.89830  Biso   1.000  C
  O27      1.0000 0.17270  0.18180  0.92110  Biso   1.000  O
  O28      1.0000 0.15430  0.15160  0.87260  Biso   1.000  O
  C61      1.0000 0.20480  0.05040  0.87520  Biso   1.000  C
  H21      1.0000 0.19280  0.05940  0.85570  Biso   1.000  H
  C62      1.0000 0.22780  0.99900  0.87860  Biso   1.000  C
  C63      1.0000 0.23470  0.95940  0.85140  Biso   1.000  C
  N7       1.0000 0.23950  0.92780  0.83090  Biso   1.000  N
  C64      1.0000 0.24760  0.99250  0.90720  Biso   1.000  C
  H22      1.0000 0.26600  0.96150  0.90860  Biso   1.000  H
  C65      1.0000 0.41730  0.35070  0.83510  Biso   1.000  C
  C66      1.0000 0.44640  0.30710  0.85110  Biso   1.000  C
  O29      1.0000 0.47180  0.32800  0.86820  Biso   1.000  O
  O30      1.0000 0.44040  0.25050  0.84290  Biso   1.000  O
  C67      1.0000 0.41980  0.41400  0.84130  Biso   1.000  C
  H23      1.0000 0.43970  0.42840  0.85420  Biso   1.000  H
  C68      1.0000 0.39470  0.45490  0.82930  Biso   1.000  C
  C69      1.0000 0.39920  0.52200  0.83600  Biso   1.000  C
  O31      1.0000 0.42510  0.54000  0.85430  Biso   1.000  O
  O32      1.0000 0.37540  0.56140  0.82370  Biso   1.000  O
  C70      1.0000 0.36520  0.43480  0.81030  Biso   1.000  C
  H24      1.0000 0.34860  0.46350  0.80100  Biso   1.000  H
  C71      1.0000 0.35950  0.37130  0.80450  Biso   1.000  C
  C72      1.0000 0.32720  0.34700  0.78400  Biso   1.000  C
  N8       1.0000 0.30380  0.32930  0.76740  Biso   1.000  N
  O33      1.0000 0.34170  0.89000  0.93010  Biso   1.000  O
  C73      1.0000 0.34990  0.93900  0.91170  Biso   1.000  C
  H25      1.0000 0.35120  0.93520  0.88930  Biso   1.000  H
  O34      1.0000 0.35540  0.98610  0.92380  Biso   1.000  O
  O35      1.0000 0.36790  0.83350  0.98140  Biso   1.000  O
  C74      1.0000 0.35840  0.78540  0.99950  Biso   1.000  C
  H26      1.0000 0.35940  0.78920  0.02190  Biso   1.000  H
  O36      1.0000 0.34830  0.73600  0.98770  Biso   1.000  O
  Gd7      1.0000 0.22340  0.93752  0.54341  Biso   1.000  Gd
  Gd8      1.0000 0.97767  0.72427  0.39407  Biso   1.000  Gd
  Gd9      1.0000 0.05109  0.85458  0.33986  Biso   1.000  Gd
  Gd10     1.0000 0.90696  0.64699  0.64623  Biso   1.000  Gd
  Gd11     1.0000 0.14633  0.21973  0.42994  Biso   1.000  Gd
  Gd12     1.0000 0.15430  0.05993  0.48324  Biso   1.000  Gd
  C75      1.0000 0.22580  0.74320  0.56170  Biso   1.000  C
  C76      1.0000 0.22700  0.81190  0.55700  Biso   1.000  C
  O37      1.0000 0.25060  0.83290  0.53740  Biso   1.000  O
  O38      1.0000 0.20730  0.84470  0.57500  Biso   1.000  O
  C77      1.0000 0.25050  0.70510  0.54510  Biso   1.000  C
  H27      1.0000 0.26880  0.72250  0.53150  Biso   1.000  H
  C78      1.0000 0.24880  0.64070  0.54830  Biso   1.000  C
  C79      1.0000 0.27660  0.60020  0.53040  Biso   1.000  C
  O39      1.0000 0.27460  0.54210  0.53610  Biso   1.000  O
  O40      1.0000 0.30020  0.62520  0.51060  Biso   1.000  O
  C80      1.0000 0.22100  0.61390  0.56640  Biso   1.000  C
  H28      1.0000 0.21880  0.57100  0.56750  Biso   1.000  H
  C81      1.0000 0.19540  0.65270  0.58360  Biso   1.000  C
  C82      1.0000 0.16840  0.62610  0.60290  Biso   1.000  C
  N9       1.0000 0.14250  0.60670  0.61940  Biso   1.000  N
  C83      1.0000 0.11400  0.66920  0.31840  Biso   1.000  C
  H29      1.0000 0.11790  0.71160  0.31620  Biso   1.000  H
  C84      1.0000 0.19880  0.71570  0.58090  Biso   1.000  C
  H30      1.0000 0.18210  0.74070  0.59260  Biso   1.000  H
  C85      1.0000 0.12290  0.85040  0.48610  Biso   1.000  C
  C86      1.0000 0.15120  0.90000  0.49720  Biso   1.000  C
  O41      1.0000 0.17790  0.88480  0.51460  Biso   1.000  O
  O42      1.0000 0.14430  0.95410  0.48770  Biso   1.000  O
  C87      1.0000 0.10210  0.85710  0.45870  Biso   1.000  C
  H31      1.0000 0.10380  0.89320  0.44650  Biso   1.000  H
  C88      1.0000 0.07760  0.80870  0.44890  Biso   1.000  C
  C89      1.0000 0.05810  0.80960  0.41730  Biso   1.000  C
  O43      1.0000 0.03040  0.77110  0.41350  Biso   1.000  O
  O44      1.0000 0.06900  0.84600  0.39600  Biso   1.000  O
  C90      1.0000 0.07350  0.75870  0.46950  Biso   1.000  C
  H32      1.0000 0.05790  0.72600  0.46320  Biso   1.000  H
  C91      1.0000 0.09200  0.75540  0.49920  Biso   1.000  C
  C92      1.0000 0.09070  0.69980  0.51860  Biso   1.000  C
  N10      1.0000 0.08690  0.65680  0.53450  Biso   1.000  N
  C93      1.0000 0.11810  0.80150  0.50820  Biso   1.000  C
  H33      1.0000 0.13140  0.79990  0.52760  Biso   1.000  H
  C94      1.0000 0.94510  0.93360  0.38940  Biso   1.000  C
  C95      1.0000 0.96970  0.87620  0.38680  Biso   1.000  C
  O45      1.0000 0.95910  0.82970  0.40170  Biso   1.000  O
  O46      1.0000 0.99650  0.88150  0.36740  Biso   1.000  O
  C96      1.0000 0.91580  0.93680  0.41240  Biso   1.000  C
  H34      1.0000 0.91170  0.90280  0.42570  Biso   1.000  H
  C97      1.0000 0.89200  0.98940  0.41620  Biso   1.000  C
  C98      1.0000 0.86070  0.99040  0.43980  Biso   1.000  C
  O47      1.0000 0.86290  0.95070  0.46290  Biso   1.000  O
  O48      1.0000 0.83600  0.03070  0.43670  Biso   1.000  O
  C99      1.0000 0.89800  0.03940  0.39870  Biso   1.000  C
  H35      1.0000 0.88310  0.07450  0.40180  Biso   1.000  H
  C100     1.0000 0.92810  0.03930  0.37440  Biso   1.000  C
  C101     1.0000 0.93800  0.09800  0.36620  Biso   1.000  C
  N11      1.0000 0.94200  0.12900  0.34380  Biso   1.000  N
  C102     1.0000 0.95140  0.98330  0.37020  Biso   1.000  C
  H36      1.0000 0.97050  0.98210  0.35450  Biso   1.000  H
  C103     1.0000 0.97800  0.64720  0.49000  Biso   1.000  C
  C104     1.0000 0.97800  0.67170  0.45710  Biso   1.000  C
  O49      1.0000 0.00100  0.64920  0.43560  Biso   1.000  O
  O50      1.0000 0.95650  0.71610  0.44960  Biso   1.000  O
  C105     1.0000 0.95300  0.66800  0.51320  Biso   1.000  C
  H37      1.0000 0.93670  0.70040  0.50800  Biso   1.000  H
  C106     1.0000 0.95110  0.64350  0.54370  Biso   1.000  C
  C107     1.0000 0.92280  0.66730  0.56580  Biso   1.000  C
  O51      1.0000 0.91510  0.63330  0.59040  Biso   1.000  O
  O52      1.0000 0.90720  0.71940  0.56160  Biso   1.000  O
  C108     1.0000 0.97670  0.59800  0.55220  Biso   1.000  C
  H38      1.0000 0.97580  0.58130  0.57300  Biso   1.000  H
  C109     1.0000 0.00420  0.57650  0.53020  Biso   1.000  C
  C110     1.0000 0.03150  0.52770  0.54020  Biso   1.000  C
  N12      1.0000 0.05220  0.49130  0.54800  Biso   1.000  N
  C111     1.0000 0.00460  0.59990  0.49940  Biso   1.000  C
  H39      1.0000 0.02220  0.58490  0.48440  Biso   1.000  H
  C112     1.0000 0.94220  0.76740  0.29290  Biso   1.000  C
  C113     1.0000 0.97400  0.78470  0.31370  Biso   1.000  C
  O53      1.0000 0.97370  0.75650  0.34190  Biso   1.000  O
  O54      1.0000 0.99890  0.82050  0.30520  Biso   1.000  O
  C114     1.0000 0.93920  0.79570  0.26190  Biso   1.000  C
  H40      1.0000 0.95760  0.82370  0.25480  Biso   1.000  H
  C115     1.0000 0.90820  0.78030  0.24260  Biso   1.000  C
  C116     1.0000 0.90560  0.80910  0.20920  Biso   1.000  C
  O55      1.0000 0.93540  0.83680  0.19870  Biso   1.000  O
  O56      1.0000 0.87550  0.80160  0.19270  Biso   1.000  O
  C117     1.0000 0.88040  0.74160  0.25220  Biso   1.000  C
  H41      1.0000 0.85850  0.73350  0.24010  Biso   1.000  H
  C118     1.0000 0.88740  0.71500  0.28200  Biso   1.000  C
  C119     1.0000 0.85820  0.67900  0.29200  Biso   1.000  C
  N13      1.0000 0.83730  0.64100  0.30020  Biso   1.000  N
  C120     1.0000 0.91480  0.72740  0.30320  Biso   1.000  C
  H42      1.0000 0.91530  0.70990  0.32380  Biso   1.000  H
  C121     1.0000 0.04810  0.05260  0.32900  Biso   1.000  C
  C122     1.0000 0.05050  0.98460  0.33150  Biso   1.000  C
  O57      1.0000 0.03360  0.95060  0.31150  Biso   1.000  O
  O58      1.0000 0.06960  0.96210  0.35440  Biso   1.000  O
  C123     1.0000 0.06490  0.08890  0.35070  Biso   1.000  C
  H43      1.0000 0.07840  0.07100  0.36770  Biso   1.000  H
  C124     1.0000 0.06280  0.15510  0.34850  Biso   1.000  C
  C125     1.0000 0.08470  0.19340  0.37260  Biso   1.000  C
  O59      1.0000 0.09890  0.17040  0.39770  Biso   1.000  O
  O60      1.0000 0.08610  0.25000  0.36600  Biso   1.000  O
  C126     1.0000 0.04470  0.17850  0.32300  Biso   1.000  C
  H44      1.0000 0.04460  0.22120  0.32020  Biso   1.000  H
  C127     1.0000 0.02600  0.14130  0.30020  Biso   1.000  C
  C128     1.0000 0.00500  0.16770  0.27370  Biso   1.000  C
  N14      1.0000 0.98750  0.18610  0.25170  Biso   1.000  N
  C129     1.0000 0.02880  0.07940  0.30340  Biso   1.000  C
  H45      1.0000 0.01750  0.05400  0.28790  Biso   1.000  H
  C130     1.0000 0.25820  0.97060  0.43400  Biso   1.000  C
  C131     1.0000 0.23570  0.97860  0.46480  Biso   1.000  C
  O61      1.0000 0.24340  0.94510  0.48850  Biso   1.000  O
  O62      1.0000 0.21160  0.02550  0.46580  Biso   1.000  O
  C132     1.0000 0.28120  0.92140  0.43130  Biso   1.000  C
  H46      1.0000 0.28460  0.89480  0.44880  Biso   1.000  H
  C133     1.0000 0.29960  0.91040  0.40300  Biso   1.000  C
  C134     1.0000 0.32640  0.85470  0.39830  Biso   1.000  C
  O63      1.0000 0.32730  0.81820  0.42110  Biso   1.000  O
  O64      1.0000 0.34570  0.84840  0.37260  Biso   1.000  O
  C135     1.0000 0.29520  0.94960  0.37520  Biso   1.000  C
  H47      1.0000 0.30720  0.94060  0.35570  Biso   1.000  H
  C136     1.0000 0.27220  0.00100  0.37860  Biso   1.000  C
  C137     1.0000 0.26530  0.04060  0.35140  Biso   1.000  C
  N15      1.0000 0.26050  0.07220  0.33090  Biso   1.000  N
  C138     1.0000 0.25240  0.00750  0.40720  Biso   1.000  C
  H48      1.0000 0.23400  0.03850  0.40860  Biso   1.000  H
  C139     1.0000 0.08270  0.64930  0.33510  Biso   1.000  C
  C140     1.0000 0.05360  0.69290  0.35110  Biso   1.000  C
  O65      1.0000 0.02820  0.67200  0.36820  Biso   1.000  O
  O66      1.0000 0.05960  0.74950  0.34290  Biso   1.000  O
  C141     1.0000 0.08020  0.58600  0.34130  Biso   1.000  C
  H49      1.0000 0.06030  0.57160  0.35420  Biso   1.000  H
  C142     1.0000 0.10530  0.54510  0.32930  Biso   1.000  C
  C143     1.0000 0.10080  0.47800  0.33600  Biso   1.000  C
  O67      1.0000 0.07490  0.46000  0.35430  Biso   1.000  O
  O68      1.0000 0.12460  0.43860  0.32370  Biso   1.000  O
  C144     1.0000 0.13480  0.56520  0.31030  Biso   1.000  C
  H50      1.0000 0.15140  0.53650  0.30100  Biso   1.000  H
  C145     1.0000 0.14050  0.62870  0.30450  Biso   1.000  C
  C146     1.0000 0.17280  0.65300  0.28400  Biso   1.000  C
  N16      1.0000 0.19620  0.67070  0.26740  Biso   1.000  N
  O69      1.0000 0.15830  0.11000  0.43010  Biso   1.000  O
  C147     1.0000 0.15010  0.06100  0.41170  Biso   1.000  C
  H51      1.0000 0.14880  0.06480  0.38930  Biso   1.000  H
  O70      1.0000 0.14460  0.01390  0.42380  Biso   1.000  O
  O71      1.0000 0.13210  0.16650  0.48140  Biso   1.000  O
  C148     1.0000 0.14160  0.21460  0.49950  Biso   1.000  C
  H52      1.0000 0.14060  0.21080  0.52190  Biso   1.000  H
  O72      1.0000 0.15170  0.26400  0.48770  Biso   1.000  O
  Gd13     1.0000 0.72340  0.56248  0.45659  Biso   1.000  Gd
  Gd14     1.0000 0.47767  0.77573  0.60593  Biso   1.000  Gd
  Gd15     1.0000 0.55109  0.64542  0.66014  Biso   1.000  Gd
  Gd16     1.0000 0.40696  0.85301  0.35377  Biso   1.000  Gd
  Gd17     1.0000 0.64633  0.28027  0.57006  Biso   1.000  Gd
  Gd18     1.0000 0.65430  0.44007  0.51676  Biso   1.000  Gd
  C149     1.0000 0.72580  0.75680  0.43830  Biso   1.000  C
  C150     1.0000 0.72700  0.68810  0.44300  Biso   1.000  C
  O73      1.0000 0.75060  0.66710  0.46260  Biso   1.000  O
  O74      1.0000 0.70730  0.65530  0.42500  Biso   1.000  O
  C151     1.0000 0.75050  0.79490  0.45490  Biso   1.000  C
  H53      1.0000 0.76880  0.77750  0.46850  Biso   1.000  H
  C152     1.0000 0.74880  0.85930  0.45170  Biso   1.000  C
  C153     1.0000 0.77660  0.89980  0.46960  Biso   1.000  C
  O75      1.0000 0.77460  0.95790  0.46390  Biso   1.000  O
  O76      1.0000 0.80020  0.87480  0.48940  Biso   1.000  O
  C154     1.0000 0.72100  0.88610  0.43360  Biso   1.000  C
  H54      1.0000 0.71880  0.92900  0.43250  Biso   1.000  H
  C155     1.0000 0.69540  0.84730  0.41640  Biso   1.000  C
  C156     1.0000 0.66840  0.87390  0.39710  Biso   1.000  C
  N17      1.0000 0.64250  0.89330  0.38060  Biso   1.000  N
  C157     1.0000 0.61400  0.83080  0.68160  Biso   1.000  C
  H55      1.0000 0.61790  0.78840  0.68380  Biso   1.000  H
  C158     1.0000 0.69880  0.78430  0.41910  Biso   1.000  C
  H56      1.0000 0.68210  0.75930  0.40740  Biso   1.000  H
  C159     1.0000 0.62290  0.64960  0.51390  Biso   1.000  C
  C160     1.0000 0.65120  0.60000  0.50280  Biso   1.000  C
  O77      1.0000 0.67790  0.61520  0.48540  Biso   1.000  O
  O78      1.0000 0.64430  0.54590  0.51230  Biso   1.000  O
  C161     1.0000 0.60210  0.64290  0.54130  Biso   1.000  C
  H57      1.0000 0.60380  0.60680  0.55350  Biso   1.000  H
  C162     1.0000 0.57760  0.69130  0.55110  Biso   1.000  C
  C163     1.0000 0.55810  0.69040  0.58270  Biso   1.000  C
  O79      1.0000 0.53040  0.72890  0.58650  Biso   1.000  O
  O80      1.0000 0.56900  0.65400  0.60400  Biso   1.000  O
  C164     1.0000 0.57350  0.74130  0.53050  Biso   1.000  C
  H58      1.0000 0.55790  0.77400  0.53680  Biso   1.000  H
  C165     1.0000 0.59200  0.74460  0.50080  Biso   1.000  C
  C166     1.0000 0.59070  0.80020  0.48140  Biso   1.000  C
  N18      1.0000 0.58690  0.84320  0.46550  Biso   1.000  N
  C167     1.0000 0.61810  0.69850  0.49180  Biso   1.000  C
  H59      1.0000 0.63140  0.70010  0.47240  Biso   1.000  H
  C168     1.0000 0.44510  0.56640  0.61060  Biso   1.000  C
  C169     1.0000 0.46970  0.62380  0.61320  Biso   1.000  C
  O81      1.0000 0.45910  0.67030  0.59830  Biso   1.000  O
  O82      1.0000 0.49650  0.61850  0.63260  Biso   1.000  O
  C170     1.0000 0.41580  0.56320  0.58760  Biso   1.000  C
  H60      1.0000 0.41170  0.59720  0.57430  Biso   1.000  H
  C171     1.0000 0.39200  0.51060  0.58380  Biso   1.000  C
  C172     1.0000 0.36070  0.50960  0.56020  Biso   1.000  C
  O83      1.0000 0.36290  0.54930  0.53710  Biso   1.000  O
  O84      1.0000 0.33600  0.46930  0.56330  Biso   1.000  O
  C173     1.0000 0.39800  0.46060  0.60130  Biso   1.000  C
  H61      1.0000 0.38310  0.42550  0.59820  Biso   1.000  H
  C174     1.0000 0.42810  0.46070  0.62560  Biso   1.000  C
  C175     1.0000 0.43800  0.40200  0.63380  Biso   1.000  C
  N19      1.0000 0.44200  0.37100  0.65620  Biso   1.000  N
  C176     1.0000 0.45140  0.51670  0.62980  Biso   1.000  C
  H62      1.0000 0.47050  0.51790  0.64550  Biso   1.000  H
  C177     1.0000 0.47800  0.85280  0.51000  Biso   1.000  C
  C178     1.0000 0.47800  0.82830  0.54290  Biso   1.000  C
  O85      1.0000 0.50100  0.85080  0.56440  Biso   1.000  O
  O86      1.0000 0.45650  0.78390  0.55040  Biso   1.000  O
  C179     1.0000 0.45300  0.83200  0.48680  Biso   1.000  C
  H63      1.0000 0.43670  0.79960  0.49200  Biso   1.000  H
  C180     1.0000 0.45110  0.85650  0.45630  Biso   1.000  C
  C181     1.0000 0.42280  0.83270  0.43420  Biso   1.000  C
  O87      1.0000 0.41510  0.86670  0.40960  Biso   1.000  O
  O88      1.0000 0.40720  0.78060  0.43840  Biso   1.000  O
  C182     1.0000 0.47670  0.90200  0.44780  Biso   1.000  C
  H64      1.0000 0.47580  0.91870  0.42700  Biso   1.000  H
  C183     1.0000 0.50420  0.92350  0.46980  Biso   1.000  C
  C184     1.0000 0.53150  0.97230  0.45980  Biso   1.000  C
  N20      1.0000 0.55220  0.00870  0.45200  Biso   1.000  N
  C185     1.0000 0.50460  0.90010  0.50060  Biso   1.000  C
  H65      1.0000 0.52220  0.91510  0.51560  Biso   1.000  H
  C186     1.0000 0.44220  0.73260  0.70710  Biso   1.000  C
  C187     1.0000 0.47400  0.71530  0.68630  Biso   1.000  C
  O89      1.0000 0.47370  0.74350  0.65810  Biso   1.000  O
  O90      1.0000 0.49890  0.67950  0.69480  Biso   1.000  O
  C188     1.0000 0.43920  0.70430  0.73810  Biso   1.000  C
  H66      1.0000 0.45760  0.67630  0.74520  Biso   1.000  H
  C189     1.0000 0.40820  0.71970  0.75740  Biso   1.000  C
  C190     1.0000 0.40560  0.69090  0.79080  Biso   1.000  C
  O91      1.0000 0.43540  0.66320  0.80130  Biso   1.000  O
  O92      1.0000 0.37550  0.69840  0.80730  Biso   1.000  O
  C191     1.0000 0.38040  0.75840  0.74780  Biso   1.000  C
  H67      1.0000 0.35850  0.76650  0.75990  Biso   1.000  H
  C192     1.0000 0.38740  0.78500  0.71800  Biso   1.000  C
  C193     1.0000 0.35820  0.82100  0.70800  Biso   1.000  C
  N21      1.0000 0.33730  0.85900  0.69980  Biso   1.000  N
  C194     1.0000 0.41480  0.77260  0.69680  Biso   1.000  C
  H68      1.0000 0.41530  0.79010  0.67620  Biso   1.000  H
  C195     1.0000 0.54810  0.44740  0.67100  Biso   1.000  C
  C196     1.0000 0.55050  0.51540  0.66850  Biso   1.000  C
  O93      1.0000 0.53360  0.54940  0.68850  Biso   1.000  O
  O94      1.0000 0.56960  0.53790  0.64560  Biso   1.000  O
  C197     1.0000 0.56490  0.41110  0.64930  Biso   1.000  C
  H69      1.0000 0.57840  0.42900  0.63230  Biso   1.000  H
  C198     1.0000 0.56280  0.34490  0.65150  Biso   1.000  C
  C199     1.0000 0.58470  0.30660  0.62740  Biso   1.000  C
  O95      1.0000 0.59890  0.32960  0.60230  Biso   1.000  O
  O96      1.0000 0.58610  0.25000  0.63400  Biso   1.000  O
  C200     1.0000 0.54470  0.32150  0.67700  Biso   1.000  C
  H70      1.0000 0.54460  0.27880  0.67980  Biso   1.000  H
  C201     1.0000 0.52600  0.35870  0.69980  Biso   1.000  C
  C202     1.0000 0.50500  0.33230  0.72630  Biso   1.000  C
  N22      1.0000 0.48750  0.31390  0.74830  Biso   1.000  N
  C203     1.0000 0.52880  0.42060  0.69660  Biso   1.000  C
  H71      1.0000 0.51750  0.44600  0.71210  Biso   1.000  H
  C204     1.0000 0.75820  0.52940  0.56600  Biso   1.000  C
  C205     1.0000 0.73570  0.52140  0.53520  Biso   1.000  C
  O97      1.0000 0.74340  0.55490  0.51150  Biso   1.000  O
  O98      1.0000 0.71160  0.47450  0.53420  Biso   1.000  O
  C206     1.0000 0.78120  0.57860  0.56870  Biso   1.000  C
  H72      1.0000 0.78460  0.60520  0.55120  Biso   1.000  H
  C207     1.0000 0.79960  0.58960  0.59700  Biso   1.000  C
  C208     1.0000 0.82640  0.64530  0.60170  Biso   1.000  C
  O99      1.0000 0.82730  0.68180  0.57890  Biso   1.000  O
  O100     1.0000 0.84570  0.65160  0.62740  Biso   1.000  O
  C209     1.0000 0.79520  0.55040  0.62480  Biso   1.000  C
  H73      1.0000 0.80720  0.55940  0.64430  Biso   1.000  H
  C210     1.0000 0.77220  0.49900  0.62140  Biso   1.000  C
  C211     1.0000 0.76530  0.45940  0.64860  Biso   1.000  C
  N23      1.0000 0.76050  0.42780  0.66910  Biso   1.000  N
  C212     1.0000 0.75240  0.49250  0.59280  Biso   1.000  C
  H74      1.0000 0.73400  0.46150  0.59140  Biso   1.000  H
  C213     1.0000 0.58270  0.85070  0.66490  Biso   1.000  C
  C214     1.0000 0.55360  0.80710  0.64890  Biso   1.000  C
  O101     1.0000 0.52820  0.82800  0.63180  Biso   1.000  O
  O102     1.0000 0.55960  0.75050  0.65710  Biso   1.000  O
  C215     1.0000 0.58020  0.91400  0.65870  Biso   1.000  C
  H75      1.0000 0.56030  0.92840  0.64580  Biso   1.000  H
  C216     1.0000 0.60530  0.95490  0.67070  Biso   1.000  C
  C217     1.0000 0.60080  0.02200  0.66400  Biso   1.000  C
  O103     1.0000 0.57490  0.04000  0.64570  Biso   1.000  O
  O104     1.0000 0.62460  0.06140  0.67630  Biso   1.000  O
  C218     1.0000 0.63480  0.93480  0.68970  Biso   1.000  C
  H76      1.0000 0.65140  0.96350  0.69900  Biso   1.000  H
  C219     1.0000 0.64050  0.87130  0.69550  Biso   1.000  C
  C220     1.0000 0.67280  0.84700  0.71600  Biso   1.000  C
  N24      1.0000 0.69620  0.82930  0.73260  Biso   1.000  N
  O105     1.0000 0.65830  0.39000  0.56990  Biso   1.000  O
  C221     1.0000 0.65010  0.43900  0.58830  Biso   1.000  C
  H77      1.0000 0.64880  0.43520  0.61070  Biso   1.000  H
  O106     1.0000 0.64460  0.48610  0.57620  Biso   1.000  O
  O107     1.0000 0.63210  0.33350  0.51860  Biso   1.000  O
  C222     1.0000 0.64160  0.28540  0.50050  Biso   1.000  C
  H78      1.0000 0.64060  0.28920  0.47810  Biso   1.000  H
  O108     1.0000 0.65170  0.23600  0.51230  Biso   1.000  O
  Gd19     1.0000 0.77660  0.43752  0.95659  Biso   1.000  Gd
  Gd20     1.0000 0.02233  0.22427  0.10593  Biso   1.000  Gd
  Gd21     1.0000 0.94891  0.35458  0.16014  Biso   1.000  Gd
  Gd22     1.0000 0.09304  0.14699  0.85377  Biso   1.000  Gd
  Gd23     1.0000 0.85367  0.71973  0.07006  Biso   1.000  Gd
  Gd24     1.0000 0.84570  0.55993  0.01676  Biso   1.000  Gd
  C223     1.0000 0.77420  0.24320  0.93830  Biso   1.000  C
  C224     1.0000 0.77300  0.31190  0.94300  Biso   1.000  C
  O109     1.0000 0.74940  0.33290  0.96260  Biso   1.000  O
  O110     1.0000 0.79270  0.34470  0.92500  Biso   1.000  O
  C225     1.0000 0.74950  0.20510  0.95490  Biso   1.000  C
  H79      1.0000 0.73120  0.22250  0.96850  Biso   1.000  H
  C226     1.0000 0.75120  0.14070  0.95170  Biso   1.000  C
  C227     1.0000 0.72340  0.10020  0.96960  Biso   1.000  C
  O111     1.0000 0.72540  0.04210  0.96390  Biso   1.000  O
  O112     1.0000 0.69980  0.12520  0.98940  Biso   1.000  O
  C228     1.0000 0.77900  0.11390  0.93360  Biso   1.000  C
  H80      1.0000 0.78120  0.07100  0.93250  Biso   1.000  H
  C229     1.0000 0.80460  0.15270  0.91640  Biso   1.000  C
  C230     1.0000 0.83160  0.12610  0.89710  Biso   1.000  C
  N25      1.0000 0.85750  0.10670  0.88060  Biso   1.000  N
  C231     1.0000 0.88600  0.16920  0.18160  Biso   1.000  C
  H81      1.0000 0.88210  0.21160  0.18380  Biso   1.000  H
  C232     1.0000 0.80120  0.21570  0.91910  Biso   1.000  C
  H82      1.0000 0.81790  0.24070  0.90740  Biso   1.000  H
  C233     1.0000 0.87710  0.35040  0.01390  Biso   1.000  C
  C234     1.0000 0.84880  0.40000  0.00280  Biso   1.000  C
  O113     1.0000 0.82210  0.38480  0.98540  Biso   1.000  O
  O114     1.0000 0.85570  0.45410  0.01230  Biso   1.000  O
  C235     1.0000 0.89790  0.35710  0.04130  Biso   1.000  C
  H83      1.0000 0.89620  0.39320  0.05350  Biso   1.000  H
  C236     1.0000 0.92240  0.30870  0.05110  Biso   1.000  C
  C237     1.0000 0.94190  0.30960  0.08270  Biso   1.000  C
  O115     1.0000 0.96960  0.27110  0.08650  Biso   1.000  O
  O116     1.0000 0.93100  0.34600  0.10400  Biso   1.000  O
  C238     1.0000 0.92650  0.25870  0.03050  Biso   1.000  C
  H84      1.0000 0.94210  0.22600  0.03680  Biso   1.000  H
  C239     1.0000 0.90800  0.25540  0.00080  Biso   1.000  C
  C240     1.0000 0.90930  0.19980  0.98140  Biso   1.000  C
  N26      1.0000 0.91310  0.15680  0.96550  Biso   1.000  N
  C241     1.0000 0.88190  0.30150  0.99180  Biso   1.000  C
  H85      1.0000 0.86860  0.29990  0.97240  Biso   1.000  H
  C242     1.0000 0.05490  0.43360  0.11060  Biso   1.000  C
  C243     1.0000 0.03030  0.37620  0.11320  Biso   1.000  C
  O117     1.0000 0.04090  0.32970  0.09830  Biso   1.000  O
  O118     1.0000 0.00350  0.38150  0.13260  Biso   1.000  O
  C244     1.0000 0.08420  0.43680  0.08760  Biso   1.000  C
  H86      1.0000 0.08830  0.40280  0.07430  Biso   1.000  H
  C245     1.0000 0.10800  0.48940  0.08380  Biso   1.000  C
  C246     1.0000 0.13930  0.49040  0.06020  Biso   1.000  C
  O119     1.0000 0.13710  0.45070  0.03710  Biso   1.000  O
  O120     1.0000 0.16400  0.53070  0.06330  Biso   1.000  O
  C247     1.0000 0.10200  0.53940  0.10130  Biso   1.000  C
  H87      1.0000 0.11690  0.57450  0.09820  Biso   1.000  H
  C248     1.0000 0.07190  0.53930  0.12560  Biso   1.000  C
  C249     1.0000 0.06200  0.59800  0.13380  Biso   1.000  C
  N27      1.0000 0.05800  0.62900  0.15620  Biso   1.000  N
  C250     1.0000 0.04860  0.48330  0.12980  Biso   1.000  C
  H88      1.0000 0.02950  0.48210  0.14550  Biso   1.000  H
  C251     1.0000 0.02200  0.14720  0.01000  Biso   1.000  C
  C252     1.0000 0.02200  0.17170  0.04290  Biso   1.000  C
  O121     1.0000 0.99900  0.14920  0.06440  Biso   1.000  O
  O122     1.0000 0.04350  0.21610  0.05040  Biso   1.000  O
  C253     1.0000 0.04700  0.16800  0.98680  Biso   1.000  C
  H89      1.0000 0.06330  0.20040  0.99200  Biso   1.000  H
  C254     1.0000 0.04890  0.14350  0.95630  Biso   1.000  C
  C255     1.0000 0.07720  0.16730  0.93420  Biso   1.000  C
  O123     1.0000 0.08490  0.13330  0.90960  Biso   1.000  O
  O124     1.0000 0.09280  0.21940  0.93840  Biso   1.000  O
  C256     1.0000 0.02330  0.09800  0.94780  Biso   1.000  C
  H90      1.0000 0.02420  0.08130  0.92700  Biso   1.000  H
  C257     1.0000 0.99580  0.07650  0.96980  Biso   1.000  C
  C258     1.0000 0.96850  0.02770  0.95980  Biso   1.000  C
  N28      1.0000 0.94780  0.99130  0.95200  Biso   1.000  N
  C259     1.0000 0.99540  0.09990  0.00060  Biso   1.000  C
  H91      1.0000 0.97780  0.08490  0.01560  Biso   1.000  H
  C260     1.0000 0.05780  0.26740  0.20710  Biso   1.000  C
  C261     1.0000 0.02600  0.28470  0.18630  Biso   1.000  C
  O125     1.0000 0.02630  0.25650  0.15810  Biso   1.000  O
  O126     1.0000 0.00110  0.32050  0.19480  Biso   1.000  O
  C262     1.0000 0.06080  0.29570  0.23810  Biso   1.000  C
  H92      1.0000 0.04240  0.32370  0.24520  Biso   1.000  H
  C263     1.0000 0.09180  0.28030  0.25740  Biso   1.000  C
  C264     1.0000 0.09440  0.30910  0.29080  Biso   1.000  C
  O127     1.0000 0.06460  0.33680  0.30130  Biso   1.000  O
  O128     1.0000 0.12450  0.30160  0.30730  Biso   1.000  O
  C265     1.0000 0.11960  0.24160  0.24780  Biso   1.000  C
  H93      1.0000 0.14150  0.23350  0.25990  Biso   1.000  H
  C266     1.0000 0.11260  0.21500  0.21800  Biso   1.000  C
  C267     1.0000 0.14180  0.17900  0.20800  Biso   1.000  C
  N29      1.0000 0.16270  0.14100  0.19980  Biso   1.000  N
  C268     1.0000 0.08520  0.22740  0.19680  Biso   1.000  C
  H94      1.0000 0.08470  0.20990  0.17620  Biso   1.000  H
  C269     1.0000 0.95190  0.55260  0.17100  Biso   1.000  C
  C270     1.0000 0.94950  0.48460  0.16850  Biso   1.000  C
  O129     1.0000 0.96640  0.45060  0.18850  Biso   1.000  O
  O130     1.0000 0.93040  0.46210  0.14560  Biso   1.000  O
  C271     1.0000 0.93510  0.58890  0.14930  Biso   1.000  C
  H95      1.0000 0.92160  0.57100  0.13230  Biso   1.000  H
  C272     1.0000 0.93720  0.65510  0.15150  Biso   1.000  C
  C273     1.0000 0.91530  0.69340  0.12740  Biso   1.000  C
  O131     1.0000 0.90110  0.67040  0.10230  Biso   1.000  O
  O132     1.0000 0.91390  0.75000  0.13400  Biso   1.000  O
  C274     1.0000 0.95530  0.67850  0.17700  Biso   1.000  C
  H96      1.0000 0.95540  0.72120  0.17980  Biso   1.000  H
  C275     1.0000 0.97400  0.64130  0.19980  Biso   1.000  C
  C276     1.0000 0.99500  0.66770  0.22630  Biso   1.000  C
  N30      1.0000 0.01250  0.68610  0.24830  Biso   1.000  N
  C277     1.0000 0.97120  0.57940  0.19660  Biso   1.000  C
  H97      1.0000 0.98250  0.55400  0.21210  Biso   1.000  H
  C278     1.0000 0.74180  0.47060  0.06600  Biso   1.000  C
  C279     1.0000 0.76430  0.47860  0.03520  Biso   1.000  C
  O133     1.0000 0.75660  0.44510  0.01150  Biso   1.000  O
  O134     1.0000 0.78840  0.52550  0.03420  Biso   1.000  O
  C280     1.0000 0.71880  0.42140  0.06870  Biso   1.000  C
  H98      1.0000 0.71540  0.39480  0.05120  Biso   1.000  H
  C281     1.0000 0.70040  0.41040  0.09700  Biso   1.000  C
  C282     1.0000 0.67360  0.35470  0.10170  Biso   1.000  C
  O135     1.0000 0.67270  0.31820  0.07890  Biso   1.000  O
  O136     1.0000 0.65430  0.34840  0.12740  Biso   1.000  O
  C283     1.0000 0.70480  0.44960  0.12480  Biso   1.000  C
  H99      1.0000 0.69280  0.44060  0.14430  Biso   1.000  H
  C284     1.0000 0.72780  0.50100  0.12140  Biso   1.000  C
  C285     1.0000 0.73470  0.54060  0.14860  Biso   1.000  C
  N31      1.0000 0.73950  0.57220  0.16910  Biso   1.000  N
  C286     1.0000 0.74760  0.50750  0.09280  Biso   1.000  C
  H100     1.0000 0.76600  0.53850  0.09140  Biso   1.000  H
  C287     1.0000 0.91730  0.14930  0.16490  Biso   1.000  C
  C288     1.0000 0.94640  0.19290  0.14890  Biso   1.000  C
  O137     1.0000 0.97180  0.17200  0.13180  Biso   1.000  O
  O138     1.0000 0.94040  0.24950  0.15710  Biso   1.000  O
  C289     1.0000 0.91980  0.08600  0.15870  Biso   1.000  C
  H101     1.0000 0.93970  0.07160  0.14580  Biso   1.000  H
  C290     1.0000 0.89470  0.04510  0.17070  Biso   1.000  C
  C291     1.0000 0.89920  0.97800  0.16400  Biso   1.000  C
  O139     1.0000 0.92510  0.96000  0.14570  Biso   1.000  O
  O140     1.0000 0.87540  0.93860  0.17630  Biso   1.000  O
  C292     1.0000 0.86520  0.06520  0.18970  Biso   1.000  C
  H102     1.0000 0.84860  0.03650  0.19900  Biso   1.000  H
  C293     1.0000 0.85950  0.12870  0.19550  Biso   1.000  C
  C294     1.0000 0.82720  0.15300  0.21600  Biso   1.000  C
  N32      1.0000 0.80380  0.17070  0.23260  Biso   1.000  N
  O141     1.0000 0.84170  0.61000  0.06990  Biso   1.000  O
  C295     1.0000 0.84990  0.56100  0.08830  Biso   1.000  C
  H103     1.0000 0.85120  0.56480  0.11070  Biso   1.000  H
  O142     1.0000 0.85540  0.51390  0.07620  Biso   1.000  O
  O143     1.0000 0.86790  0.66650  0.01860  Biso   1.000  O
  C296     1.0000 0.85840  0.71460  0.00050  Biso   1.000  C
  H104     1.0000 0.85940  0.71080  0.97810  Biso   1.000  H
  O144     1.0000 0.84830  0.76400  0.01230  Biso   1.000  O
  Gd25     1.0000 0.72340  0.93752  0.95659  Biso   1.000  Gd
  Gd26     1.0000 0.47767  0.72427  0.10593  Biso   1.000  Gd
  Gd27     1.0000 0.55109  0.85458  0.16014  Biso   1.000  Gd
  Gd28     1.0000 0.40696  0.64699  0.85377  Biso   1.000  Gd
  Gd29     1.0000 0.64633  0.21973  0.07006  Biso   1.000  Gd
  Gd30     1.0000 0.65430  0.05993  0.01676  Biso   1.000  Gd
  C297     1.0000 0.72580  0.74320  0.93830  Biso   1.000  C
  C298     1.0000 0.72700  0.81190  0.94300  Biso   1.000  C
  O145     1.0000 0.75060  0.83290  0.96260  Biso   1.000  O
  O146     1.0000 0.70730  0.84470  0.92500  Biso   1.000  O
  C299     1.0000 0.75050  0.70510  0.95490  Biso   1.000  C
  H105     1.0000 0.76880  0.72250  0.96850  Biso   1.000  H
  C300     1.0000 0.74880  0.64070  0.95170  Biso   1.000  C
  C301     1.0000 0.77660  0.60020  0.96960  Biso   1.000  C
  O147     1.0000 0.77460  0.54210  0.96390  Biso   1.000  O
  O148     1.0000 0.80020  0.62520  0.98940  Biso   1.000  O
  C302     1.0000 0.72100  0.61390  0.93360  Biso   1.000  C
  H106     1.0000 0.71880  0.57100  0.93250  Biso   1.000  H
  C303     1.0000 0.69540  0.65270  0.91640  Biso   1.000  C
  C304     1.0000 0.66840  0.62610  0.89710  Biso   1.000  C
  N33      1.0000 0.64250  0.60670  0.88060  Biso   1.000  N
  C305     1.0000 0.61400  0.66920  0.18160  Biso   1.000  C
  H107     1.0000 0.61790  0.71160  0.18380  Biso   1.000  H
  C306     1.0000 0.69880  0.71570  0.91910  Biso   1.000  C
  H108     1.0000 0.68210  0.74070  0.90740  Biso   1.000  H
  C307     1.0000 0.62290  0.85040  0.01390  Biso   1.000  C
  C308     1.0000 0.65120  0.90000  0.00280  Biso   1.000  C
  O149     1.0000 0.67790  0.88480  0.98540  Biso   1.000  O
  O150     1.0000 0.64430  0.95410  0.01230  Biso   1.000  O
  C309     1.0000 0.60210  0.85710  0.04130  Biso   1.000  C
  H109     1.0000 0.60380  0.89320  0.05350  Biso   1.000  H
  C310     1.0000 0.57760  0.80870  0.05110  Biso   1.000  C
  C311     1.0000 0.55810  0.80960  0.08270  Biso   1.000  C
  O151     1.0000 0.53040  0.77110  0.08650  Biso   1.000  O
  O152     1.0000 0.56900  0.84600  0.10400  Biso   1.000  O
  C312     1.0000 0.57350  0.75870  0.03050  Biso   1.000  C
  H110     1.0000 0.55790  0.72600  0.03680  Biso   1.000  H
  C313     1.0000 0.59200  0.75540  0.00080  Biso   1.000  C
  C314     1.0000 0.59070  0.69980  0.98140  Biso   1.000  C
  N34      1.0000 0.58690  0.65680  0.96550  Biso   1.000  N
  C315     1.0000 0.61810  0.80150  0.99180  Biso   1.000  C
  H111     1.0000 0.63140  0.79990  0.97240  Biso   1.000  H
  C316     1.0000 0.44510  0.93360  0.11060  Biso   1.000  C
  C317     1.0000 0.46970  0.87620  0.11320  Biso   1.000  C
  O153     1.0000 0.45910  0.82970  0.09830  Biso   1.000  O
  O154     1.0000 0.49650  0.88150  0.13260  Biso   1.000  O
  C318     1.0000 0.41580  0.93680  0.08760  Biso   1.000  C
  H112     1.0000 0.41170  0.90280  0.07430  Biso   1.000  H
  C319     1.0000 0.39200  0.98940  0.08380  Biso   1.000  C
  C320     1.0000 0.36070  0.99040  0.06020  Biso   1.000  C
  O155     1.0000 0.36290  0.95070  0.03710  Biso   1.000  O
  O156     1.0000 0.33600  0.03070  0.06330  Biso   1.000  O
  C321     1.0000 0.39800  0.03940  0.10130  Biso   1.000  C
  H113     1.0000 0.38310  0.07450  0.09820  Biso   1.000  H
  C322     1.0000 0.42810  0.03930  0.12560  Biso   1.000  C
  C323     1.0000 0.43800  0.09800  0.13380  Biso   1.000  C
  N35      1.0000 0.44200  0.12900  0.15620  Biso   1.000  N
  C324     1.0000 0.45140  0.98330  0.12980  Biso   1.000  C
  H114     1.0000 0.47050  0.98210  0.14550  Biso   1.000  H
  C325     1.0000 0.47800  0.64720  0.01000  Biso   1.000  C
  C326     1.0000 0.47800  0.67170  0.04290  Biso   1.000  C
  O157     1.0000 0.50100  0.64920  0.06440  Biso   1.000  O
  O158     1.0000 0.45650  0.71610  0.05040  Biso   1.000  O
  C327     1.0000 0.45300  0.66800  0.98680  Biso   1.000  C
  H115     1.0000 0.43670  0.70040  0.99200  Biso   1.000  H
  C328     1.0000 0.45110  0.64350  0.95630  Biso   1.000  C
  C329     1.0000 0.42280  0.66730  0.93420  Biso   1.000  C
  O159     1.0000 0.41510  0.63330  0.90960  Biso   1.000  O
  O160     1.0000 0.40720  0.71940  0.93840  Biso   1.000  O
  C330     1.0000 0.47670  0.59800  0.94780  Biso   1.000  C
  H116     1.0000 0.47580  0.58130  0.92700  Biso   1.000  H
  C331     1.0000 0.50420  0.57650  0.96980  Biso   1.000  C
  C332     1.0000 0.53150  0.52770  0.95980  Biso   1.000  C
  N36      1.0000 0.55220  0.49130  0.95200  Biso   1.000  N
  C333     1.0000 0.50460  0.59990  0.00060  Biso   1.000  C
  H117     1.0000 0.52220  0.58490  0.01560  Biso   1.000  H
  C334     1.0000 0.44220  0.76740  0.20710  Biso   1.000  C
  C335     1.0000 0.47400  0.78470  0.18630  Biso   1.000  C
  O161     1.0000 0.47370  0.75650  0.15810  Biso   1.000  O
  O162     1.0000 0.49890  0.82050  0.19480  Biso   1.000  O
  C336     1.0000 0.43920  0.79570  0.23810  Biso   1.000  C
  H118     1.0000 0.45760  0.82370  0.24520  Biso   1.000  H
  C337     1.0000 0.40820  0.78030  0.25740  Biso   1.000  C
  C338     1.0000 0.40560  0.80910  0.29080  Biso   1.000  C
  O163     1.0000 0.43540  0.83680  0.30130  Biso   1.000  O
  O164     1.0000 0.37550  0.80160  0.30730  Biso   1.000  O
  C339     1.0000 0.38040  0.74160  0.24780  Biso   1.000  C
  H119     1.0000 0.35850  0.73350  0.25990  Biso   1.000  H
  C340     1.0000 0.38740  0.71500  0.21800  Biso   1.000  C
  C341     1.0000 0.35820  0.67900  0.20800  Biso   1.000  C
  N37      1.0000 0.33730  0.64100  0.19980  Biso   1.000  N
  C342     1.0000 0.41480  0.72740  0.19680  Biso   1.000  C
  H120     1.0000 0.41530  0.70990  0.17620  Biso   1.000  H
  C343     1.0000 0.54810  0.05260  0.17100  Biso   1.000  C
  C344     1.0000 0.55050  0.98460  0.16850  Biso   1.000  C
  O165     1.0000 0.53360  0.95060  0.18850  Biso   1.000  O
  O166     1.0000 0.56960  0.96210  0.14560  Biso   1.000  O
  C345     1.0000 0.56490  0.08890  0.14930  Biso   1.000  C
  H121     1.0000 0.57840  0.07100  0.13230  Biso   1.000  H
  C346     1.0000 0.56280  0.15510  0.15150  Biso   1.000  C
  C347     1.0000 0.58470  0.19340  0.12740  Biso   1.000  C
  O167     1.0000 0.59890  0.17040  0.10230  Biso   1.000  O
  O168     1.0000 0.58610  0.25000  0.13400  Biso   1.000  O
  C348     1.0000 0.54470  0.17850  0.17700  Biso   1.000  C
  H122     1.0000 0.54460  0.22120  0.17980  Biso   1.000  H
  C349     1.0000 0.52600  0.14130  0.19980  Biso   1.000  C
  C350     1.0000 0.50500  0.16770  0.22630  Biso   1.000  C
  N38      1.0000 0.48750  0.18610  0.24830  Biso   1.000  N
  C351     1.0000 0.52880  0.07940  0.19660  Biso   1.000  C
  H123     1.0000 0.51750  0.05400  0.21210  Biso   1.000  H
  C352     1.0000 0.75820  0.97060  0.06600  Biso   1.000  C
  C353     1.0000 0.73570  0.97860  0.03520  Biso   1.000  C
  O169     1.0000 0.74340  0.94510  0.01150  Biso   1.000  O
  O170     1.0000 0.71160  0.02550  0.03420  Biso   1.000  O
  C354     1.0000 0.78120  0.92140  0.06870  Biso   1.000  C
  H124     1.0000 0.78460  0.89480  0.05120  Biso   1.000  H
  C355     1.0000 0.79960  0.91040  0.09700  Biso   1.000  C
  C356     1.0000 0.82640  0.85470  0.10170  Biso   1.000  C
  O171     1.0000 0.82730  0.81820  0.07890  Biso   1.000  O
  O172     1.0000 0.84570  0.84840  0.12740  Biso   1.000  O
  C357     1.0000 0.79520  0.94960  0.12480  Biso   1.000  C
  H125     1.0000 0.80720  0.94060  0.14430  Biso   1.000  H
  C358     1.0000 0.77220  0.00100  0.12140  Biso   1.000  C
  C359     1.0000 0.76530  0.04060  0.14860  Biso   1.000  C
  N39      1.0000 0.76050  0.07220  0.16910  Biso   1.000  N
  C360     1.0000 0.75240  0.00750  0.09280  Biso   1.000  C
  H126     1.0000 0.73400  0.03850  0.09140  Biso   1.000  H
  C361     1.0000 0.58270  0.64930  0.16490  Biso   1.000  C
  C362     1.0000 0.55360  0.69290  0.14890  Biso   1.000  C
  O173     1.0000 0.52820  0.67200  0.13180  Biso   1.000  O
  O174     1.0000 0.55960  0.74950  0.15710  Biso   1.000  O
  C363     1.0000 0.58020  0.58600  0.15870  Biso   1.000  C
  H127     1.0000 0.56030  0.57160  0.14580  Biso   1.000  H
  C364     1.0000 0.60530  0.54510  0.17070  Biso   1.000  C
  C365     1.0000 0.60080  0.47800  0.16400  Biso   1.000  C
  O175     1.0000 0.57490  0.46000  0.14570  Biso   1.000  O
  O176     1.0000 0.62460  0.43860  0.17630  Biso   1.000  O
  C366     1.0000 0.63480  0.56520  0.18970  Biso   1.000  C
  H128     1.0000 0.65140  0.53650  0.19900  Biso   1.000  H
  C367     1.0000 0.64050  0.62870  0.19550  Biso   1.000  C
  C368     1.0000 0.67280  0.65300  0.21600  Biso   1.000  C
  N40      1.0000 0.69620  0.67070  0.23260  Biso   1.000  N
  O177     1.0000 0.65830  0.11000  0.06990  Biso   1.000  O
  C369     1.0000 0.65010  0.06100  0.08830  Biso   1.000  C
  H129     1.0000 0.64880  0.06480  0.11070  Biso   1.000  H
  O178     1.0000 0.64460  0.01390  0.07620  Biso   1.000  O
  O179     1.0000 0.63210  0.16650  0.01860  Biso   1.000  O
  C370     1.0000 0.64160  0.21460  0.00050  Biso   1.000  C
  H130     1.0000 0.64060  0.21080  0.97810  Biso   1.000  H
  O180     1.0000 0.65170  0.26400  0.01230  Biso   1.000  O
  Gd31     1.0000 0.77660  0.06248  0.45659  Biso   1.000  Gd
  Gd32     1.0000 0.02233  0.27573  0.60593  Biso   1.000  Gd
  Gd33     1.0000 0.94891  0.14542  0.66014  Biso   1.000  Gd
  Gd34     1.0000 0.09304  0.35301  0.35377  Biso   1.000  Gd
  Gd35     1.0000 0.85367  0.78027  0.57006  Biso   1.000  Gd
  Gd36     1.0000 0.84570  0.94007  0.51676  Biso   1.000  Gd
  C371     1.0000 0.77420  0.25680  0.43830  Biso   1.000  C
  C372     1.0000 0.77300  0.18810  0.44300  Biso   1.000  C
  O181     1.0000 0.74940  0.16710  0.46260  Biso   1.000  O
  O182     1.0000 0.79270  0.15530  0.42500  Biso   1.000  O
  C373     1.0000 0.74950  0.29490  0.45490  Biso   1.000  C
  H131     1.0000 0.73120  0.27750  0.46850  Biso   1.000  H
  C374     1.0000 0.75120  0.35930  0.45170  Biso   1.000  C
  C375     1.0000 0.72340  0.39980  0.46960  Biso   1.000  C
  O183     1.0000 0.72540  0.45790  0.46390  Biso   1.000  O
  O184     1.0000 0.69980  0.37480  0.48940  Biso   1.000  O
  C376     1.0000 0.77900  0.38610  0.43360  Biso   1.000  C
  H132     1.0000 0.78120  0.42900  0.43250  Biso   1.000  H
  C377     1.0000 0.80460  0.34730  0.41640  Biso   1.000  C
  C378     1.0000 0.83160  0.37390  0.39710  Biso   1.000  C
  N41      1.0000 0.85750  0.39330  0.38060  Biso   1.000  N
  C379     1.0000 0.88600  0.33080  0.68160  Biso   1.000  C
  H133     1.0000 0.88210  0.28840  0.68380  Biso   1.000  H
  C380     1.0000 0.80120  0.28430  0.41910  Biso   1.000  C
  H134     1.0000 0.81790  0.25930  0.40740  Biso   1.000  H
  C381     1.0000 0.87710  0.14960  0.51390  Biso   1.000  C
  C382     1.0000 0.84880  0.10000  0.50280  Biso   1.000  C
  O185     1.0000 0.82210  0.11520  0.48540  Biso   1.000  O
  O186     1.0000 0.85570  0.04590  0.51230  Biso   1.000  O
  C383     1.0000 0.89790  0.14290  0.54130  Biso   1.000  C
  H135     1.0000 0.89620  0.10680  0.55350  Biso   1.000  H
  C384     1.0000 0.92240  0.19130  0.55110  Biso   1.000  C
  C385     1.0000 0.94190  0.19040  0.58270  Biso   1.000  C
  O187     1.0000 0.96960  0.22890  0.58650  Biso   1.000  O
  O188     1.0000 0.93100  0.15400  0.60400  Biso   1.000  O
  C386     1.0000 0.92650  0.24130  0.53050  Biso   1.000  C
  H136     1.0000 0.94210  0.27400  0.53680  Biso   1.000  H
  C387     1.0000 0.90800  0.24460  0.50080  Biso   1.000  C
  C388     1.0000 0.90930  0.30020  0.48140  Biso   1.000  C
  N42      1.0000 0.91310  0.34320  0.46550  Biso   1.000  N
  C389     1.0000 0.88190  0.19850  0.49180  Biso   1.000  C
  H137     1.0000 0.86860  0.20010  0.47240  Biso   1.000  H
  C390     1.0000 0.05490  0.06640  0.61060  Biso   1.000  C
  C391     1.0000 0.03030  0.12380  0.61320  Biso   1.000  C
  O189     1.0000 0.04090  0.17030  0.59830  Biso   1.000  O
  O190     1.0000 0.00350  0.11850  0.63260  Biso   1.000  O
  C392     1.0000 0.08420  0.06320  0.58760  Biso   1.000  C
  H138     1.0000 0.08830  0.09720  0.57430  Biso   1.000  H
  C393     1.0000 0.10800  0.01060  0.58380  Biso   1.000  C
  C394     1.0000 0.13930  0.00960  0.56020  Biso   1.000  C
  O191     1.0000 0.13710  0.04930  0.53710  Biso   1.000  O
  O192     1.0000 0.16400  0.96930  0.56330  Biso   1.000  O
  C395     1.0000 0.10200  0.96060  0.60130  Biso   1.000  C
  H139     1.0000 0.11690  0.92550  0.59820  Biso   1.000  H
  C396     1.0000 0.07190  0.96070  0.62560  Biso   1.000  C
  C397     1.0000 0.06200  0.90200  0.63380  Biso   1.000  C
  N43      1.0000 0.05800  0.87100  0.65620  Biso   1.000  N
  C398     1.0000 0.04860  0.01670  0.62980  Biso   1.000  C
  H140     1.0000 0.02950  0.01790  0.64550  Biso   1.000  H
  C399     1.0000 0.02200  0.35280  0.51000  Biso   1.000  C
  C400     1.0000 0.02200  0.32830  0.54290  Biso   1.000  C
  O193     1.0000 0.99900  0.35080  0.56440  Biso   1.000  O
  O194     1.0000 0.04350  0.28390  0.55040  Biso   1.000  O
  C401     1.0000 0.04700  0.33200  0.48680  Biso   1.000  C
  H141     1.0000 0.06330  0.29960  0.49200  Biso   1.000  H
  C402     1.0000 0.04890  0.35650  0.45630  Biso   1.000  C
  C403     1.0000 0.07720  0.33270  0.43420  Biso   1.000  C
  O195     1.0000 0.08490  0.36670  0.40960  Biso   1.000  O
  O196     1.0000 0.09280  0.28060  0.43840  Biso   1.000  O
  C404     1.0000 0.02330  0.40200  0.44780  Biso   1.000  C
  H142     1.0000 0.02420  0.41870  0.42700  Biso   1.000  H
  C405     1.0000 0.99580  0.42350  0.46980  Biso   1.000  C
  C406     1.0000 0.96850  0.47230  0.45980  Biso   1.000  C
  N44      1.0000 0.94780  0.50870  0.45200  Biso   1.000  N
  C407     1.0000 0.99540  0.40010  0.50060  Biso   1.000  C
  H143     1.0000 0.97780  0.41510  0.51560  Biso   1.000  H
  C408     1.0000 0.05780  0.23260  0.70710  Biso   1.000  C
  C409     1.0000 0.02600  0.21530  0.68630  Biso   1.000  C
  O197     1.0000 0.02630  0.24350  0.65810  Biso   1.000  O
  O198     1.0000 0.00110  0.17950  0.69480  Biso   1.000  O
  C410     1.0000 0.06080  0.20430  0.73810  Biso   1.000  C
  H144     1.0000 0.04240  0.17630  0.74520  Biso   1.000  H
  C411     1.0000 0.09180  0.21970  0.75740  Biso   1.000  C
  C412     1.0000 0.09440  0.19090  0.79080  Biso   1.000  C
  O199     1.0000 0.06460  0.16320  0.80130  Biso   1.000  O
  O200     1.0000 0.12450  0.19840  0.80730  Biso   1.000  O
  C413     1.0000 0.11960  0.25840  0.74780  Biso   1.000  C
  H145     1.0000 0.14150  0.26650  0.75990  Biso   1.000  H
  C414     1.0000 0.11260  0.28500  0.71800  Biso   1.000  C
  C415     1.0000 0.14180  0.32100  0.70800  Biso   1.000  C
  N45      1.0000 0.16270  0.35900  0.69980  Biso   1.000  N
  C416     1.0000 0.08520  0.27260  0.69680  Biso   1.000  C
  H146     1.0000 0.08470  0.29010  0.67620  Biso   1.000  H
  C417     1.0000 0.95190  0.94740  0.67100  Biso   1.000  C
  C418     1.0000 0.94950  0.01540  0.66850  Biso   1.000  C
  O201     1.0000 0.96640  0.04940  0.68850  Biso   1.000  O
  O202     1.0000 0.93040  0.03790  0.64560  Biso   1.000  O
  C419     1.0000 0.93510  0.91110  0.64930  Biso   1.000  C
  H147     1.0000 0.92160  0.92900  0.63230  Biso   1.000  H
  C420     1.0000 0.93720  0.84490  0.65150  Biso   1.000  C
  C421     1.0000 0.91530  0.80660  0.62740  Biso   1.000  C
  O203     1.0000 0.90110  0.82960  0.60230  Biso   1.000  O
  O204     1.0000 0.91390  0.75000  0.63400  Biso   1.000  O
  C422     1.0000 0.95530  0.82150  0.67700  Biso   1.000  C
  H148     1.0000 0.95540  0.77880  0.67980  Biso   1.000  H
  C423     1.0000 0.97400  0.85870  0.69980  Biso   1.000  C
  C424     1.0000 0.99500  0.83230  0.72630  Biso   1.000  C
  N46      1.0000 0.01250  0.81390  0.74830  Biso   1.000  N
  C425     1.0000 0.97120  0.92060  0.69660  Biso   1.000  C
  H149     1.0000 0.98250  0.94600  0.71210  Biso   1.000  H
  C426     1.0000 0.74180  0.02940  0.56600  Biso   1.000  C
  C427     1.0000 0.76430  0.02140  0.53520  Biso   1.000  C
  O205     1.0000 0.75660  0.05490  0.51150  Biso   1.000  O
  O206     1.0000 0.78840  0.97450  0.53420  Biso   1.000  O
  C428     1.0000 0.71880  0.07860  0.56870  Biso   1.000  C
  H150     1.0000 0.71540  0.10520  0.55120  Biso   1.000  H
  C429     1.0000 0.70040  0.08960  0.59700  Biso   1.000  C
  C430     1.0000 0.67360  0.14530  0.60170  Biso   1.000  C
  O207     1.0000 0.67270  0.18180  0.57890  Biso   1.000  O
  O208     1.0000 0.65430  0.15160  0.62740  Biso   1.000  O
  C431     1.0000 0.70480  0.05040  0.62480  Biso   1.000  C
  H151     1.0000 0.69280  0.05940  0.64430  Biso   1.000  H
  C432     1.0000 0.72780  0.99900  0.62140  Biso   1.000  C
  C433     1.0000 0.73470  0.95940  0.64860  Biso   1.000  C
  N47      1.0000 0.73950  0.92780  0.66910  Biso   1.000  N
  C434     1.0000 0.74760  0.99250  0.59280  Biso   1.000  C
  H152     1.0000 0.76600  0.96150  0.59140  Biso   1.000  H
  C435     1.0000 0.91730  0.35070  0.66490  Biso   1.000  C
  C436     1.0000 0.94640  0.30710  0.64890  Biso   1.000  C
  O209     1.0000 0.97180  0.32800  0.63180  Biso   1.000  O
  O210     1.0000 0.94040  0.25050  0.65710  Biso   1.000  O
  C437     1.0000 0.91980  0.41400  0.65870  Biso   1.000  C
  H153     1.0000 0.93970  0.42840  0.64580  Biso   1.000  H
  C438     1.0000 0.89470  0.45490  0.67070  Biso   1.000  C
  C439     1.0000 0.89920  0.52200  0.66400  Biso   1.000  C
  O211     1.0000 0.92510  0.54000  0.64570  Biso   1.000  O
  O212     1.0000 0.87540  0.56140  0.67630  Biso   1.000  O
  C440     1.0000 0.86520  0.43480  0.68970  Biso   1.000  C
  H154     1.0000 0.84860  0.46350  0.69900  Biso   1.000  H
  C441     1.0000 0.85950  0.37130  0.69550  Biso   1.000  C
  C442     1.0000 0.82720  0.34700  0.71600  Biso   1.000  C
  N48      1.0000 0.80380  0.32930  0.73260  Biso   1.000  N
  O213     1.0000 0.84170  0.89000  0.56990  Biso   1.000  O
  C443     1.0000 0.84990  0.93900  0.58830  Biso   1.000  C
  H155     1.0000 0.85120  0.93520  0.61070  Biso   1.000  H
  O214     1.0000 0.85540  0.98610  0.57620  Biso   1.000  O
  O215     1.0000 0.86790  0.83350  0.51860  Biso   1.000  O
  C444     1.0000 0.85840  0.78540  0.50050  Biso   1.000  C
  H156     1.0000 0.85940  0.78920  0.47810  Biso   1.000  H
  O216     1.0000 0.84830  0.73600  0.51230  Biso   1.000  O
  Gd37     1.0000 0.27660  0.43752  0.54341  Biso   1.000  Gd
  Gd38     1.0000 0.52233  0.22427  0.39407  Biso   1.000  Gd
  Gd39     1.0000 0.44891  0.35458  0.33986  Biso   1.000  Gd
  Gd40     1.0000 0.59304  0.14699  0.64623  Biso   1.000  Gd
  Gd41     1.0000 0.35367  0.71973  0.42994  Biso   1.000  Gd
  Gd42     1.0000 0.34570  0.55993  0.48324  Biso   1.000  Gd
  C445     1.0000 0.27420  0.24320  0.56170  Biso   1.000  C
  C446     1.0000 0.27300  0.31190  0.55700  Biso   1.000  C
  O217     1.0000 0.24940  0.33290  0.53740  Biso   1.000  O
  O218     1.0000 0.29270  0.34470  0.57500  Biso   1.000  O
  C447     1.0000 0.24950  0.20510  0.54510  Biso   1.000  C
  H157     1.0000 0.23120  0.22250  0.53150  Biso   1.000  H
  C448     1.0000 0.25120  0.14070  0.54830  Biso   1.000  C
  C449     1.0000 0.22340  0.10020  0.53040  Biso   1.000  C
  O219     1.0000 0.22540  0.04210  0.53610  Biso   1.000  O
  O220     1.0000 0.19980  0.12520  0.51060  Biso   1.000  O
  C450     1.0000 0.27900  0.11390  0.56640  Biso   1.000  C
  H158     1.0000 0.28120  0.07100  0.56750  Biso   1.000  H
  C451     1.0000 0.30460  0.15270  0.58360  Biso   1.000  C
  C452     1.0000 0.33160  0.12610  0.60290  Biso   1.000  C
  N49      1.0000 0.35750  0.10670  0.61940  Biso   1.000  N
  C453     1.0000 0.38600  0.16920  0.31840  Biso   1.000  C
  H159     1.0000 0.38210  0.21160  0.31620  Biso   1.000  H
  C454     1.0000 0.30120  0.21570  0.58090  Biso   1.000  C
  H160     1.0000 0.31790  0.24070  0.59260  Biso   1.000  H
  C455     1.0000 0.37710  0.35040  0.48610  Biso   1.000  C
  C456     1.0000 0.34880  0.40000  0.49720  Biso   1.000  C
  O221     1.0000 0.32210  0.38480  0.51460  Biso   1.000  O
  O222     1.0000 0.35570  0.45410  0.48770  Biso   1.000  O
  C457     1.0000 0.39790  0.35710  0.45870  Biso   1.000  C
  H161     1.0000 0.39620  0.39320  0.44650  Biso   1.000  H
  C458     1.0000 0.42240  0.30870  0.44890  Biso   1.000  C
  C459     1.0000 0.44190  0.30960  0.41730  Biso   1.000  C
  O223     1.0000 0.46960  0.27110  0.41350  Biso   1.000  O
  O224     1.0000 0.43100  0.34600  0.39600  Biso   1.000  O
  C460     1.0000 0.42650  0.25870  0.46950  Biso   1.000  C
  H162     1.0000 0.44210  0.22600  0.46320  Biso   1.000  H
  C461     1.0000 0.40800  0.25540  0.49920  Biso   1.000  C
  C462     1.0000 0.40930  0.19980  0.51860  Biso   1.000  C
  N50      1.0000 0.41310  0.15680  0.53450  Biso   1.000  N
  C463     1.0000 0.38190  0.30150  0.50820  Biso   1.000  C
  H163     1.0000 0.36860  0.29990  0.52760  Biso   1.000  H
  C464     1.0000 0.55490  0.43360  0.38940  Biso   1.000  C
  C465     1.0000 0.53030  0.37620  0.38680  Biso   1.000  C
  O225     1.0000 0.54090  0.32970  0.40170  Biso   1.000  O
  O226     1.0000 0.50350  0.38150  0.36740  Biso   1.000  O
  C466     1.0000 0.58420  0.43680  0.41240  Biso   1.000  C
  H164     1.0000 0.58830  0.40280  0.42570  Biso   1.000  H
  C467     1.0000 0.60800  0.48940  0.41620  Biso   1.000  C
  C468     1.0000 0.63930  0.49040  0.43980  Biso   1.000  C
  O227     1.0000 0.63710  0.45070  0.46290  Biso   1.000  O
  O228     1.0000 0.66400  0.53070  0.43670  Biso   1.000  O
  C469     1.0000 0.60200  0.53940  0.39870  Biso   1.000  C
  H165     1.0000 0.61690  0.57450  0.40180  Biso   1.000  H
  C470     1.0000 0.57190  0.53930  0.37440  Biso   1.000  C
  C471     1.0000 0.56200  0.59800  0.36620  Biso   1.000  C
  N51      1.0000 0.55800  0.62900  0.34380  Biso   1.000  N
  C472     1.0000 0.54860  0.48330  0.37020  Biso   1.000  C
  H166     1.0000 0.52950  0.48210  0.35450  Biso   1.000  H
  C473     1.0000 0.52200  0.14720  0.49000  Biso   1.000  C
  C474     1.0000 0.52200  0.17170  0.45710  Biso   1.000  C
  O229     1.0000 0.49900  0.14920  0.43560  Biso   1.000  O
  O230     1.0000 0.54350  0.21610  0.44960  Biso   1.000  O
  C475     1.0000 0.54700  0.16800  0.51320  Biso   1.000  C
  H167     1.0000 0.56330  0.20040  0.50800  Biso   1.000  H
  C476     1.0000 0.54890  0.14350  0.54370  Biso   1.000  C
  C477     1.0000 0.57720  0.16730  0.56580  Biso   1.000  C
  O231     1.0000 0.58490  0.13330  0.59040  Biso   1.000  O
  O232     1.0000 0.59280  0.21940  0.56160  Biso   1.000  O
  C478     1.0000 0.52330  0.09800  0.55220  Biso   1.000  C
  H168     1.0000 0.52420  0.08130  0.57300  Biso   1.000  H
  C479     1.0000 0.49580  0.07650  0.53020  Biso   1.000  C
  C480     1.0000 0.46850  0.02770  0.54020  Biso   1.000  C
  N52      1.0000 0.44780  0.99130  0.54800  Biso   1.000  N
  C481     1.0000 0.49540  0.09990  0.49940  Biso   1.000  C
  H169     1.0000 0.47780  0.08490  0.48440  Biso   1.000  H
  C482     1.0000 0.55780  0.26740  0.29290  Biso   1.000  C
  C483     1.0000 0.52600  0.28470  0.31370  Biso   1.000  C
  O233     1.0000 0.52630  0.25650  0.34190  Biso   1.000  O
  O234     1.0000 0.50110  0.32050  0.30520  Biso   1.000  O
  C484     1.0000 0.56080  0.29570  0.26190  Biso   1.000  C
  H170     1.0000 0.54240  0.32370  0.25480  Biso   1.000  H
  C485     1.0000 0.59180  0.28030  0.24260  Biso   1.000  C
  C486     1.0000 0.59440  0.30910  0.20920  Biso   1.000  C
  O235     1.0000 0.56460  0.33680  0.19870  Biso   1.000  O
  O236     1.0000 0.62450  0.30160  0.19270  Biso   1.000  O
  C487     1.0000 0.61960  0.24160  0.25220  Biso   1.000  C
  H171     1.0000 0.64150  0.23350  0.24010  Biso   1.000  H
  C488     1.0000 0.61260  0.21500  0.28200  Biso   1.000  C
  C489     1.0000 0.64180  0.17900  0.29200  Biso   1.000  C
  N53      1.0000 0.66270  0.14100  0.30020  Biso   1.000  N
  C490     1.0000 0.58520  0.22740  0.30320  Biso   1.000  C
  H172     1.0000 0.58470  0.20990  0.32380  Biso   1.000  H
  C491     1.0000 0.45190  0.55260  0.32900  Biso   1.000  C
  C492     1.0000 0.44950  0.48460  0.33150  Biso   1.000  C
  O237     1.0000 0.46640  0.45060  0.31150  Biso   1.000  O
  O238     1.0000 0.43040  0.46210  0.35440  Biso   1.000  O
  C493     1.0000 0.43510  0.58890  0.35070  Biso   1.000  C
  H173     1.0000 0.42160  0.57100  0.36770  Biso   1.000  H
  C494     1.0000 0.43720  0.65510  0.34850  Biso   1.000  C
  C495     1.0000 0.41530  0.69340  0.37260  Biso   1.000  C
  O239     1.0000 0.40110  0.67040  0.39770  Biso   1.000  O
  O240     1.0000 0.41390  0.75000  0.36600  Biso   1.000  O
  C496     1.0000 0.45530  0.67850  0.32300  Biso   1.000  C
  H174     1.0000 0.45540  0.72120  0.32020  Biso   1.000  H
  C497     1.0000 0.47400  0.64130  0.30020  Biso   1.000  C
  C498     1.0000 0.49500  0.66770  0.27370  Biso   1.000  C
  N54      1.0000 0.51250  0.68610  0.25170  Biso   1.000  N
  C499     1.0000 0.47120  0.57940  0.30340  Biso   1.000  C
  H175     1.0000 0.48250  0.55400  0.28790  Biso   1.000  H
  C500     1.0000 0.24180  0.47060  0.43400  Biso   1.000  C
  C501     1.0000 0.26430  0.47860  0.46480  Biso   1.000  C
  O241     1.0000 0.25660  0.44510  0.48850  Biso   1.000  O
  O242     1.0000 0.28840  0.52550  0.46580  Biso   1.000  O
  C502     1.0000 0.21880  0.42140  0.43130  Biso   1.000  C
  H176     1.0000 0.21540  0.39480  0.44880  Biso   1.000  H
  C503     1.0000 0.20040  0.41040  0.40300  Biso   1.000  C
  C504     1.0000 0.17360  0.35470  0.39830  Biso   1.000  C
  O243     1.0000 0.17270  0.31820  0.42110  Biso   1.000  O
  O244     1.0000 0.15430  0.34840  0.37260  Biso   1.000  O
  C505     1.0000 0.20480  0.44960  0.37520  Biso   1.000  C
  H177     1.0000 0.19280  0.44060  0.35570  Biso   1.000  H
  C506     1.0000 0.22780  0.50100  0.37860  Biso   1.000  C
  C507     1.0000 0.23470  0.54060  0.35140  Biso   1.000  C
  N55      1.0000 0.23950  0.57220  0.33090  Biso   1.000  N
  C508     1.0000 0.24760  0.50750  0.40720  Biso   1.000  C
  H178     1.0000 0.26600  0.53850  0.40860  Biso   1.000  H
  C509     1.0000 0.41730  0.14930  0.33510  Biso   1.000  C
  C510     1.0000 0.44640  0.19290  0.35110  Biso   1.000  C
  O245     1.0000 0.47180  0.17200  0.36820  Biso   1.000  O
  O246     1.0000 0.44040  0.24950  0.34290  Biso   1.000  O
  C511     1.0000 0.41980  0.08600  0.34130  Biso   1.000  C
  H179     1.0000 0.43970  0.07160  0.35420  Biso   1.000  H
  C512     1.0000 0.39470  0.04510  0.32930  Biso   1.000  C
  C513     1.0000 0.39920  0.97800  0.33600  Biso   1.000  C
  O247     1.0000 0.42510  0.96000  0.35430  Biso   1.000  O
  O248     1.0000 0.37540  0.93860  0.32370  Biso   1.000  O
  C514     1.0000 0.36520  0.06520  0.31030  Biso   1.000  C
  H180     1.0000 0.34860  0.03650  0.30100  Biso   1.000  H
  C515     1.0000 0.35950  0.12870  0.30450  Biso   1.000  C
  C516     1.0000 0.32720  0.15300  0.28400  Biso   1.000  C
  N56      1.0000 0.30380  0.17070  0.26740  Biso   1.000  N
  O249     1.0000 0.34170  0.61000  0.43010  Biso   1.000  O
  C517     1.0000 0.34990  0.56100  0.41170  Biso   1.000  C
  H181     1.0000 0.35120  0.56480  0.38930  Biso   1.000  H
  O250     1.0000 0.35540  0.51390  0.42380  Biso   1.000  O
  O251     1.0000 0.36790  0.66650  0.48140  Biso   1.000  O
  C518     1.0000 0.35840  0.71460  0.49950  Biso   1.000  C
  H182     1.0000 0.35940  0.71080  0.52190  Biso   1.000  H
  O252     1.0000 0.34830  0.76400  0.48770  Biso   1.000  O
  Gd43     1.0000 0.22340  0.56248  0.04341  Biso   1.000  Gd
  Gd44     1.0000 0.97767  0.77573  0.89407  Biso   1.000  Gd
  Gd45     1.0000 0.05109  0.64542  0.83986  Biso   1.000  Gd
  Gd46     1.0000 0.90696  0.85301  0.14623  Biso   1.000  Gd
  Gd47     1.0000 0.14633  0.28027  0.92994  Biso   1.000  Gd
  Gd48     1.0000 0.15430  0.44007  0.98324  Biso   1.000  Gd
  C519     1.0000 0.22580  0.75680  0.06170  Biso   1.000  C
  C520     1.0000 0.22700  0.68810  0.05700  Biso   1.000  C
  O253     1.0000 0.25060  0.66710  0.03740  Biso   1.000  O
  O254     1.0000 0.20730  0.65530  0.07500  Biso   1.000  O
  C521     1.0000 0.25050  0.79490  0.04510  Biso   1.000  C
  H183     1.0000 0.26880  0.77750  0.03150  Biso   1.000  H
  C522     1.0000 0.24880  0.85930  0.04830  Biso   1.000  C
  C523     1.0000 0.27660  0.89980  0.03040  Biso   1.000  C
  O255     1.0000 0.27460  0.95790  0.03610  Biso   1.000  O
  O256     1.0000 0.30020  0.87480  0.01060  Biso   1.000  O
  C524     1.0000 0.22100  0.88610  0.06640  Biso   1.000  C
  H184     1.0000 0.21880  0.92900  0.06750  Biso   1.000  H
  C525     1.0000 0.19540  0.84730  0.08360  Biso   1.000  C
  C526     1.0000 0.16840  0.87390  0.10290  Biso   1.000  C
  N57      1.0000 0.14250  0.89330  0.11940  Biso   1.000  N
  C527     1.0000 0.11400  0.83080  0.81840  Biso   1.000  C
  H185     1.0000 0.11790  0.78840  0.81620  Biso   1.000  H
  C528     1.0000 0.19880  0.78430  0.08090  Biso   1.000  C
  H186     1.0000 0.18210  0.75930  0.09260  Biso   1.000  H
  C529     1.0000 0.12290  0.64960  0.98610  Biso   1.000  C
  C530     1.0000 0.15120  0.60000  0.99720  Biso   1.000  C
  O257     1.0000 0.17790  0.61520  0.01460  Biso   1.000  O
  O258     1.0000 0.14430  0.54590  0.98770  Biso   1.000  O
  C531     1.0000 0.10210  0.64290  0.95870  Biso   1.000  C
  H187     1.0000 0.10380  0.60680  0.94650  Biso   1.000  H
  C532     1.0000 0.07760  0.69130  0.94890  Biso   1.000  C
  C533     1.0000 0.05810  0.69040  0.91730  Biso   1.000  C
  O259     1.0000 0.03040  0.72890  0.91350  Biso   1.000  O
  O260     1.0000 0.06900  0.65400  0.89600  Biso   1.000  O
  C534     1.0000 0.07350  0.74130  0.96950  Biso   1.000  C
  H188     1.0000 0.05790  0.77400  0.96320  Biso   1.000  H
  C535     1.0000 0.09200  0.74460  0.99920  Biso   1.000  C
  C536     1.0000 0.09070  0.80020  0.01860  Biso   1.000  C
  N58      1.0000 0.08690  0.84320  0.03450  Biso   1.000  N
  C537     1.0000 0.11810  0.69850  0.00820  Biso   1.000  C
  H189     1.0000 0.13140  0.70010  0.02760  Biso   1.000  H
  C538     1.0000 0.94510  0.56640  0.88940  Biso   1.000  C
  C539     1.0000 0.96970  0.62380  0.88680  Biso   1.000  C
  O261     1.0000 0.95910  0.67030  0.90170  Biso   1.000  O
  O262     1.0000 0.99650  0.61850  0.86740  Biso   1.000  O
  C540     1.0000 0.91580  0.56320  0.91240  Biso   1.000  C
  H190     1.0000 0.91170  0.59720  0.92570  Biso   1.000  H
  C541     1.0000 0.89200  0.51060  0.91620  Biso   1.000  C
  C542     1.0000 0.86070  0.50960  0.93980  Biso   1.000  C
  O263     1.0000 0.86290  0.54930  0.96290  Biso   1.000  O
  O264     1.0000 0.83600  0.46930  0.93670  Biso   1.000  O
  C543     1.0000 0.89800  0.46060  0.89870  Biso   1.000  C
  H191     1.0000 0.88310  0.42550  0.90180  Biso   1.000  H
  C544     1.0000 0.92810  0.46070  0.87440  Biso   1.000  C
  C545     1.0000 0.93800  0.40200  0.86620  Biso   1.000  C
  N59      1.0000 0.94200  0.37100  0.84380  Biso   1.000  N
  C546     1.0000 0.95140  0.51670  0.87020  Biso   1.000  C
  H192     1.0000 0.97050  0.51790  0.85450  Biso   1.000  H
  C547     1.0000 0.97800  0.85280  0.99000  Biso   1.000  C
  C548     1.0000 0.97800  0.82830  0.95710  Biso   1.000  C
  O265     1.0000 0.00100  0.85080  0.93560  Biso   1.000  O
  O266     1.0000 0.95650  0.78390  0.94960  Biso   1.000  O
  C549     1.0000 0.95300  0.83200  0.01320  Biso   1.000  C
  H193     1.0000 0.93670  0.79960  0.00800  Biso   1.000  H
  C550     1.0000 0.95110  0.85650  0.04370  Biso   1.000  C
  C551     1.0000 0.92280  0.83270  0.06580  Biso   1.000  C
  O267     1.0000 0.91510  0.86670  0.09040  Biso   1.000  O
  O268     1.0000 0.90720  0.78060  0.06160  Biso   1.000  O
  C552     1.0000 0.97670  0.90200  0.05220  Biso   1.000  C
  H194     1.0000 0.97580  0.91870  0.07300  Biso   1.000  H
  C553     1.0000 0.00420  0.92350  0.03020  Biso   1.000  C
  C554     1.0000 0.03150  0.97230  0.04020  Biso   1.000  C
  N60      1.0000 0.05220  0.00870  0.04800  Biso   1.000  N
  C555     1.0000 0.00460  0.90010  0.99940  Biso   1.000  C
  H195     1.0000 0.02220  0.91510  0.98440  Biso   1.000  H
  C556     1.0000 0.94220  0.73260  0.79290  Biso   1.000  C
  C557     1.0000 0.97400  0.71530  0.81370  Biso   1.000  C
  O269     1.0000 0.97370  0.74350  0.84190  Biso   1.000  O
  O270     1.0000 0.99890  0.67950  0.80520  Biso   1.000  O
  C558     1.0000 0.93920  0.70430  0.76190  Biso   1.000  C
  H196     1.0000 0.95760  0.67630  0.75480  Biso   1.000  H
  C559     1.0000 0.90820  0.71970  0.74260  Biso   1.000  C
  C560     1.0000 0.90560  0.69090  0.70920  Biso   1.000  C
  O271     1.0000 0.93540  0.66320  0.69870  Biso   1.000  O
  O272     1.0000 0.87550  0.69840  0.69270  Biso   1.000  O
  C561     1.0000 0.88040  0.75840  0.75220  Biso   1.000  C
  H197     1.0000 0.85850  0.76650  0.74010  Biso   1.000  H
  C562     1.0000 0.88740  0.78500  0.78200  Biso   1.000  C
  C563     1.0000 0.85820  0.82100  0.79200  Biso   1.000  C
  N61      1.0000 0.83730  0.85900  0.80020  Biso   1.000  N
  C564     1.0000 0.91480  0.77260  0.80320  Biso   1.000  C
  H198     1.0000 0.91530  0.79010  0.82380  Biso   1.000  H
  C565     1.0000 0.04810  0.44740  0.82900  Biso   1.000  C
  C566     1.0000 0.05050  0.51540  0.83150  Biso   1.000  C
  O273     1.0000 0.03360  0.54940  0.81150  Biso   1.000  O
  O274     1.0000 0.06960  0.53790  0.85440  Biso   1.000  O
  C567     1.0000 0.06490  0.41110  0.85070  Biso   1.000  C
  H199     1.0000 0.07840  0.42900  0.86770  Biso   1.000  H
  C568     1.0000 0.06280  0.34490  0.84850  Biso   1.000  C
  C569     1.0000 0.08470  0.30660  0.87260  Biso   1.000  C
  O275     1.0000 0.09890  0.32960  0.89770  Biso   1.000  O
  O276     1.0000 0.08610  0.25000  0.86600  Biso   1.000  O
  C570     1.0000 0.04470  0.32150  0.82300  Biso   1.000  C
  H200     1.0000 0.04460  0.27880  0.82020  Biso   1.000  H
  C571     1.0000 0.02600  0.35870  0.80020  Biso   1.000  C
  C572     1.0000 0.00500  0.33230  0.77370  Biso   1.000  C
  N62      1.0000 0.98750  0.31390  0.75170  Biso   1.000  N
  C573     1.0000 0.02880  0.42060  0.80340  Biso   1.000  C
  H201     1.0000 0.01750  0.44600  0.78790  Biso   1.000  H
  C574     1.0000 0.25820  0.52940  0.93400  Biso   1.000  C
  C575     1.0000 0.23570  0.52140  0.96480  Biso   1.000  C
  O277     1.0000 0.24340  0.55490  0.98850  Biso   1.000  O
  O278     1.0000 0.21160  0.47450  0.96580  Biso   1.000  O
  C576     1.0000 0.28120  0.57860  0.93130  Biso   1.000  C
  H202     1.0000 0.28460  0.60520  0.94880  Biso   1.000  H
  C577     1.0000 0.29960  0.58960  0.90300  Biso   1.000  C
  C578     1.0000 0.32640  0.64530  0.89830  Biso   1.000  C
  O279     1.0000 0.32730  0.68180  0.92110  Biso   1.000  O
  O280     1.0000 0.34570  0.65160  0.87260  Biso   1.000  O
  C579     1.0000 0.29520  0.55040  0.87520  Biso   1.000  C
  H203     1.0000 0.30720  0.55940  0.85570  Biso   1.000  H
  C580     1.0000 0.27220  0.49900  0.87860  Biso   1.000  C
  C581     1.0000 0.26530  0.45940  0.85140  Biso   1.000  C
  N63      1.0000 0.26050  0.42780  0.83090  Biso   1.000  N
  C582     1.0000 0.25240  0.49250  0.90720  Biso   1.000  C
  H204     1.0000 0.23400  0.46150  0.90860  Biso   1.000  H
  C583     1.0000 0.08270  0.85070  0.83510  Biso   1.000  C
  C584     1.0000 0.05360  0.80710  0.85110  Biso   1.000  C
  O281     1.0000 0.02820  0.82800  0.86820  Biso   1.000  O
  O282     1.0000 0.05960  0.75050  0.84290  Biso   1.000  O
  C585     1.0000 0.08020  0.91400  0.84130  Biso   1.000  C
  H205     1.0000 0.06030  0.92840  0.85420  Biso   1.000  H
  C586     1.0000 0.10530  0.95490  0.82930  Biso   1.000  C
  C587     1.0000 0.10080  0.02200  0.83600  Biso   1.000  C
  O283     1.0000 0.07490  0.04000  0.85430  Biso   1.000  O
  O284     1.0000 0.12460  0.06140  0.82370  Biso   1.000  O
  C588     1.0000 0.13480  0.93480  0.81030  Biso   1.000  C
  H206     1.0000 0.15140  0.96350  0.80100  Biso   1.000  H
  C589     1.0000 0.14050  0.87130  0.80450  Biso   1.000  C
  C590     1.0000 0.17280  0.84700  0.78400  Biso   1.000  C
  N64      1.0000 0.19620  0.82930  0.76740  Biso   1.000  N
  O285     1.0000 0.15830  0.39000  0.93010  Biso   1.000  O
  C591     1.0000 0.15010  0.43900  0.91170  Biso   1.000  C
  H207     1.0000 0.14880  0.43520  0.88930  Biso   1.000  H
  O286     1.0000 0.14460  0.48610  0.92380  Biso   1.000  O
  O287     1.0000 0.13210  0.33350  0.98140  Biso   1.000  O
  C592     1.0000 0.14160  0.28540  0.99950  Biso   1.000  C
  H208     1.0000 0.14060  0.28920  0.02190  Biso   1.000  H
  O288     1.0000 0.15170  0.23600  0.98770  Biso   1.000  O
