data_image0
_cell_length_a       28.0724
_cell_length_b       14.0007
_cell_length_c       44.7159
_cell_angle_alpha    90
_cell_angle_beta     90
_cell_angle_gamma    90

_symmetry_space_group_name_H-M    "P 1"
_symmetry_int_tables_number       1

loop_
  _symmetry_equiv_pos_as_xyz
  'x, y, z'

loop_
  _atom_site_label
  _atom_site_occupancy
  _atom_site_fract_x
  _atom_site_fract_y
  _atom_site_fract_z
  _atom_site_thermal_displace_type
  _atom_site_B_iso_or_equiv
  _atom_site_type_symbol
  I1       1.0000 0.19848  0.66410  0.81559  Biso   1.000  I
  I2       1.0000 0.32596  0.82782  0.83457  Biso   1.000  I
  I3       1.0000 0.42567  0.30643  0.37482  Biso   1.000  I
  I4       1.0000 0.49551  0.30448  0.46362  Biso   1.000  I
  I5       1.0000 0.44196  0.31918  0.58343  Biso   1.000  I
  I6       1.0000 0.51462  0.05536  0.61641  Biso   1.000  I
  Zn1      1.0000 0.23815  0.82645  0.82081  Biso   1.000  Zn
  Zn2      1.0000 0.47724  0.38529  0.41372  Biso   1.000  Zn
  Zn3      1.0000 0.45002  0.13820  0.58689  Biso   1.000  Zn
  N1       1.0000 0.22910  0.89970  0.78160  Biso   1.000  N
  N2       1.0000 0.38590  0.09490  0.60540  Biso   1.000  N
  N3       1.0000 0.04140  0.08490  0.60711  Biso   1.000  N
  N4       1.0000 0.25743  0.02430  0.67933  Biso   1.000  N
  N5       1.0000 0.17400  0.01960  0.68089  Biso   1.000  N
  N6       1.0000 0.21355  0.06240  0.63608  Biso   1.000  N
  N7       1.0000 0.44581  0.08050  0.54458  Biso   1.000  N
  N8       1.0000 0.44900  0.51800  0.42261  Biso   1.000  N
  N9       1.0000 0.30040  0.09390  0.35082  Biso   1.000  N
  N10      1.0000 0.42180  0.84720  0.46103  Biso   1.000  N
  N11      1.0000 0.37830  0.84680  0.41542  Biso   1.000  N
  N12      1.0000 0.38670  0.99040  0.44279  Biso   1.000  N
  C1       1.0000 0.18710  0.89780  0.76721  Biso   1.000  C
  H1       1.0000 0.16060  0.86930  0.77690  Biso   1.000  H
  C2       1.0000 0.18100  0.93540  0.73903  Biso   1.000  C
  H2       1.0000 0.15060  0.93440  0.72970  Biso   1.000  H
  C3       1.0000 0.22010  0.97480  0.72458  Biso   1.000  C
  C4       1.0000 0.26240  0.97780  0.73905  Biso   1.000  C
  H3       1.0000 0.28940  0.00520  0.72960  Biso   1.000  H
  C5       1.0000 0.26620  0.94070  0.76785  Biso   1.000  C
  H4       1.0000 0.29590  0.94440  0.77800  Biso   1.000  H
  C6       1.0000 0.21580  0.00970  0.69293  Biso   1.000  C
  C7       1.0000 0.17430  0.04650  0.65206  Biso   1.000  C
  C8       1.0000 0.25430  0.04910  0.65055  Biso   1.000  C
  C9       1.0000 0.12810  0.05850  0.63677  Biso   1.000  C
  C10      1.0000 0.08550  0.04830  0.65141  Biso   1.000  C
  H5       1.0000 0.08480  0.03190  0.67200  Biso   1.000  H
  C11      1.0000 0.04350  0.06220  0.63592  Biso   1.000  C
  H6       1.0000 0.01440  0.05510  0.64650  Biso   1.000  H
  C12      1.0000 0.08320  0.09280  0.59278  Biso   1.000  C
  H7       1.0000 0.08270  0.10750  0.57200  Biso   1.000  H
  C13      1.0000 0.12630  0.08110  0.60628  Biso   1.000  C
  H8       1.0000 0.15490  0.08810  0.59510  Biso   1.000  H
  C14      1.0000 0.29970  0.06400  0.63445  Biso   1.000  C
  C15      1.0000 0.30060  0.09430  0.60500  Biso   1.000  C
  H9       1.0000 0.27190  0.10510  0.59430  Biso   1.000  H
  C16      1.0000 0.34480  0.10880  0.59134  Biso   1.000  C
  H10      1.0000 0.34540  0.12960  0.57110  Biso   1.000  H
  C17      1.0000 0.38430  0.06410  0.63388  Biso   1.000  C
  H11      1.0000 0.41350  0.05300  0.64410  Biso   1.000  H
  C18      1.0000 0.34300  0.04830  0.64874  Biso   1.000  C
  H12      1.0000 0.34360  0.02660  0.66890  Biso   1.000  H
  C19      1.0000 0.42810  0.12910  0.52159  Biso   1.000  C
  H13      1.0000 0.42260  0.19560  0.52390  Biso   1.000  H
  C20      1.0000 0.41760  0.08720  0.49459  Biso   1.000  C
  H14      1.0000 0.40540  0.12420  0.47850  Biso   1.000  H
  C21      1.0000 0.42500  0.99020  0.49124  Biso   1.000  C
  C22      1.0000 0.44480  0.94070  0.51468  Biso   1.000  C
  H15      1.0000 0.45190  0.87470  0.51270  Biso   1.000  H
  C23      1.0000 0.45450  0.98760  0.54122  Biso   1.000  C
  H16      1.0000 0.46770  0.95270  0.55750  Biso   1.000  H
  C24      1.0000 0.41040  0.93960  0.46339  Biso   1.000  C
  C25      1.0000 0.37180  0.93920  0.41972  Biso   1.000  C
  C26      1.0000 0.40520  0.80430  0.43686  Biso   1.000  C
  C27      1.0000 0.45400  0.56020  0.44913  Biso   1.000  C
  H17      1.0000 0.46860  0.52500  0.46480  Biso   1.000  H
  C28      1.0000 0.43920  0.65170  0.45508  Biso   1.000  C
  H18      1.0000 0.44290  0.67830  0.47450  Biso   1.000  H
  C29      1.0000 0.41880  0.70430  0.43222  Biso   1.000  C
  C30      1.0000 0.41180  0.65910  0.40510  Biso   1.000  C
  H19      1.0000 0.39630  0.69190  0.38920  Biso   1.000  H
  C31      1.0000 0.42690  0.56760  0.40115  Biso   1.000  C
  H20      1.0000 0.42160  0.53780  0.38240  Biso   1.000  H
  C32      1.0000 0.34670  0.99330  0.39526  Biso   1.000  C
  C33      1.0000 0.34620  0.09000  0.39558  Biso   1.000  C
  H21      1.0000 0.36150  0.12420  0.41120  Biso   1.000  H
  C34      1.0000 0.32310  0.13850  0.37270  Biso   1.000  C
  H22      1.0000 0.32350  0.20640  0.37280  Biso   1.000  H
  C35      1.0000 0.30160  0.00090  0.35050  Biso   1.000  C
  H23      1.0000 0.28550  0.96830  0.33480  Biso   1.000  H
  C36      1.0000 0.32520  0.94720  0.37194  Biso   1.000  C
  H24      1.0000 0.32650  0.87950  0.37040  Biso   1.000  H
  I7       1.0000 0.30152  0.33590  0.31559  Biso   1.000  I
  I8       1.0000 0.17404  0.17218  0.33457  Biso   1.000  I
  I9       1.0000 0.07433  0.69357  0.87482  Biso   1.000  I
  I10      1.0000 0.00449  0.69552  0.96362  Biso   1.000  I
  I11      1.0000 0.05804  0.68082  0.08343  Biso   1.000  I
  I12      1.0000 0.98538  0.94464  0.11641  Biso   1.000  I
  Zn4      1.0000 0.26185  0.17355  0.32081  Biso   1.000  Zn
  Zn5      1.0000 0.02276  0.61471  0.91372  Biso   1.000  Zn
  Zn6      1.0000 0.04998  0.86180  0.08689  Biso   1.000  Zn
  N13      1.0000 0.27090  0.10030  0.28160  Biso   1.000  N
  N14      1.0000 0.11410  0.90510  0.10540  Biso   1.000  N
  N15      1.0000 0.45860  0.91510  0.10711  Biso   1.000  N
  N16      1.0000 0.24257  0.97570  0.17933  Biso   1.000  N
  N17      1.0000 0.32600  0.98040  0.18089  Biso   1.000  N
  N18      1.0000 0.28645  0.93760  0.13608  Biso   1.000  N
  N19      1.0000 0.05419  0.91950  0.04458  Biso   1.000  N
  N20      1.0000 0.05100  0.48200  0.92261  Biso   1.000  N
  N21      1.0000 0.19960  0.90610  0.85082  Biso   1.000  N
  N22      1.0000 0.07820  0.15280  0.96103  Biso   1.000  N
  N23      1.0000 0.12170  0.15320  0.91542  Biso   1.000  N
  N24      1.0000 0.11330  0.00960  0.94279  Biso   1.000  N
  C37      1.0000 0.31290  0.10220  0.26721  Biso   1.000  C
  H25      1.0000 0.33940  0.13070  0.27690  Biso   1.000  H
  C38      1.0000 0.31900  0.06460  0.23903  Biso   1.000  C
  H26      1.0000 0.34940  0.06560  0.22970  Biso   1.000  H
  C39      1.0000 0.27990  0.02520  0.22458  Biso   1.000  C
  C40      1.0000 0.23760  0.02220  0.23905  Biso   1.000  C
  H27      1.0000 0.21060  0.99480  0.22960  Biso   1.000  H
  C41      1.0000 0.23380  0.05930  0.26785  Biso   1.000  C
  H28      1.0000 0.20410  0.05560  0.27800  Biso   1.000  H
  C42      1.0000 0.28420  0.99030  0.19293  Biso   1.000  C
  C43      1.0000 0.32570  0.95350  0.15206  Biso   1.000  C
  C44      1.0000 0.24570  0.95090  0.15055  Biso   1.000  C
  C45      1.0000 0.37190  0.94150  0.13677  Biso   1.000  C
  C46      1.0000 0.41450  0.95170  0.15141  Biso   1.000  C
  H29      1.0000 0.41520  0.96810  0.17200  Biso   1.000  H
  C47      1.0000 0.45650  0.93780  0.13592  Biso   1.000  C
  H30      1.0000 0.48560  0.94490  0.14650  Biso   1.000  H
  C48      1.0000 0.41680  0.90720  0.09278  Biso   1.000  C
  H31      1.0000 0.41730  0.89250  0.07200  Biso   1.000  H
  C49      1.0000 0.37370  0.91890  0.10628  Biso   1.000  C
  H32      1.0000 0.34510  0.91190  0.09510  Biso   1.000  H
  C50      1.0000 0.20030  0.93600  0.13445  Biso   1.000  C
  C51      1.0000 0.19940  0.90570  0.10500  Biso   1.000  C
  H33      1.0000 0.22810  0.89490  0.09430  Biso   1.000  H
  C52      1.0000 0.15520  0.89120  0.09134  Biso   1.000  C
  H34      1.0000 0.15460  0.87040  0.07110  Biso   1.000  H
  C53      1.0000 0.11570  0.93590  0.13388  Biso   1.000  C
  H35      1.0000 0.08650  0.94700  0.14410  Biso   1.000  H
  C54      1.0000 0.15700  0.95170  0.14874  Biso   1.000  C
  H36      1.0000 0.15640  0.97340  0.16890  Biso   1.000  H
  C55      1.0000 0.07190  0.87090  0.02159  Biso   1.000  C
  H37      1.0000 0.07740  0.80440  0.02390  Biso   1.000  H
  C56      1.0000 0.08240  0.91280  0.99459  Biso   1.000  C
  H38      1.0000 0.09460  0.87580  0.97850  Biso   1.000  H
  C57      1.0000 0.07500  0.00980  0.99124  Biso   1.000  C
  C58      1.0000 0.05520  0.05930  0.01468  Biso   1.000  C
  H39      1.0000 0.04810  0.12530  0.01270  Biso   1.000  H
  C59      1.0000 0.04550  0.01240  0.04122  Biso   1.000  C
  H40      1.0000 0.03230  0.04730  0.05750  Biso   1.000  H
  C60      1.0000 0.08960  0.06040  0.96339  Biso   1.000  C
  C61      1.0000 0.12820  0.06080  0.91972  Biso   1.000  C
  C62      1.0000 0.09480  0.19570  0.93686  Biso   1.000  C
  C63      1.0000 0.04600  0.43980  0.94913  Biso   1.000  C
  H41      1.0000 0.03140  0.47500  0.96480  Biso   1.000  H
  C64      1.0000 0.06080  0.34830  0.95508  Biso   1.000  C
  H42      1.0000 0.05710  0.32170  0.97450  Biso   1.000  H
  C65      1.0000 0.08120  0.29570  0.93222  Biso   1.000  C
  C66      1.0000 0.08820  0.34090  0.90510  Biso   1.000  C
  H43      1.0000 0.10370  0.30810  0.88920  Biso   1.000  H
  C67      1.0000 0.07310  0.43240  0.90115  Biso   1.000  C
  H44      1.0000 0.07840  0.46220  0.88240  Biso   1.000  H
  C68      1.0000 0.15330  0.00670  0.89526  Biso   1.000  C
  C69      1.0000 0.15380  0.91000  0.89558  Biso   1.000  C
  H45      1.0000 0.13850  0.87580  0.91120  Biso   1.000  H
  C70      1.0000 0.17690  0.86150  0.87270  Biso   1.000  C
  H46      1.0000 0.17650  0.79360  0.87280  Biso   1.000  H
  C71      1.0000 0.19840  0.99910  0.85050  Biso   1.000  C
  H47      1.0000 0.21450  0.03170  0.83480  Biso   1.000  H
  C72      1.0000 0.17480  0.05280  0.87194  Biso   1.000  C
  H48      1.0000 0.17350  0.12050  0.87040  Biso   1.000  H
  I13      1.0000 0.80152  0.16410  0.68441  Biso   1.000  I
  I14      1.0000 0.67404  0.32782  0.66543  Biso   1.000  I
  I15      1.0000 0.57433  0.80643  0.12518  Biso   1.000  I
  I16      1.0000 0.50449  0.80448  0.03638  Biso   1.000  I
  I17      1.0000 0.55804  0.81918  0.91657  Biso   1.000  I
  I18      1.0000 0.48538  0.55536  0.88359  Biso   1.000  I
  Zn7      1.0000 0.76185  0.32645  0.67919  Biso   1.000  Zn
  Zn8      1.0000 0.52276  0.88529  0.08628  Biso   1.000  Zn
  Zn9      1.0000 0.54998  0.63820  0.91311  Biso   1.000  Zn
  N25      1.0000 0.77090  0.39970  0.71840  Biso   1.000  N
  N26      1.0000 0.61410  0.59490  0.89460  Biso   1.000  N
  N27      1.0000 0.95860  0.58490  0.89289  Biso   1.000  N
  N28      1.0000 0.74257  0.52430  0.82067  Biso   1.000  N
  N29      1.0000 0.82600  0.51960  0.81911  Biso   1.000  N
  N30      1.0000 0.78645  0.56240  0.86392  Biso   1.000  N
  N31      1.0000 0.55419  0.58050  0.95542  Biso   1.000  N
  N32      1.0000 0.55100  0.01800  0.07739  Biso   1.000  N
  N33      1.0000 0.69960  0.59390  0.14918  Biso   1.000  N
  N34      1.0000 0.57820  0.34720  0.03897  Biso   1.000  N
  N35      1.0000 0.62170  0.34680  0.08458  Biso   1.000  N
  N36      1.0000 0.61330  0.49040  0.05721  Biso   1.000  N
  C73      1.0000 0.81290  0.39780  0.73279  Biso   1.000  C
  H49      1.0000 0.83940  0.36930  0.72310  Biso   1.000  H
  C74      1.0000 0.81900  0.43540  0.76097  Biso   1.000  C
  H50      1.0000 0.84940  0.43440  0.77030  Biso   1.000  H
  C75      1.0000 0.77990  0.47480  0.77542  Biso   1.000  C
  C76      1.0000 0.73760  0.47780  0.76095  Biso   1.000  C
  H51      1.0000 0.71060  0.50520  0.77040  Biso   1.000  H
  C77      1.0000 0.73380  0.44070  0.73215  Biso   1.000  C
  H52      1.0000 0.70410  0.44440  0.72200  Biso   1.000  H
  C78      1.0000 0.78420  0.50970  0.80707  Biso   1.000  C
  C79      1.0000 0.82570  0.54650  0.84794  Biso   1.000  C
  C80      1.0000 0.74570  0.54910  0.84945  Biso   1.000  C
  C81      1.0000 0.87190  0.55850  0.86323  Biso   1.000  C
  C82      1.0000 0.91450  0.54830  0.84859  Biso   1.000  C
  H53      1.0000 0.91520  0.53190  0.82800  Biso   1.000  H
  C83      1.0000 0.95650  0.56220  0.86408  Biso   1.000  C
  H54      1.0000 0.98560  0.55510  0.85350  Biso   1.000  H
  C84      1.0000 0.91680  0.59280  0.90722  Biso   1.000  C
  H55      1.0000 0.91730  0.60750  0.92800  Biso   1.000  H
  C85      1.0000 0.87370  0.58110  0.89372  Biso   1.000  C
  H56      1.0000 0.84510  0.58810  0.90490  Biso   1.000  H
  C86      1.0000 0.70030  0.56400  0.86555  Biso   1.000  C
  C87      1.0000 0.69940  0.59430  0.89500  Biso   1.000  C
  H57      1.0000 0.72810  0.60510  0.90570  Biso   1.000  H
  C88      1.0000 0.65520  0.60880  0.90866  Biso   1.000  C
  H58      1.0000 0.65460  0.62960  0.92890  Biso   1.000  H
  C89      1.0000 0.61570  0.56410  0.86612  Biso   1.000  C
  H59      1.0000 0.58650  0.55300  0.85590  Biso   1.000  H
  C90      1.0000 0.65700  0.54830  0.85126  Biso   1.000  C
  H60      1.0000 0.65640  0.52660  0.83110  Biso   1.000  H
  C91      1.0000 0.57190  0.62910  0.97841  Biso   1.000  C
  H61      1.0000 0.57740  0.69560  0.97610  Biso   1.000  H
  C92      1.0000 0.58240  0.58720  0.00541  Biso   1.000  C
  H62      1.0000 0.59460  0.62420  0.02150  Biso   1.000  H
  C93      1.0000 0.57500  0.49020  0.00876  Biso   1.000  C
  C94      1.0000 0.55520  0.44070  0.98532  Biso   1.000  C
  H63      1.0000 0.54810  0.37470  0.98730  Biso   1.000  H
  C95      1.0000 0.54550  0.48760  0.95878  Biso   1.000  C
  H64      1.0000 0.53230  0.45270  0.94250  Biso   1.000  H
  C96      1.0000 0.58960  0.43960  0.03661  Biso   1.000  C
  C97      1.0000 0.62820  0.43920  0.08028  Biso   1.000  C
  C98      1.0000 0.59480  0.30430  0.06314  Biso   1.000  C
  C99      1.0000 0.54600  0.06020  0.05087  Biso   1.000  C
  H65      1.0000 0.53140  0.02500  0.03520  Biso   1.000  H
  C100     1.0000 0.56080  0.15170  0.04492  Biso   1.000  C
  H66      1.0000 0.55710  0.17830  0.02550  Biso   1.000  H
  C101     1.0000 0.58120  0.20430  0.06778  Biso   1.000  C
  C102     1.0000 0.58820  0.15910  0.09490  Biso   1.000  C
  H67      1.0000 0.60370  0.19190  0.11080  Biso   1.000  H
  C103     1.0000 0.57310  0.06760  0.09885  Biso   1.000  C
  H68      1.0000 0.57840  0.03780  0.11760  Biso   1.000  H
  C104     1.0000 0.65330  0.49330  0.10474  Biso   1.000  C
  C105     1.0000 0.65380  0.59000  0.10442  Biso   1.000  C
  H69      1.0000 0.63850  0.62420  0.08880  Biso   1.000  H
  C106     1.0000 0.67690  0.63850  0.12730  Biso   1.000  C
  H70      1.0000 0.67650  0.70640  0.12720  Biso   1.000  H
  C107     1.0000 0.69840  0.50090  0.14950  Biso   1.000  C
  H71      1.0000 0.71450  0.46830  0.16520  Biso   1.000  H
  C108     1.0000 0.67480  0.44720  0.12806  Biso   1.000  C
  H72      1.0000 0.67350  0.37950  0.12960  Biso   1.000  H
  I19      1.0000 0.69848  0.83590  0.18441  Biso   1.000  I
  I20      1.0000 0.82596  0.67218  0.16543  Biso   1.000  I
  I21      1.0000 0.92567  0.19357  0.62518  Biso   1.000  I
  I22      1.0000 0.99551  0.19552  0.53638  Biso   1.000  I
  I23      1.0000 0.94196  0.18082  0.41657  Biso   1.000  I
  I24      1.0000 0.01462  0.44464  0.38359  Biso   1.000  I
  Zn10     1.0000 0.73815  0.67355  0.17919  Biso   1.000  Zn
  Zn11     1.0000 0.97724  0.11471  0.58628  Biso   1.000  Zn
  Zn12     1.0000 0.95002  0.36180  0.41311  Biso   1.000  Zn
  N37      1.0000 0.72910  0.60030  0.21840  Biso   1.000  N
  N38      1.0000 0.88590  0.40510  0.39460  Biso   1.000  N
  N39      1.0000 0.54140  0.41510  0.39289  Biso   1.000  N
  N40      1.0000 0.75743  0.47570  0.32067  Biso   1.000  N
  N41      1.0000 0.67400  0.48040  0.31911  Biso   1.000  N
  N42      1.0000 0.71355  0.43760  0.36392  Biso   1.000  N
  N43      1.0000 0.94581  0.41950  0.45542  Biso   1.000  N
  N44      1.0000 0.94900  0.98200  0.57739  Biso   1.000  N
  N45      1.0000 0.80040  0.40610  0.64918  Biso   1.000  N
  N46      1.0000 0.92180  0.65280  0.53897  Biso   1.000  N
  N47      1.0000 0.87830  0.65320  0.58458  Biso   1.000  N
  N48      1.0000 0.88670  0.50960  0.55721  Biso   1.000  N
  C109     1.0000 0.68710  0.60220  0.23279  Biso   1.000  C
  H73      1.0000 0.66060  0.63070  0.22310  Biso   1.000  H
  C110     1.0000 0.68100  0.56460  0.26097  Biso   1.000  C
  H74      1.0000 0.65060  0.56560  0.27030  Biso   1.000  H
  C111     1.0000 0.72010  0.52520  0.27542  Biso   1.000  C
  C112     1.0000 0.76240  0.52220  0.26095  Biso   1.000  C
  H75      1.0000 0.78940  0.49480  0.27040  Biso   1.000  H
  C113     1.0000 0.76620  0.55930  0.23215  Biso   1.000  C
  H76      1.0000 0.79590  0.55560  0.22200  Biso   1.000  H
  C114     1.0000 0.71580  0.49030  0.30707  Biso   1.000  C
  C115     1.0000 0.67430  0.45350  0.34794  Biso   1.000  C
  C116     1.0000 0.75430  0.45090  0.34945  Biso   1.000  C
  C117     1.0000 0.62810  0.44150  0.36323  Biso   1.000  C
  C118     1.0000 0.58550  0.45170  0.34859  Biso   1.000  C
  H77      1.0000 0.58480  0.46810  0.32800  Biso   1.000  H
  C119     1.0000 0.54350  0.43780  0.36408  Biso   1.000  C
  H78      1.0000 0.51440  0.44490  0.35350  Biso   1.000  H
  C120     1.0000 0.58320  0.40720  0.40722  Biso   1.000  C
  H79      1.0000 0.58270  0.39250  0.42800  Biso   1.000  H
  C121     1.0000 0.62630  0.41890  0.39372  Biso   1.000  C
  H80      1.0000 0.65490  0.41190  0.40490  Biso   1.000  H
  C122     1.0000 0.79970  0.43600  0.36555  Biso   1.000  C
  C123     1.0000 0.80060  0.40570  0.39500  Biso   1.000  C
  H81      1.0000 0.77190  0.39490  0.40570  Biso   1.000  H
  C124     1.0000 0.84480  0.39120  0.40866  Biso   1.000  C
  H82      1.0000 0.84540  0.37040  0.42890  Biso   1.000  H
  C125     1.0000 0.88430  0.43590  0.36612  Biso   1.000  C
  H83      1.0000 0.91350  0.44700  0.35590  Biso   1.000  H
  C126     1.0000 0.84300  0.45170  0.35126  Biso   1.000  C
  H84      1.0000 0.84360  0.47340  0.33110  Biso   1.000  H
  C127     1.0000 0.92810  0.37090  0.47841  Biso   1.000  C
  H85      1.0000 0.92260  0.30440  0.47610  Biso   1.000  H
  C128     1.0000 0.91760  0.41280  0.50541  Biso   1.000  C
  H86      1.0000 0.90540  0.37580  0.52150  Biso   1.000  H
  C129     1.0000 0.92500  0.50980  0.50876  Biso   1.000  C
  C130     1.0000 0.94480  0.55930  0.48532  Biso   1.000  C
  H87      1.0000 0.95190  0.62530  0.48730  Biso   1.000  H
  C131     1.0000 0.95450  0.51240  0.45878  Biso   1.000  C
  H88      1.0000 0.96770  0.54730  0.44250  Biso   1.000  H
  C132     1.0000 0.91040  0.56040  0.53661  Biso   1.000  C
  C133     1.0000 0.87180  0.56080  0.58028  Biso   1.000  C
  C134     1.0000 0.90520  0.69570  0.56314  Biso   1.000  C
  C135     1.0000 0.95400  0.93980  0.55087  Biso   1.000  C
  H89      1.0000 0.96860  0.97500  0.53520  Biso   1.000  H
  C136     1.0000 0.93920  0.84830  0.54492  Biso   1.000  C
  H90      1.0000 0.94290  0.82170  0.52550  Biso   1.000  H
  C137     1.0000 0.91880  0.79570  0.56778  Biso   1.000  C
  C138     1.0000 0.91180  0.84090  0.59490  Biso   1.000  C
  H91      1.0000 0.89630  0.80810  0.61080  Biso   1.000  H
  C139     1.0000 0.92690  0.93240  0.59885  Biso   1.000  C
  H92      1.0000 0.92160  0.96220  0.61760  Biso   1.000  H
  C140     1.0000 0.84670  0.50670  0.60474  Biso   1.000  C
  C141     1.0000 0.84620  0.41000  0.60442  Biso   1.000  C
  H93      1.0000 0.86150  0.37580  0.58880  Biso   1.000  H
  C142     1.0000 0.82310  0.36150  0.62730  Biso   1.000  C
  H94      1.0000 0.82350  0.29360  0.62720  Biso   1.000  H
  C143     1.0000 0.80160  0.49910  0.64950  Biso   1.000  C
  H95      1.0000 0.78550  0.53170  0.66520  Biso   1.000  H
  C144     1.0000 0.82520  0.55280  0.62806  Biso   1.000  C
  H96      1.0000 0.82650  0.62050  0.62960  Biso   1.000  H
  I25      1.0000 0.80152  0.33590  0.18441  Biso   1.000  I
  I26      1.0000 0.67404  0.17218  0.16543  Biso   1.000  I
  I27      1.0000 0.57433  0.69357  0.62518  Biso   1.000  I
  I28      1.0000 0.50449  0.69552  0.53638  Biso   1.000  I
  I29      1.0000 0.55804  0.68082  0.41657  Biso   1.000  I
  I30      1.0000 0.48538  0.94464  0.38359  Biso   1.000  I
  Zn13     1.0000 0.76185  0.17355  0.17919  Biso   1.000  Zn
  Zn14     1.0000 0.52276  0.61471  0.58628  Biso   1.000  Zn
  Zn15     1.0000 0.54998  0.86180  0.41311  Biso   1.000  Zn
  N49      1.0000 0.77090  0.10030  0.21840  Biso   1.000  N
  N50      1.0000 0.61410  0.90510  0.39460  Biso   1.000  N
  N51      1.0000 0.95860  0.91510  0.39289  Biso   1.000  N
  N52      1.0000 0.74257  0.97570  0.32067  Biso   1.000  N
  N53      1.0000 0.82600  0.98040  0.31911  Biso   1.000  N
  N54      1.0000 0.78645  0.93760  0.36392  Biso   1.000  N
  N55      1.0000 0.55419  0.91950  0.45542  Biso   1.000  N
  N56      1.0000 0.55100  0.48200  0.57739  Biso   1.000  N
  N57      1.0000 0.69960  0.90610  0.64918  Biso   1.000  N
  N58      1.0000 0.57820  0.15280  0.53897  Biso   1.000  N
  N59      1.0000 0.62170  0.15320  0.58458  Biso   1.000  N
  N60      1.0000 0.61330  0.00960  0.55721  Biso   1.000  N
  C145     1.0000 0.81290  0.10220  0.23279  Biso   1.000  C
  H97      1.0000 0.83940  0.13070  0.22310  Biso   1.000  H
  C146     1.0000 0.81900  0.06460  0.26097  Biso   1.000  C
  H98      1.0000 0.84940  0.06560  0.27030  Biso   1.000  H
  C147     1.0000 0.77990  0.02520  0.27542  Biso   1.000  C
  C148     1.0000 0.73760  0.02220  0.26095  Biso   1.000  C
  H99      1.0000 0.71060  0.99480  0.27040  Biso   1.000  H
  C149     1.0000 0.73380  0.05930  0.23215  Biso   1.000  C
  H100     1.0000 0.70410  0.05560  0.22200  Biso   1.000  H
  C150     1.0000 0.78420  0.99030  0.30707  Biso   1.000  C
  C151     1.0000 0.82570  0.95350  0.34794  Biso   1.000  C
  C152     1.0000 0.74570  0.95090  0.34945  Biso   1.000  C
  C153     1.0000 0.87190  0.94150  0.36323  Biso   1.000  C
  C154     1.0000 0.91450  0.95170  0.34859  Biso   1.000  C
  H101     1.0000 0.91520  0.96810  0.32800  Biso   1.000  H
  C155     1.0000 0.95650  0.93780  0.36408  Biso   1.000  C
  H102     1.0000 0.98560  0.94490  0.35350  Biso   1.000  H
  C156     1.0000 0.91680  0.90720  0.40722  Biso   1.000  C
  H103     1.0000 0.91730  0.89250  0.42800  Biso   1.000  H
  C157     1.0000 0.87370  0.91890  0.39372  Biso   1.000  C
  H104     1.0000 0.84510  0.91190  0.40490  Biso   1.000  H
  C158     1.0000 0.70030  0.93600  0.36555  Biso   1.000  C
  C159     1.0000 0.69940  0.90570  0.39500  Biso   1.000  C
  H105     1.0000 0.72810  0.89490  0.40570  Biso   1.000  H
  C160     1.0000 0.65520  0.89120  0.40866  Biso   1.000  C
  H106     1.0000 0.65460  0.87040  0.42890  Biso   1.000  H
  C161     1.0000 0.61570  0.93590  0.36612  Biso   1.000  C
  H107     1.0000 0.58650  0.94700  0.35590  Biso   1.000  H
  C162     1.0000 0.65700  0.95170  0.35126  Biso   1.000  C
  H108     1.0000 0.65640  0.97340  0.33110  Biso   1.000  H
  C163     1.0000 0.57190  0.87090  0.47841  Biso   1.000  C
  H109     1.0000 0.57740  0.80440  0.47610  Biso   1.000  H
  C164     1.0000 0.58240  0.91280  0.50541  Biso   1.000  C
  H110     1.0000 0.59460  0.87580  0.52150  Biso   1.000  H
  C165     1.0000 0.57500  0.00980  0.50876  Biso   1.000  C
  C166     1.0000 0.55520  0.05930  0.48532  Biso   1.000  C
  H111     1.0000 0.54810  0.12530  0.48730  Biso   1.000  H
  C167     1.0000 0.54550  0.01240  0.45878  Biso   1.000  C
  H112     1.0000 0.53230  0.04730  0.44250  Biso   1.000  H
  C168     1.0000 0.58960  0.06040  0.53661  Biso   1.000  C
  C169     1.0000 0.62820  0.06080  0.58028  Biso   1.000  C
  C170     1.0000 0.59480  0.19570  0.56314  Biso   1.000  C
  C171     1.0000 0.54600  0.43980  0.55087  Biso   1.000  C
  H113     1.0000 0.53140  0.47500  0.53520  Biso   1.000  H
  C172     1.0000 0.56080  0.34830  0.54492  Biso   1.000  C
  H114     1.0000 0.55710  0.32170  0.52550  Biso   1.000  H
  C173     1.0000 0.58120  0.29570  0.56778  Biso   1.000  C
  C174     1.0000 0.58820  0.34090  0.59490  Biso   1.000  C
  H115     1.0000 0.60370  0.30810  0.61080  Biso   1.000  H
  C175     1.0000 0.57310  0.43240  0.59885  Biso   1.000  C
  H116     1.0000 0.57840  0.46220  0.61760  Biso   1.000  H
  C176     1.0000 0.65330  0.00670  0.60474  Biso   1.000  C
  C177     1.0000 0.65380  0.91000  0.60442  Biso   1.000  C
  H117     1.0000 0.63850  0.87580  0.58880  Biso   1.000  H
  C178     1.0000 0.67690  0.86150  0.62730  Biso   1.000  C
  H118     1.0000 0.67650  0.79360  0.62720  Biso   1.000  H
  C179     1.0000 0.69840  0.99910  0.64950  Biso   1.000  C
  H119     1.0000 0.71450  0.03170  0.66520  Biso   1.000  H
  C180     1.0000 0.67480  0.05280  0.62806  Biso   1.000  C
  H120     1.0000 0.67350  0.12050  0.62960  Biso   1.000  H
  I31      1.0000 0.69848  0.66410  0.68441  Biso   1.000  I
  I32      1.0000 0.82596  0.82782  0.66543  Biso   1.000  I
  I33      1.0000 0.92567  0.30643  0.12518  Biso   1.000  I
  I34      1.0000 0.99551  0.30448  0.03638  Biso   1.000  I
  I35      1.0000 0.94196  0.31918  0.91657  Biso   1.000  I
  I36      1.0000 0.01462  0.05536  0.88359  Biso   1.000  I
  Zn16     1.0000 0.73815  0.82645  0.67919  Biso   1.000  Zn
  Zn17     1.0000 0.97724  0.38529  0.08628  Biso   1.000  Zn
  Zn18     1.0000 0.95002  0.13820  0.91311  Biso   1.000  Zn
  N61      1.0000 0.72910  0.89970  0.71840  Biso   1.000  N
  N62      1.0000 0.88590  0.09490  0.89460  Biso   1.000  N
  N63      1.0000 0.54140  0.08490  0.89289  Biso   1.000  N
  N64      1.0000 0.75743  0.02430  0.82067  Biso   1.000  N
  N65      1.0000 0.67400  0.01960  0.81911  Biso   1.000  N
  N66      1.0000 0.71355  0.06240  0.86392  Biso   1.000  N
  N67      1.0000 0.94581  0.08050  0.95542  Biso   1.000  N
  N68      1.0000 0.94900  0.51800  0.07739  Biso   1.000  N
  N69      1.0000 0.80040  0.09390  0.14918  Biso   1.000  N
  N70      1.0000 0.92180  0.84720  0.03897  Biso   1.000  N
  N71      1.0000 0.87830  0.84680  0.08458  Biso   1.000  N
  N72      1.0000 0.88670  0.99040  0.05721  Biso   1.000  N
  C181     1.0000 0.68710  0.89780  0.73279  Biso   1.000  C
  H121     1.0000 0.66060  0.86930  0.72310  Biso   1.000  H
  C182     1.0000 0.68100  0.93540  0.76097  Biso   1.000  C
  H122     1.0000 0.65060  0.93440  0.77030  Biso   1.000  H
  C183     1.0000 0.72010  0.97480  0.77542  Biso   1.000  C
  C184     1.0000 0.76240  0.97780  0.76095  Biso   1.000  C
  H123     1.0000 0.78940  0.00520  0.77040  Biso   1.000  H
  C185     1.0000 0.76620  0.94070  0.73215  Biso   1.000  C
  H124     1.0000 0.79590  0.94440  0.72200  Biso   1.000  H
  C186     1.0000 0.71580  0.00970  0.80707  Biso   1.000  C
  C187     1.0000 0.67430  0.04650  0.84794  Biso   1.000  C
  C188     1.0000 0.75430  0.04910  0.84945  Biso   1.000  C
  C189     1.0000 0.62810  0.05850  0.86323  Biso   1.000  C
  C190     1.0000 0.58550  0.04830  0.84859  Biso   1.000  C
  H125     1.0000 0.58480  0.03190  0.82800  Biso   1.000  H
  C191     1.0000 0.54350  0.06220  0.86408  Biso   1.000  C
  H126     1.0000 0.51440  0.05510  0.85350  Biso   1.000  H
  C192     1.0000 0.58320  0.09280  0.90722  Biso   1.000  C
  H127     1.0000 0.58270  0.10750  0.92800  Biso   1.000  H
  C193     1.0000 0.62630  0.08110  0.89372  Biso   1.000  C
  H128     1.0000 0.65490  0.08810  0.90490  Biso   1.000  H
  C194     1.0000 0.79970  0.06400  0.86555  Biso   1.000  C
  C195     1.0000 0.80060  0.09430  0.89500  Biso   1.000  C
  H129     1.0000 0.77190  0.10510  0.90570  Biso   1.000  H
  C196     1.0000 0.84480  0.10880  0.90866  Biso   1.000  C
  H130     1.0000 0.84540  0.12960  0.92890  Biso   1.000  H
  C197     1.0000 0.88430  0.06410  0.86612  Biso   1.000  C
  H131     1.0000 0.91350  0.05300  0.85590  Biso   1.000  H
  C198     1.0000 0.84300  0.04830  0.85126  Biso   1.000  C
  H132     1.0000 0.84360  0.02660  0.83110  Biso   1.000  H
  C199     1.0000 0.92810  0.12910  0.97841  Biso   1.000  C
  H133     1.0000 0.92260  0.19560  0.97610  Biso   1.000  H
  C200     1.0000 0.91760  0.08720  0.00541  Biso   1.000  C
  H134     1.0000 0.90540  0.12420  0.02150  Biso   1.000  H
  C201     1.0000 0.92500  0.99020  0.00876  Biso   1.000  C
  C202     1.0000 0.94480  0.94070  0.98532  Biso   1.000  C
  H135     1.0000 0.95190  0.87470  0.98730  Biso   1.000  H
  C203     1.0000 0.95450  0.98760  0.95878  Biso   1.000  C
  H136     1.0000 0.96770  0.95270  0.94250  Biso   1.000  H
  C204     1.0000 0.91040  0.93960  0.03661  Biso   1.000  C
  C205     1.0000 0.87180  0.93920  0.08028  Biso   1.000  C
  C206     1.0000 0.90520  0.80430  0.06314  Biso   1.000  C
  C207     1.0000 0.95400  0.56020  0.05087  Biso   1.000  C
  H137     1.0000 0.96860  0.52500  0.03520  Biso   1.000  H
  C208     1.0000 0.93920  0.65170  0.04492  Biso   1.000  C
  H138     1.0000 0.94290  0.67830  0.02550  Biso   1.000  H
  C209     1.0000 0.91880  0.70430  0.06778  Biso   1.000  C
  C210     1.0000 0.91180  0.65910  0.09490  Biso   1.000  C
  H139     1.0000 0.89630  0.69190  0.11080  Biso   1.000  H
  C211     1.0000 0.92690  0.56760  0.09885  Biso   1.000  C
  H140     1.0000 0.92160  0.53780  0.11760  Biso   1.000  H
  C212     1.0000 0.84670  0.99330  0.10474  Biso   1.000  C
  C213     1.0000 0.84620  0.09000  0.10442  Biso   1.000  C
  H141     1.0000 0.86150  0.12420  0.08880  Biso   1.000  H
  C214     1.0000 0.82310  0.13850  0.12730  Biso   1.000  C
  H142     1.0000 0.82350  0.20640  0.12720  Biso   1.000  H
  C215     1.0000 0.80160  0.00090  0.14950  Biso   1.000  C
  H143     1.0000 0.78550  0.96830  0.16520  Biso   1.000  H
  C216     1.0000 0.82520  0.94720  0.12806  Biso   1.000  C
  H144     1.0000 0.82650  0.87950  0.12960  Biso   1.000  H
  I37      1.0000 0.19848  0.83590  0.31559  Biso   1.000  I
  I38      1.0000 0.32596  0.67218  0.33457  Biso   1.000  I
  I39      1.0000 0.42567  0.19357  0.87482  Biso   1.000  I
  I40      1.0000 0.49551  0.19552  0.96362  Biso   1.000  I
  I41      1.0000 0.44196  0.18082  0.08343  Biso   1.000  I
  I42      1.0000 0.51462  0.44464  0.11641  Biso   1.000  I
  Zn19     1.0000 0.23815  0.67355  0.32081  Biso   1.000  Zn
  Zn20     1.0000 0.47724  0.11471  0.91372  Biso   1.000  Zn
  Zn21     1.0000 0.45002  0.36180  0.08689  Biso   1.000  Zn
  N73      1.0000 0.22910  0.60030  0.28160  Biso   1.000  N
  N74      1.0000 0.38590  0.40510  0.10540  Biso   1.000  N
  N75      1.0000 0.04140  0.41510  0.10711  Biso   1.000  N
  N76      1.0000 0.25743  0.47570  0.17933  Biso   1.000  N
  N77      1.0000 0.17400  0.48040  0.18089  Biso   1.000  N
  N78      1.0000 0.21355  0.43760  0.13608  Biso   1.000  N
  N79      1.0000 0.44581  0.41950  0.04458  Biso   1.000  N
  N80      1.0000 0.44900  0.98200  0.92261  Biso   1.000  N
  N81      1.0000 0.30040  0.40610  0.85082  Biso   1.000  N
  N82      1.0000 0.42180  0.65280  0.96103  Biso   1.000  N
  N83      1.0000 0.37830  0.65320  0.91542  Biso   1.000  N
  N84      1.0000 0.38670  0.50960  0.94279  Biso   1.000  N
  C217     1.0000 0.18710  0.60220  0.26721  Biso   1.000  C
  H145     1.0000 0.16060  0.63070  0.27690  Biso   1.000  H
  C218     1.0000 0.18100  0.56460  0.23903  Biso   1.000  C
  H146     1.0000 0.15060  0.56560  0.22970  Biso   1.000  H
  C219     1.0000 0.22010  0.52520  0.22458  Biso   1.000  C
  C220     1.0000 0.26240  0.52220  0.23905  Biso   1.000  C
  H147     1.0000 0.28940  0.49480  0.22960  Biso   1.000  H
  C221     1.0000 0.26620  0.55930  0.26785  Biso   1.000  C
  H148     1.0000 0.29590  0.55560  0.27800  Biso   1.000  H
  C222     1.0000 0.21580  0.49030  0.19293  Biso   1.000  C
  C223     1.0000 0.17430  0.45350  0.15206  Biso   1.000  C
  C224     1.0000 0.25430  0.45090  0.15055  Biso   1.000  C
  C225     1.0000 0.12810  0.44150  0.13677  Biso   1.000  C
  C226     1.0000 0.08550  0.45170  0.15141  Biso   1.000  C
  H149     1.0000 0.08480  0.46810  0.17200  Biso   1.000  H
  C227     1.0000 0.04350  0.43780  0.13592  Biso   1.000  C
  H150     1.0000 0.01440  0.44490  0.14650  Biso   1.000  H
  C228     1.0000 0.08320  0.40720  0.09278  Biso   1.000  C
  H151     1.0000 0.08270  0.39250  0.07200  Biso   1.000  H
  C229     1.0000 0.12630  0.41890  0.10628  Biso   1.000  C
  H152     1.0000 0.15490  0.41190  0.09510  Biso   1.000  H
  C230     1.0000 0.29970  0.43600  0.13445  Biso   1.000  C
  C231     1.0000 0.30060  0.40570  0.10500  Biso   1.000  C
  H153     1.0000 0.27190  0.39490  0.09430  Biso   1.000  H
  C232     1.0000 0.34480  0.39120  0.09134  Biso   1.000  C
  H154     1.0000 0.34540  0.37040  0.07110  Biso   1.000  H
  C233     1.0000 0.38430  0.43590  0.13388  Biso   1.000  C
  H155     1.0000 0.41350  0.44700  0.14410  Biso   1.000  H
  C234     1.0000 0.34300  0.45170  0.14874  Biso   1.000  C
  H156     1.0000 0.34360  0.47340  0.16890  Biso   1.000  H
  C235     1.0000 0.42810  0.37090  0.02159  Biso   1.000  C
  H157     1.0000 0.42260  0.30440  0.02390  Biso   1.000  H
  C236     1.0000 0.41760  0.41280  0.99459  Biso   1.000  C
  H158     1.0000 0.40540  0.37580  0.97850  Biso   1.000  H
  C237     1.0000 0.42500  0.50980  0.99124  Biso   1.000  C
  C238     1.0000 0.44480  0.55930  0.01468  Biso   1.000  C
  H159     1.0000 0.45190  0.62530  0.01270  Biso   1.000  H
  C239     1.0000 0.45450  0.51240  0.04122  Biso   1.000  C
  H160     1.0000 0.46770  0.54730  0.05750  Biso   1.000  H
  C240     1.0000 0.41040  0.56040  0.96339  Biso   1.000  C
  C241     1.0000 0.37180  0.56080  0.91972  Biso   1.000  C
  C242     1.0000 0.40520  0.69570  0.93686  Biso   1.000  C
  C243     1.0000 0.45400  0.93980  0.94913  Biso   1.000  C
  H161     1.0000 0.46860  0.97500  0.96480  Biso   1.000  H
  C244     1.0000 0.43920  0.84830  0.95508  Biso   1.000  C
  H162     1.0000 0.44290  0.82170  0.97450  Biso   1.000  H
  C245     1.0000 0.41880  0.79570  0.93222  Biso   1.000  C
  C246     1.0000 0.41180  0.84090  0.90510  Biso   1.000  C
  H163     1.0000 0.39630  0.80810  0.88920  Biso   1.000  H
  C247     1.0000 0.42690  0.93240  0.90115  Biso   1.000  C
  H164     1.0000 0.42160  0.96220  0.88240  Biso   1.000  H
  C248     1.0000 0.34670  0.50670  0.89526  Biso   1.000  C
  C249     1.0000 0.34620  0.41000  0.89558  Biso   1.000  C
  H165     1.0000 0.36150  0.37580  0.91120  Biso   1.000  H
  C250     1.0000 0.32310  0.36150  0.87270  Biso   1.000  C
  H166     1.0000 0.32350  0.29360  0.87280  Biso   1.000  H
  C251     1.0000 0.30160  0.49910  0.85050  Biso   1.000  C
  H167     1.0000 0.28550  0.53170  0.83480  Biso   1.000  H
  C252     1.0000 0.32520  0.55280  0.87194  Biso   1.000  C
  H168     1.0000 0.32650  0.62050  0.87040  Biso   1.000  H
  I43      1.0000 0.30152  0.16410  0.81559  Biso   1.000  I
  I44      1.0000 0.17404  0.32782  0.83457  Biso   1.000  I
  I45      1.0000 0.07433  0.80643  0.37482  Biso   1.000  I
  I46      1.0000 0.00449  0.80448  0.46362  Biso   1.000  I
  I47      1.0000 0.05804  0.81918  0.58343  Biso   1.000  I
  I48      1.0000 0.98538  0.55536  0.61641  Biso   1.000  I
  Zn22     1.0000 0.26185  0.32645  0.82081  Biso   1.000  Zn
  Zn23     1.0000 0.02276  0.88529  0.41372  Biso   1.000  Zn
  Zn24     1.0000 0.04998  0.63820  0.58689  Biso   1.000  Zn
  N85      1.0000 0.27090  0.39970  0.78160  Biso   1.000  N
  N86      1.0000 0.11410  0.59490  0.60540  Biso   1.000  N
  N87      1.0000 0.45860  0.58490  0.60711  Biso   1.000  N
  N88      1.0000 0.24257  0.52430  0.67933  Biso   1.000  N
  N89      1.0000 0.32600  0.51960  0.68089  Biso   1.000  N
  N90      1.0000 0.28645  0.56240  0.63608  Biso   1.000  N
  N91      1.0000 0.05419  0.58050  0.54458  Biso   1.000  N
  N92      1.0000 0.05100  0.01800  0.42261  Biso   1.000  N
  N93      1.0000 0.19960  0.59390  0.35082  Biso   1.000  N
  N94      1.0000 0.07820  0.34720  0.46103  Biso   1.000  N
  N95      1.0000 0.12170  0.34680  0.41542  Biso   1.000  N
  N96      1.0000 0.11330  0.49040  0.44279  Biso   1.000  N
  C253     1.0000 0.31290  0.39780  0.76721  Biso   1.000  C
  H169     1.0000 0.33940  0.36930  0.77690  Biso   1.000  H
  C254     1.0000 0.31900  0.43540  0.73903  Biso   1.000  C
  H170     1.0000 0.34940  0.43440  0.72970  Biso   1.000  H
  C255     1.0000 0.27990  0.47480  0.72458  Biso   1.000  C
  C256     1.0000 0.23760  0.47780  0.73905  Biso   1.000  C
  H171     1.0000 0.21060  0.50520  0.72960  Biso   1.000  H
  C257     1.0000 0.23380  0.44070  0.76785  Biso   1.000  C
  H172     1.0000 0.20410  0.44440  0.77800  Biso   1.000  H
  C258     1.0000 0.28420  0.50970  0.69293  Biso   1.000  C
  C259     1.0000 0.32570  0.54650  0.65206  Biso   1.000  C
  C260     1.0000 0.24570  0.54910  0.65055  Biso   1.000  C
  C261     1.0000 0.37190  0.55850  0.63677  Biso   1.000  C
  C262     1.0000 0.41450  0.54830  0.65141  Biso   1.000  C
  H173     1.0000 0.41520  0.53190  0.67200  Biso   1.000  H
  C263     1.0000 0.45650  0.56220  0.63592  Biso   1.000  C
  H174     1.0000 0.48560  0.55510  0.64650  Biso   1.000  H
  C264     1.0000 0.41680  0.59280  0.59278  Biso   1.000  C
  H175     1.0000 0.41730  0.60750  0.57200  Biso   1.000  H
  C265     1.0000 0.37370  0.58110  0.60628  Biso   1.000  C
  H176     1.0000 0.34510  0.58810  0.59510  Biso   1.000  H
  C266     1.0000 0.20030  0.56400  0.63445  Biso   1.000  C
  C267     1.0000 0.19940  0.59430  0.60500  Biso   1.000  C
  H177     1.0000 0.22810  0.60510  0.59430  Biso   1.000  H
  C268     1.0000 0.15520  0.60880  0.59134  Biso   1.000  C
  H178     1.0000 0.15460  0.62960  0.57110  Biso   1.000  H
  C269     1.0000 0.11570  0.56410  0.63388  Biso   1.000  C
  H179     1.0000 0.08650  0.55300  0.64410  Biso   1.000  H
  C270     1.0000 0.15700  0.54830  0.64874  Biso   1.000  C
  H180     1.0000 0.15640  0.52660  0.66890  Biso   1.000  H
  C271     1.0000 0.07190  0.62910  0.52159  Biso   1.000  C
  H181     1.0000 0.07740  0.69560  0.52390  Biso   1.000  H
  C272     1.0000 0.08240  0.58720  0.49459  Biso   1.000  C
  H182     1.0000 0.09460  0.62420  0.47850  Biso   1.000  H
  C273     1.0000 0.07500  0.49020  0.49124  Biso   1.000  C
  C274     1.0000 0.05520  0.44070  0.51468  Biso   1.000  C
  H183     1.0000 0.04810  0.37470  0.51270  Biso   1.000  H
  C275     1.0000 0.04550  0.48760  0.54122  Biso   1.000  C
  H184     1.0000 0.03230  0.45270  0.55750  Biso   1.000  H
  C276     1.0000 0.08960  0.43960  0.46339  Biso   1.000  C
  C277     1.0000 0.12820  0.43920  0.41972  Biso   1.000  C
  C278     1.0000 0.09480  0.30430  0.43686  Biso   1.000  C
  C279     1.0000 0.04600  0.06020  0.44913  Biso   1.000  C
  H185     1.0000 0.03140  0.02500  0.46480  Biso   1.000  H
  C280     1.0000 0.06080  0.15170  0.45508  Biso   1.000  C
  H186     1.0000 0.05710  0.17830  0.47450  Biso   1.000  H
  C281     1.0000 0.08120  0.20430  0.43222  Biso   1.000  C
  C282     1.0000 0.08820  0.15910  0.40510  Biso   1.000  C
  H187     1.0000 0.10370  0.19190  0.38920  Biso   1.000  H
  C283     1.0000 0.07310  0.06760  0.40115  Biso   1.000  C
  H188     1.0000 0.07840  0.03780  0.38240  Biso   1.000  H
  C284     1.0000 0.15330  0.49330  0.39526  Biso   1.000  C
  C285     1.0000 0.15380  0.59000  0.39558  Biso   1.000  C
  H189     1.0000 0.13850  0.62420  0.41120  Biso   1.000  H
  C286     1.0000 0.17690  0.63850  0.37270  Biso   1.000  C
  H190     1.0000 0.17650  0.70640  0.37280  Biso   1.000  H
  C287     1.0000 0.19840  0.50090  0.35050  Biso   1.000  C
  H191     1.0000 0.21450  0.46830  0.33480  Biso   1.000  H
  C288     1.0000 0.17480  0.44720  0.37194  Biso   1.000  C
  H192     1.0000 0.17350  0.37950  0.37040  Biso   1.000  H
