data_image0
_cell_length_a       19.6025
_cell_length_b       23.5274
_cell_length_c       25.9223
_cell_angle_alpha    90
_cell_angle_beta     90
_cell_angle_gamma    90

_symmetry_space_group_name_H-M    "P 1"
_symmetry_int_tables_number       1

loop_
  _symmetry_equiv_pos_as_xyz
  'x, y, z'

loop_
  _atom_site_label
  _atom_site_occupancy
  _atom_site_fract_x
  _atom_site_fract_y
  _atom_site_fract_z
  _atom_site_thermal_displace_type
  _atom_site_B_iso_or_equiv
  _atom_site_type_symbol
  Ni1      1.0000 0.31620  0.33524  0.20028  Biso   1.000  Ni
  O1       1.0000 0.95578  0.31981  0.22792  Biso   1.000  O
  O2       1.0000 0.91264  0.36338  0.29714  Biso   1.000  O
  O3       1.0000 0.21078  0.32640  0.21488  Biso   1.000  O
  O4       1.0000 0.26743  0.39625  0.25100  Biso   1.000  O
  O5       1.0000 0.08408  0.51714  0.33438  Biso   1.000  O
  C1       1.0000 0.75765  0.38041  0.60693  Biso   1.000  C
  H1       1.0000 0.77130  0.34190  0.60330  Biso   1.000  H
  C2       1.0000 0.78994  0.42040  0.57724  Biso   1.000  C
  H2       1.0000 0.82470  0.40930  0.55370  Biso   1.000  H
  C3       1.0000 0.77167  0.47712  0.58164  Biso   1.000  C
  C4       1.0000 0.71856  0.48933  0.61505  Biso   1.000  C
  H3       1.0000 0.70280  0.52730  0.61860  Biso   1.000  H
  C5       1.0000 0.68881  0.44656  0.64296  Biso   1.000  C
  H4       1.0000 0.65220  0.45610  0.66530  Biso   1.000  H
  C6       1.0000 0.80991  0.52319  0.55507  Biso   1.000  C
  C7       1.0000 0.85011  0.51393  0.51165  Biso   1.000  C
  H5       1.0000 0.85060  0.47750  0.49590  Biso   1.000  H
  C8       1.0000 0.88944  0.55750  0.49122  Biso   1.000  C
  C9       1.0000 0.88591  0.61023  0.51543  Biso   1.000  C
  H6       1.0000 0.91170  0.64150  0.50280  Biso   1.000  H
  C10      1.0000 0.84396  0.61651  0.55844  Biso   1.000  C
  C11      1.0000 0.83971  0.67070  0.58831  Biso   1.000  C
  C12      1.0000 0.88967  0.71140  0.58899  Biso   1.000  C
  H7       1.0000 0.92930  0.70680  0.56830  Biso   1.000  H
  C13      1.0000 0.88261  0.75924  0.61968  Biso   1.000  C
  H8       1.0000 0.91770  0.78710  0.61890  Biso   1.000  H
  C14      1.0000 0.78123  0.72810  0.64936  Biso   1.000  C
  H9       1.0000 0.74210  0.73340  0.67040  Biso   1.000  H
  C15      1.0000 0.78487  0.67994  0.62008  Biso   1.000  C
  H10      1.0000 0.74920  0.65270  0.62170  Biso   1.000  H
  C16      1.0000 0.93782  0.54675  0.44826  Biso   1.000  C
  C17      1.0000 0.95938  0.58953  0.41470  Biso   1.000  C
  H11      1.0000 0.94110  0.62670  0.41820  Biso   1.000  H
  C18      1.0000 0.00671  0.57880  0.37650  Biso   1.000  C
  H12      1.0000 0.02020  0.60830  0.35360  Biso   1.000  H
  C19      1.0000 0.03429  0.52532  0.37167  Biso   1.000  C
  C20      1.0000 0.01469  0.48269  0.40476  Biso   1.000  C
  H13      1.0000 0.03450  0.44600  0.40190  Biso   1.000  H
  C21      1.0000 0.96656  0.49327  0.44191  Biso   1.000  C
  H14      1.0000 0.95250  0.46320  0.46390  Biso   1.000  H
  C22      1.0000 0.08361  0.46515  0.30855  Biso   1.000  C
  C23      1.0000 0.02333  0.43650  0.29869  Biso   1.000  C
  H15      1.0000 0.98110  0.45200  0.30980  Biso   1.000  H
  C24      1.0000 0.02470  0.38543  0.27268  Biso   1.000  C
  C25      1.0000 0.08635  0.36432  0.25450  Biso   1.000  C
  H16      1.0000 0.08730  0.32970  0.23560  Biso   1.000  H
  C26      1.0000 0.14627  0.39340  0.26378  Biso   1.000  C
  C27      1.0000 0.14536  0.44426  0.29154  Biso   1.000  C
  H17      1.0000 0.18650  0.46410  0.29860  Biso   1.000  H
  C28      1.0000 0.95942  0.35351  0.26491  Biso   1.000  C
  C29      1.0000 0.21202  0.37107  0.24262  Biso   1.000  C
  N1       1.0000 0.70823  0.39229  0.64062  Biso   1.000  N
  N2       1.0000 0.80604  0.57420  0.57758  Biso   1.000  N
  N3       1.0000 0.82922  0.76792  0.65007  Biso   1.000  N
  Ni2      1.0000 0.81620  0.83524  0.70028  Biso   1.000  Ni
  O6       1.0000 0.45578  0.81981  0.72792  Biso   1.000  O
  O7       1.0000 0.41264  0.86338  0.79714  Biso   1.000  O
  O8       1.0000 0.71078  0.82640  0.71488  Biso   1.000  O
  O9       1.0000 0.76743  0.89625  0.75100  Biso   1.000  O
  O10      1.0000 0.58408  0.01714  0.83438  Biso   1.000  O
  C30      1.0000 0.25765  0.88041  0.10693  Biso   1.000  C
  H18      1.0000 0.27130  0.84190  0.10330  Biso   1.000  H
  C31      1.0000 0.28994  0.92040  0.07724  Biso   1.000  C
  H19      1.0000 0.32470  0.90930  0.05370  Biso   1.000  H
  C32      1.0000 0.27167  0.97712  0.08164  Biso   1.000  C
  C33      1.0000 0.21856  0.98933  0.11505  Biso   1.000  C
  H20      1.0000 0.20280  0.02730  0.11860  Biso   1.000  H
  C34      1.0000 0.18881  0.94656  0.14296  Biso   1.000  C
  H21      1.0000 0.15220  0.95610  0.16530  Biso   1.000  H
  C35      1.0000 0.30991  0.02319  0.05507  Biso   1.000  C
  C36      1.0000 0.35011  0.01393  0.01165  Biso   1.000  C
  H22      1.0000 0.35060  0.97750  0.99590  Biso   1.000  H
  C37      1.0000 0.38944  0.05750  0.99122  Biso   1.000  C
  C38      1.0000 0.38591  0.11023  0.01543  Biso   1.000  C
  H23      1.0000 0.41170  0.14150  0.00280  Biso   1.000  H
  C39      1.0000 0.34396  0.11651  0.05844  Biso   1.000  C
  C40      1.0000 0.33971  0.17070  0.08831  Biso   1.000  C
  C41      1.0000 0.38967  0.21140  0.08899  Biso   1.000  C
  H24      1.0000 0.42930  0.20680  0.06830  Biso   1.000  H
  C42      1.0000 0.38261  0.25924  0.11968  Biso   1.000  C
  H25      1.0000 0.41770  0.28710  0.11890  Biso   1.000  H
  C43      1.0000 0.28123  0.22810  0.14936  Biso   1.000  C
  H26      1.0000 0.24210  0.23340  0.17040  Biso   1.000  H
  C44      1.0000 0.28487  0.17994  0.12008  Biso   1.000  C
  H27      1.0000 0.24920  0.15270  0.12170  Biso   1.000  H
  C45      1.0000 0.43782  0.04675  0.94826  Biso   1.000  C
  C46      1.0000 0.45938  0.08953  0.91470  Biso   1.000  C
  H28      1.0000 0.44110  0.12670  0.91820  Biso   1.000  H
  C47      1.0000 0.50671  0.07880  0.87650  Biso   1.000  C
  H29      1.0000 0.52020  0.10830  0.85360  Biso   1.000  H
  C48      1.0000 0.53429  0.02532  0.87167  Biso   1.000  C
  C49      1.0000 0.51469  0.98269  0.90476  Biso   1.000  C
  H30      1.0000 0.53450  0.94600  0.90190  Biso   1.000  H
  C50      1.0000 0.46656  0.99327  0.94191  Biso   1.000  C
  H31      1.0000 0.45250  0.96320  0.96390  Biso   1.000  H
  C51      1.0000 0.58361  0.96515  0.80855  Biso   1.000  C
  C52      1.0000 0.52333  0.93650  0.79869  Biso   1.000  C
  H32      1.0000 0.48110  0.95200  0.80980  Biso   1.000  H
  C53      1.0000 0.52470  0.88543  0.77268  Biso   1.000  C
  C54      1.0000 0.58635  0.86432  0.75450  Biso   1.000  C
  H33      1.0000 0.58730  0.82970  0.73560  Biso   1.000  H
  C55      1.0000 0.64627  0.89340  0.76378  Biso   1.000  C
  C56      1.0000 0.64536  0.94426  0.79154  Biso   1.000  C
  H34      1.0000 0.68650  0.96410  0.79860  Biso   1.000  H
  C57      1.0000 0.45942  0.85351  0.76491  Biso   1.000  C
  C58      1.0000 0.71202  0.87107  0.74262  Biso   1.000  C
  N4       1.0000 0.20823  0.89229  0.14062  Biso   1.000  N
  N5       1.0000 0.30604  0.07420  0.07758  Biso   1.000  N
  N6       1.0000 0.32922  0.26792  0.15007  Biso   1.000  N
  Ni3      1.0000 0.68380  0.83524  0.29972  Biso   1.000  Ni
  O11      1.0000 0.04422  0.81981  0.27208  Biso   1.000  O
  O12      1.0000 0.08736  0.86338  0.20286  Biso   1.000  O
  O13      1.0000 0.78922  0.82640  0.28512  Biso   1.000  O
  O14      1.0000 0.73257  0.89625  0.24900  Biso   1.000  O
  O15      1.0000 0.91592  0.01714  0.16562  Biso   1.000  O
  C59      1.0000 0.24235  0.88041  0.89307  Biso   1.000  C
  H35      1.0000 0.22870  0.84190  0.89670  Biso   1.000  H
  C60      1.0000 0.21006  0.92040  0.92276  Biso   1.000  C
  H36      1.0000 0.17530  0.90930  0.94630  Biso   1.000  H
  C61      1.0000 0.22833  0.97712  0.91836  Biso   1.000  C
  C62      1.0000 0.28144  0.98933  0.88495  Biso   1.000  C
  H37      1.0000 0.29720  0.02730  0.88140  Biso   1.000  H
  C63      1.0000 0.31119  0.94656  0.85704  Biso   1.000  C
  H38      1.0000 0.34780  0.95610  0.83470  Biso   1.000  H
  C64      1.0000 0.19009  0.02319  0.94493  Biso   1.000  C
  C65      1.0000 0.14989  0.01393  0.98835  Biso   1.000  C
  H39      1.0000 0.14940  0.97750  0.00410  Biso   1.000  H
  C66      1.0000 0.11056  0.05750  0.00878  Biso   1.000  C
  C67      1.0000 0.11409  0.11023  0.98457  Biso   1.000  C
  H40      1.0000 0.08830  0.14150  0.99720  Biso   1.000  H
  C68      1.0000 0.15604  0.11651  0.94156  Biso   1.000  C
  C69      1.0000 0.16029  0.17070  0.91169  Biso   1.000  C
  C70      1.0000 0.11033  0.21140  0.91101  Biso   1.000  C
  H41      1.0000 0.07070  0.20680  0.93170  Biso   1.000  H
  C71      1.0000 0.11739  0.25924  0.88032  Biso   1.000  C
  H42      1.0000 0.08230  0.28710  0.88110  Biso   1.000  H
  C72      1.0000 0.21877  0.22810  0.85064  Biso   1.000  C
  H43      1.0000 0.25790  0.23340  0.82960  Biso   1.000  H
  C73      1.0000 0.21513  0.17994  0.87992  Biso   1.000  C
  H44      1.0000 0.25080  0.15270  0.87830  Biso   1.000  H
  C74      1.0000 0.06218  0.04675  0.05174  Biso   1.000  C
  C75      1.0000 0.04062  0.08953  0.08530  Biso   1.000  C
  H45      1.0000 0.05890  0.12670  0.08180  Biso   1.000  H
  C76      1.0000 0.99329  0.07880  0.12350  Biso   1.000  C
  H46      1.0000 0.97980  0.10830  0.14640  Biso   1.000  H
  C77      1.0000 0.96571  0.02532  0.12833  Biso   1.000  C
  C78      1.0000 0.98531  0.98269  0.09524  Biso   1.000  C
  H47      1.0000 0.96550  0.94600  0.09810  Biso   1.000  H
  C79      1.0000 0.03344  0.99327  0.05809  Biso   1.000  C
  H48      1.0000 0.04750  0.96320  0.03610  Biso   1.000  H
  C80      1.0000 0.91639  0.96515  0.19145  Biso   1.000  C
  C81      1.0000 0.97667  0.93650  0.20131  Biso   1.000  C
  H49      1.0000 0.01890  0.95200  0.19020  Biso   1.000  H
  C82      1.0000 0.97530  0.88543  0.22732  Biso   1.000  C
  C83      1.0000 0.91365  0.86432  0.24550  Biso   1.000  C
  H50      1.0000 0.91270  0.82970  0.26440  Biso   1.000  H
  C84      1.0000 0.85373  0.89340  0.23622  Biso   1.000  C
  C85      1.0000 0.85464  0.94426  0.20846  Biso   1.000  C
  H51      1.0000 0.81350  0.96410  0.20140  Biso   1.000  H
  C86      1.0000 0.04058  0.85351  0.23509  Biso   1.000  C
  C87      1.0000 0.78798  0.87107  0.25738  Biso   1.000  C
  N7       1.0000 0.29177  0.89229  0.85938  Biso   1.000  N
  N8       1.0000 0.19396  0.07420  0.92242  Biso   1.000  N
  N9       1.0000 0.17078  0.26792  0.84993  Biso   1.000  N
  Ni4      1.0000 0.18380  0.33524  0.79972  Biso   1.000  Ni
  O16      1.0000 0.54422  0.31981  0.77208  Biso   1.000  O
  O17      1.0000 0.58736  0.36338  0.70286  Biso   1.000  O
  O18      1.0000 0.28922  0.32640  0.78512  Biso   1.000  O
  O19      1.0000 0.23257  0.39625  0.74900  Biso   1.000  O
  O20      1.0000 0.41592  0.51714  0.66562  Biso   1.000  O
  C88      1.0000 0.74235  0.38041  0.39307  Biso   1.000  C
  H52      1.0000 0.72870  0.34190  0.39670  Biso   1.000  H
  C89      1.0000 0.71006  0.42040  0.42276  Biso   1.000  C
  H53      1.0000 0.67530  0.40930  0.44630  Biso   1.000  H
  C90      1.0000 0.72833  0.47712  0.41836  Biso   1.000  C
  C91      1.0000 0.78144  0.48933  0.38495  Biso   1.000  C
  H54      1.0000 0.79720  0.52730  0.38140  Biso   1.000  H
  C92      1.0000 0.81119  0.44656  0.35704  Biso   1.000  C
  H55      1.0000 0.84780  0.45610  0.33470  Biso   1.000  H
  C93      1.0000 0.69009  0.52319  0.44493  Biso   1.000  C
  C94      1.0000 0.64989  0.51393  0.48835  Biso   1.000  C
  H56      1.0000 0.64940  0.47750  0.50410  Biso   1.000  H
  C95      1.0000 0.61056  0.55750  0.50878  Biso   1.000  C
  C96      1.0000 0.61409  0.61023  0.48457  Biso   1.000  C
  H57      1.0000 0.58830  0.64150  0.49720  Biso   1.000  H
  C97      1.0000 0.65604  0.61651  0.44156  Biso   1.000  C
  C98      1.0000 0.66029  0.67070  0.41169  Biso   1.000  C
  C99      1.0000 0.61033  0.71140  0.41101  Biso   1.000  C
  H58      1.0000 0.57070  0.70680  0.43170  Biso   1.000  H
  C100     1.0000 0.61739  0.75924  0.38032  Biso   1.000  C
  H59      1.0000 0.58230  0.78710  0.38110  Biso   1.000  H
  C101     1.0000 0.71877  0.72810  0.35064  Biso   1.000  C
  H60      1.0000 0.75790  0.73340  0.32960  Biso   1.000  H
  C102     1.0000 0.71513  0.67994  0.37992  Biso   1.000  C
  H61      1.0000 0.75080  0.65270  0.37830  Biso   1.000  H
  C103     1.0000 0.56218  0.54675  0.55174  Biso   1.000  C
  C104     1.0000 0.54062  0.58953  0.58530  Biso   1.000  C
  H62      1.0000 0.55890  0.62670  0.58180  Biso   1.000  H
  C105     1.0000 0.49329  0.57880  0.62350  Biso   1.000  C
  H63      1.0000 0.47980  0.60830  0.64640  Biso   1.000  H
  C106     1.0000 0.46571  0.52532  0.62833  Biso   1.000  C
  C107     1.0000 0.48531  0.48269  0.59524  Biso   1.000  C
  H64      1.0000 0.46550  0.44600  0.59810  Biso   1.000  H
  C108     1.0000 0.53344  0.49327  0.55809  Biso   1.000  C
  H65      1.0000 0.54750  0.46320  0.53610  Biso   1.000  H
  C109     1.0000 0.41639  0.46515  0.69145  Biso   1.000  C
  C110     1.0000 0.47667  0.43650  0.70131  Biso   1.000  C
  H66      1.0000 0.51890  0.45200  0.69020  Biso   1.000  H
  C111     1.0000 0.47530  0.38543  0.72732  Biso   1.000  C
  C112     1.0000 0.41365  0.36432  0.74550  Biso   1.000  C
  H67      1.0000 0.41270  0.32970  0.76440  Biso   1.000  H
  C113     1.0000 0.35373  0.39340  0.73622  Biso   1.000  C
  C114     1.0000 0.35464  0.44426  0.70846  Biso   1.000  C
  H68      1.0000 0.31350  0.46410  0.70140  Biso   1.000  H
  C115     1.0000 0.54058  0.35351  0.73509  Biso   1.000  C
  C116     1.0000 0.28798  0.37107  0.75738  Biso   1.000  C
  N10      1.0000 0.79177  0.39229  0.35938  Biso   1.000  N
  N11      1.0000 0.69396  0.57420  0.42242  Biso   1.000  N
  N12      1.0000 0.67078  0.76792  0.34993  Biso   1.000  N
  Ni5      1.0000 0.81620  0.33524  0.29972  Biso   1.000  Ni
  O21      1.0000 0.45578  0.31981  0.27208  Biso   1.000  O
  O22      1.0000 0.41264  0.36338  0.20286  Biso   1.000  O
  O23      1.0000 0.71078  0.32640  0.28512  Biso   1.000  O
  O24      1.0000 0.76743  0.39625  0.24900  Biso   1.000  O
  O25      1.0000 0.58408  0.51714  0.16562  Biso   1.000  O
  C117     1.0000 0.25765  0.38041  0.89307  Biso   1.000  C
  H69      1.0000 0.27130  0.34190  0.89670  Biso   1.000  H
  C118     1.0000 0.28994  0.42040  0.92276  Biso   1.000  C
  H70      1.0000 0.32470  0.40930  0.94630  Biso   1.000  H
  C119     1.0000 0.27167  0.47712  0.91836  Biso   1.000  C
  C120     1.0000 0.21856  0.48933  0.88495  Biso   1.000  C
  H71      1.0000 0.20280  0.52730  0.88140  Biso   1.000  H
  C121     1.0000 0.18881  0.44656  0.85704  Biso   1.000  C
  H72      1.0000 0.15220  0.45610  0.83470  Biso   1.000  H
  C122     1.0000 0.30991  0.52319  0.94493  Biso   1.000  C
  C123     1.0000 0.35011  0.51393  0.98835  Biso   1.000  C
  H73      1.0000 0.35060  0.47750  0.00410  Biso   1.000  H
  C124     1.0000 0.38944  0.55750  0.00878  Biso   1.000  C
  C125     1.0000 0.38591  0.61023  0.98457  Biso   1.000  C
  H74      1.0000 0.41170  0.64150  0.99720  Biso   1.000  H
  C126     1.0000 0.34396  0.61651  0.94156  Biso   1.000  C
  C127     1.0000 0.33971  0.67070  0.91169  Biso   1.000  C
  C128     1.0000 0.38967  0.71140  0.91101  Biso   1.000  C
  H75      1.0000 0.42930  0.70680  0.93170  Biso   1.000  H
  C129     1.0000 0.38261  0.75924  0.88032  Biso   1.000  C
  H76      1.0000 0.41770  0.78710  0.88110  Biso   1.000  H
  C130     1.0000 0.28123  0.72810  0.85064  Biso   1.000  C
  H77      1.0000 0.24210  0.73340  0.82960  Biso   1.000  H
  C131     1.0000 0.28487  0.67994  0.87992  Biso   1.000  C
  H78      1.0000 0.24920  0.65270  0.87830  Biso   1.000  H
  C132     1.0000 0.43782  0.54675  0.05174  Biso   1.000  C
  C133     1.0000 0.45938  0.58953  0.08530  Biso   1.000  C
  H79      1.0000 0.44110  0.62670  0.08180  Biso   1.000  H
  C134     1.0000 0.50671  0.57880  0.12350  Biso   1.000  C
  H80      1.0000 0.52020  0.60830  0.14640  Biso   1.000  H
  C135     1.0000 0.53429  0.52532  0.12833  Biso   1.000  C
  C136     1.0000 0.51469  0.48269  0.09524  Biso   1.000  C
  H81      1.0000 0.53450  0.44600  0.09810  Biso   1.000  H
  C137     1.0000 0.46656  0.49327  0.05809  Biso   1.000  C
  H82      1.0000 0.45250  0.46320  0.03610  Biso   1.000  H
  C138     1.0000 0.58361  0.46515  0.19145  Biso   1.000  C
  C139     1.0000 0.52333  0.43650  0.20131  Biso   1.000  C
  H83      1.0000 0.48110  0.45200  0.19020  Biso   1.000  H
  C140     1.0000 0.52470  0.38543  0.22732  Biso   1.000  C
  C141     1.0000 0.58635  0.36432  0.24550  Biso   1.000  C
  H84      1.0000 0.58730  0.32970  0.26440  Biso   1.000  H
  C142     1.0000 0.64627  0.39340  0.23622  Biso   1.000  C
  C143     1.0000 0.64536  0.44426  0.20846  Biso   1.000  C
  H85      1.0000 0.68650  0.46410  0.20140  Biso   1.000  H
  C144     1.0000 0.45942  0.35351  0.23509  Biso   1.000  C
  C145     1.0000 0.71202  0.37107  0.25738  Biso   1.000  C
  N13      1.0000 0.20823  0.39229  0.85938  Biso   1.000  N
  N14      1.0000 0.30604  0.57420  0.92242  Biso   1.000  N
  N15      1.0000 0.32922  0.76792  0.84993  Biso   1.000  N
  Ni6      1.0000 0.31620  0.83524  0.79972  Biso   1.000  Ni
  O26      1.0000 0.95578  0.81981  0.77208  Biso   1.000  O
  O27      1.0000 0.91264  0.86338  0.70286  Biso   1.000  O
  O28      1.0000 0.21078  0.82640  0.78512  Biso   1.000  O
  O29      1.0000 0.26743  0.89625  0.74900  Biso   1.000  O
  O30      1.0000 0.08408  0.01714  0.66562  Biso   1.000  O
  C146     1.0000 0.75765  0.88041  0.39307  Biso   1.000  C
  H86      1.0000 0.77130  0.84190  0.39670  Biso   1.000  H
  C147     1.0000 0.78994  0.92040  0.42276  Biso   1.000  C
  H87      1.0000 0.82470  0.90930  0.44630  Biso   1.000  H
  C148     1.0000 0.77167  0.97712  0.41836  Biso   1.000  C
  C149     1.0000 0.71856  0.98933  0.38495  Biso   1.000  C
  H88      1.0000 0.70280  0.02730  0.38140  Biso   1.000  H
  C150     1.0000 0.68881  0.94656  0.35704  Biso   1.000  C
  H89      1.0000 0.65220  0.95610  0.33470  Biso   1.000  H
  C151     1.0000 0.80991  0.02319  0.44493  Biso   1.000  C
  C152     1.0000 0.85011  0.01393  0.48835  Biso   1.000  C
  H90      1.0000 0.85060  0.97750  0.50410  Biso   1.000  H
  C153     1.0000 0.88944  0.05750  0.50878  Biso   1.000  C
  C154     1.0000 0.88591  0.11023  0.48457  Biso   1.000  C
  H91      1.0000 0.91170  0.14150  0.49720  Biso   1.000  H
  C155     1.0000 0.84396  0.11651  0.44156  Biso   1.000  C
  C156     1.0000 0.83971  0.17070  0.41169  Biso   1.000  C
  C157     1.0000 0.88967  0.21140  0.41101  Biso   1.000  C
  H92      1.0000 0.92930  0.20680  0.43170  Biso   1.000  H
  C158     1.0000 0.88261  0.25924  0.38032  Biso   1.000  C
  H93      1.0000 0.91770  0.28710  0.38110  Biso   1.000  H
  C159     1.0000 0.78123  0.22810  0.35064  Biso   1.000  C
  H94      1.0000 0.74210  0.23340  0.32960  Biso   1.000  H
  C160     1.0000 0.78487  0.17994  0.37992  Biso   1.000  C
  H95      1.0000 0.74920  0.15270  0.37830  Biso   1.000  H
  C161     1.0000 0.93782  0.04675  0.55174  Biso   1.000  C
  C162     1.0000 0.95938  0.08953  0.58530  Biso   1.000  C
  H96      1.0000 0.94110  0.12670  0.58180  Biso   1.000  H
  C163     1.0000 0.00671  0.07880  0.62350  Biso   1.000  C
  H97      1.0000 0.02020  0.10830  0.64640  Biso   1.000  H
  C164     1.0000 0.03429  0.02532  0.62833  Biso   1.000  C
  C165     1.0000 0.01469  0.98269  0.59524  Biso   1.000  C
  H98      1.0000 0.03450  0.94600  0.59810  Biso   1.000  H
  C166     1.0000 0.96656  0.99327  0.55809  Biso   1.000  C
  H99      1.0000 0.95250  0.96320  0.53610  Biso   1.000  H
  C167     1.0000 0.08361  0.96515  0.69145  Biso   1.000  C
  C168     1.0000 0.02333  0.93650  0.70131  Biso   1.000  C
  H100     1.0000 0.98110  0.95200  0.69020  Biso   1.000  H
  C169     1.0000 0.02470  0.88543  0.72732  Biso   1.000  C
  C170     1.0000 0.08635  0.86432  0.74550  Biso   1.000  C
  H101     1.0000 0.08730  0.82970  0.76440  Biso   1.000  H
  C171     1.0000 0.14627  0.89340  0.73622  Biso   1.000  C
  C172     1.0000 0.14536  0.94426  0.70846  Biso   1.000  C
  H102     1.0000 0.18650  0.96410  0.70140  Biso   1.000  H
  C173     1.0000 0.95942  0.85351  0.73509  Biso   1.000  C
  C174     1.0000 0.21202  0.87107  0.75738  Biso   1.000  C
  N16      1.0000 0.70823  0.89229  0.35938  Biso   1.000  N
  N17      1.0000 0.80604  0.07420  0.42242  Biso   1.000  N
  N18      1.0000 0.82922  0.26792  0.34993  Biso   1.000  N
  Ni7      1.0000 0.18380  0.83524  0.20028  Biso   1.000  Ni
  O31      1.0000 0.54422  0.81981  0.22792  Biso   1.000  O
  O32      1.0000 0.58736  0.86338  0.29714  Biso   1.000  O
  O33      1.0000 0.28922  0.82640  0.21488  Biso   1.000  O
  O34      1.0000 0.23257  0.89625  0.25100  Biso   1.000  O
  O35      1.0000 0.41592  0.01714  0.33438  Biso   1.000  O
  C175     1.0000 0.74235  0.88041  0.60693  Biso   1.000  C
  H103     1.0000 0.72870  0.84190  0.60330  Biso   1.000  H
  C176     1.0000 0.71006  0.92040  0.57724  Biso   1.000  C
  H104     1.0000 0.67530  0.90930  0.55370  Biso   1.000  H
  C177     1.0000 0.72833  0.97712  0.58164  Biso   1.000  C
  C178     1.0000 0.78144  0.98933  0.61505  Biso   1.000  C
  H105     1.0000 0.79720  0.02730  0.61860  Biso   1.000  H
  C179     1.0000 0.81119  0.94656  0.64296  Biso   1.000  C
  H106     1.0000 0.84780  0.95610  0.66530  Biso   1.000  H
  C180     1.0000 0.69009  0.02319  0.55507  Biso   1.000  C
  C181     1.0000 0.64989  0.01393  0.51165  Biso   1.000  C
  H107     1.0000 0.64940  0.97750  0.49590  Biso   1.000  H
  C182     1.0000 0.61056  0.05750  0.49122  Biso   1.000  C
  C183     1.0000 0.61409  0.11023  0.51543  Biso   1.000  C
  H108     1.0000 0.58830  0.14150  0.50280  Biso   1.000  H
  C184     1.0000 0.65604  0.11651  0.55844  Biso   1.000  C
  C185     1.0000 0.66029  0.17070  0.58831  Biso   1.000  C
  C186     1.0000 0.61033  0.21140  0.58899  Biso   1.000  C
  H109     1.0000 0.57070  0.20680  0.56830  Biso   1.000  H
  C187     1.0000 0.61739  0.25924  0.61968  Biso   1.000  C
  H110     1.0000 0.58230  0.28710  0.61890  Biso   1.000  H
  C188     1.0000 0.71877  0.22810  0.64936  Biso   1.000  C
  H111     1.0000 0.75790  0.23340  0.67040  Biso   1.000  H
  C189     1.0000 0.71513  0.17994  0.62008  Biso   1.000  C
  H112     1.0000 0.75080  0.15270  0.62170  Biso   1.000  H
  C190     1.0000 0.56218  0.04675  0.44826  Biso   1.000  C
  C191     1.0000 0.54062  0.08953  0.41470  Biso   1.000  C
  H113     1.0000 0.55890  0.12670  0.41820  Biso   1.000  H
  C192     1.0000 0.49329  0.07880  0.37650  Biso   1.000  C
  H114     1.0000 0.47980  0.10830  0.35360  Biso   1.000  H
  C193     1.0000 0.46571  0.02532  0.37167  Biso   1.000  C
  C194     1.0000 0.48531  0.98269  0.40476  Biso   1.000  C
  H115     1.0000 0.46550  0.94600  0.40190  Biso   1.000  H
  C195     1.0000 0.53344  0.99327  0.44191  Biso   1.000  C
  H116     1.0000 0.54750  0.96320  0.46390  Biso   1.000  H
  C196     1.0000 0.41639  0.96515  0.30855  Biso   1.000  C
  C197     1.0000 0.47667  0.93650  0.29869  Biso   1.000  C
  H117     1.0000 0.51890  0.95200  0.30980  Biso   1.000  H
  C198     1.0000 0.47530  0.88543  0.27268  Biso   1.000  C
  C199     1.0000 0.41365  0.86432  0.25450  Biso   1.000  C
  H118     1.0000 0.41270  0.82970  0.23560  Biso   1.000  H
  C200     1.0000 0.35373  0.89340  0.26378  Biso   1.000  C
  C201     1.0000 0.35464  0.94426  0.29154  Biso   1.000  C
  H119     1.0000 0.31350  0.96410  0.29860  Biso   1.000  H
  C202     1.0000 0.54058  0.85351  0.26491  Biso   1.000  C
  C203     1.0000 0.28798  0.87107  0.24262  Biso   1.000  C
  N19      1.0000 0.79177  0.89229  0.64062  Biso   1.000  N
  N20      1.0000 0.69396  0.07420  0.57758  Biso   1.000  N
  N21      1.0000 0.67078  0.26792  0.65007  Biso   1.000  N
  Ni8      1.0000 0.68380  0.33524  0.70028  Biso   1.000  Ni
  O36      1.0000 0.04422  0.31981  0.72792  Biso   1.000  O
  O37      1.0000 0.08736  0.36338  0.79714  Biso   1.000  O
  O38      1.0000 0.78922  0.32640  0.71488  Biso   1.000  O
  O39      1.0000 0.73257  0.39625  0.75100  Biso   1.000  O
  O40      1.0000 0.91592  0.51714  0.83438  Biso   1.000  O
  C204     1.0000 0.24235  0.38041  0.10693  Biso   1.000  C
  H120     1.0000 0.22870  0.34190  0.10330  Biso   1.000  H
  C205     1.0000 0.21006  0.42040  0.07724  Biso   1.000  C
  H121     1.0000 0.17530  0.40930  0.05370  Biso   1.000  H
  C206     1.0000 0.22833  0.47712  0.08164  Biso   1.000  C
  C207     1.0000 0.28144  0.48933  0.11505  Biso   1.000  C
  H122     1.0000 0.29720  0.52730  0.11860  Biso   1.000  H
  C208     1.0000 0.31119  0.44656  0.14296  Biso   1.000  C
  H123     1.0000 0.34780  0.45610  0.16530  Biso   1.000  H
  C209     1.0000 0.19009  0.52319  0.05507  Biso   1.000  C
  C210     1.0000 0.14989  0.51393  0.01165  Biso   1.000  C
  H124     1.0000 0.14940  0.47750  0.99590  Biso   1.000  H
  C211     1.0000 0.11056  0.55750  0.99122  Biso   1.000  C
  C212     1.0000 0.11409  0.61023  0.01543  Biso   1.000  C
  H125     1.0000 0.08830  0.64150  0.00280  Biso   1.000  H
  C213     1.0000 0.15604  0.61651  0.05844  Biso   1.000  C
  C214     1.0000 0.16029  0.67070  0.08831  Biso   1.000  C
  C215     1.0000 0.11033  0.71140  0.08899  Biso   1.000  C
  H126     1.0000 0.07070  0.70680  0.06830  Biso   1.000  H
  C216     1.0000 0.11739  0.75924  0.11968  Biso   1.000  C
  H127     1.0000 0.08230  0.78710  0.11890  Biso   1.000  H
  C217     1.0000 0.21877  0.72810  0.14936  Biso   1.000  C
  H128     1.0000 0.25790  0.73340  0.17040  Biso   1.000  H
  C218     1.0000 0.21513  0.67994  0.12008  Biso   1.000  C
  H129     1.0000 0.25080  0.65270  0.12170  Biso   1.000  H
  C219     1.0000 0.06218  0.54675  0.94826  Biso   1.000  C
  C220     1.0000 0.04062  0.58953  0.91470  Biso   1.000  C
  H130     1.0000 0.05890  0.62670  0.91820  Biso   1.000  H
  C221     1.0000 0.99329  0.57880  0.87650  Biso   1.000  C
  H131     1.0000 0.97980  0.60830  0.85360  Biso   1.000  H
  C222     1.0000 0.96571  0.52532  0.87167  Biso   1.000  C
  C223     1.0000 0.98531  0.48269  0.90476  Biso   1.000  C
  H132     1.0000 0.96550  0.44600  0.90190  Biso   1.000  H
  C224     1.0000 0.03344  0.49327  0.94191  Biso   1.000  C
  H133     1.0000 0.04750  0.46320  0.96390  Biso   1.000  H
  C225     1.0000 0.91639  0.46515  0.80855  Biso   1.000  C
  C226     1.0000 0.97667  0.43650  0.79869  Biso   1.000  C
  H134     1.0000 0.01890  0.45200  0.80980  Biso   1.000  H
  C227     1.0000 0.97530  0.38543  0.77268  Biso   1.000  C
  C228     1.0000 0.91365  0.36432  0.75450  Biso   1.000  C
  H135     1.0000 0.91270  0.32970  0.73560  Biso   1.000  H
  C229     1.0000 0.85373  0.39340  0.76378  Biso   1.000  C
  C230     1.0000 0.85464  0.44426  0.79154  Biso   1.000  C
  H136     1.0000 0.81350  0.46410  0.79860  Biso   1.000  H
  C231     1.0000 0.04058  0.35351  0.76491  Biso   1.000  C
  C232     1.0000 0.78798  0.37107  0.74262  Biso   1.000  C
  N22      1.0000 0.29177  0.39229  0.14062  Biso   1.000  N
  N23      1.0000 0.19396  0.57420  0.07758  Biso   1.000  N
  N24      1.0000 0.17078  0.76792  0.15007  Biso   1.000  N
  Ni9      1.0000 0.18380  0.66476  0.70028  Biso   1.000  Ni
  O41      1.0000 0.54422  0.68019  0.72792  Biso   1.000  O
  O42      1.0000 0.58736  0.63662  0.79714  Biso   1.000  O
  O43      1.0000 0.28922  0.67360  0.71488  Biso   1.000  O
  O44      1.0000 0.23257  0.60375  0.75100  Biso   1.000  O
  O45      1.0000 0.41592  0.48286  0.83438  Biso   1.000  O
  C233     1.0000 0.74235  0.61959  0.10693  Biso   1.000  C
  H137     1.0000 0.72870  0.65810  0.10330  Biso   1.000  H
  C234     1.0000 0.71006  0.57960  0.07724  Biso   1.000  C
  H138     1.0000 0.67530  0.59070  0.05370  Biso   1.000  H
  C235     1.0000 0.72833  0.52288  0.08164  Biso   1.000  C
  C236     1.0000 0.78144  0.51067  0.11505  Biso   1.000  C
  H139     1.0000 0.79720  0.47270  0.11860  Biso   1.000  H
  C237     1.0000 0.81119  0.55344  0.14296  Biso   1.000  C
  H140     1.0000 0.84780  0.54390  0.16530  Biso   1.000  H
  C238     1.0000 0.69009  0.47681  0.05507  Biso   1.000  C
  C239     1.0000 0.64989  0.48607  0.01165  Biso   1.000  C
  H141     1.0000 0.64940  0.52250  0.99590  Biso   1.000  H
  C240     1.0000 0.61056  0.44250  0.99122  Biso   1.000  C
  C241     1.0000 0.61409  0.38977  0.01543  Biso   1.000  C
  H142     1.0000 0.58830  0.35850  0.00280  Biso   1.000  H
  C242     1.0000 0.65604  0.38349  0.05844  Biso   1.000  C
  C243     1.0000 0.66029  0.32930  0.08831  Biso   1.000  C
  C244     1.0000 0.61033  0.28860  0.08899  Biso   1.000  C
  H143     1.0000 0.57070  0.29320  0.06830  Biso   1.000  H
  C245     1.0000 0.61739  0.24076  0.11968  Biso   1.000  C
  H144     1.0000 0.58230  0.21290  0.11890  Biso   1.000  H
  C246     1.0000 0.71877  0.27190  0.14936  Biso   1.000  C
  H145     1.0000 0.75790  0.26660  0.17040  Biso   1.000  H
  C247     1.0000 0.71513  0.32006  0.12008  Biso   1.000  C
  H146     1.0000 0.75080  0.34730  0.12170  Biso   1.000  H
  C248     1.0000 0.56218  0.45325  0.94826  Biso   1.000  C
  C249     1.0000 0.54062  0.41047  0.91470  Biso   1.000  C
  H147     1.0000 0.55890  0.37330  0.91820  Biso   1.000  H
  C250     1.0000 0.49329  0.42120  0.87650  Biso   1.000  C
  H148     1.0000 0.47980  0.39170  0.85360  Biso   1.000  H
  C251     1.0000 0.46571  0.47468  0.87167  Biso   1.000  C
  C252     1.0000 0.48531  0.51731  0.90476  Biso   1.000  C
  H149     1.0000 0.46550  0.55400  0.90190  Biso   1.000  H
  C253     1.0000 0.53344  0.50673  0.94191  Biso   1.000  C
  H150     1.0000 0.54750  0.53680  0.96390  Biso   1.000  H
  C254     1.0000 0.41639  0.53485  0.80855  Biso   1.000  C
  C255     1.0000 0.47667  0.56350  0.79869  Biso   1.000  C
  H151     1.0000 0.51890  0.54800  0.80980  Biso   1.000  H
  C256     1.0000 0.47530  0.61457  0.77268  Biso   1.000  C
  C257     1.0000 0.41365  0.63568  0.75450  Biso   1.000  C
  H152     1.0000 0.41270  0.67030  0.73560  Biso   1.000  H
  C258     1.0000 0.35373  0.60660  0.76378  Biso   1.000  C
  C259     1.0000 0.35464  0.55574  0.79154  Biso   1.000  C
  H153     1.0000 0.31350  0.53590  0.79860  Biso   1.000  H
  C260     1.0000 0.54058  0.64649  0.76491  Biso   1.000  C
  C261     1.0000 0.28798  0.62893  0.74262  Biso   1.000  C
  N25      1.0000 0.79177  0.60771  0.14062  Biso   1.000  N
  N26      1.0000 0.69396  0.42580  0.07758  Biso   1.000  N
  N27      1.0000 0.67078  0.23208  0.15007  Biso   1.000  N
  Ni10     1.0000 0.68380  0.16476  0.20028  Biso   1.000  Ni
  O46      1.0000 0.04422  0.18019  0.22792  Biso   1.000  O
  O47      1.0000 0.08736  0.13662  0.29714  Biso   1.000  O
  O48      1.0000 0.78922  0.17360  0.21488  Biso   1.000  O
  O49      1.0000 0.73257  0.10375  0.25100  Biso   1.000  O
  O50      1.0000 0.91592  0.98286  0.33438  Biso   1.000  O
  C262     1.0000 0.24235  0.11959  0.60693  Biso   1.000  C
  H154     1.0000 0.22870  0.15810  0.60330  Biso   1.000  H
  C263     1.0000 0.21006  0.07960  0.57724  Biso   1.000  C
  H155     1.0000 0.17530  0.09070  0.55370  Biso   1.000  H
  C264     1.0000 0.22833  0.02288  0.58164  Biso   1.000  C
  C265     1.0000 0.28144  0.01067  0.61505  Biso   1.000  C
  H156     1.0000 0.29720  0.97270  0.61860  Biso   1.000  H
  C266     1.0000 0.31119  0.05344  0.64296  Biso   1.000  C
  H157     1.0000 0.34780  0.04390  0.66530  Biso   1.000  H
  C267     1.0000 0.19009  0.97681  0.55507  Biso   1.000  C
  C268     1.0000 0.14989  0.98607  0.51165  Biso   1.000  C
  H158     1.0000 0.14940  0.02250  0.49590  Biso   1.000  H
  C269     1.0000 0.11056  0.94250  0.49122  Biso   1.000  C
  C270     1.0000 0.11409  0.88977  0.51543  Biso   1.000  C
  H159     1.0000 0.08830  0.85850  0.50280  Biso   1.000  H
  C271     1.0000 0.15604  0.88349  0.55844  Biso   1.000  C
  C272     1.0000 0.16029  0.82930  0.58831  Biso   1.000  C
  C273     1.0000 0.11033  0.78860  0.58899  Biso   1.000  C
  H160     1.0000 0.07070  0.79320  0.56830  Biso   1.000  H
  C274     1.0000 0.11739  0.74076  0.61968  Biso   1.000  C
  H161     1.0000 0.08230  0.71290  0.61890  Biso   1.000  H
  C275     1.0000 0.21877  0.77190  0.64936  Biso   1.000  C
  H162     1.0000 0.25790  0.76660  0.67040  Biso   1.000  H
  C276     1.0000 0.21513  0.82006  0.62008  Biso   1.000  C
  H163     1.0000 0.25080  0.84730  0.62170  Biso   1.000  H
  C277     1.0000 0.06218  0.95325  0.44826  Biso   1.000  C
  C278     1.0000 0.04062  0.91047  0.41470  Biso   1.000  C
  H164     1.0000 0.05890  0.87330  0.41820  Biso   1.000  H
  C279     1.0000 0.99329  0.92120  0.37650  Biso   1.000  C
  H165     1.0000 0.97980  0.89170  0.35360  Biso   1.000  H
  C280     1.0000 0.96571  0.97468  0.37167  Biso   1.000  C
  C281     1.0000 0.98531  0.01731  0.40476  Biso   1.000  C
  H166     1.0000 0.96550  0.05400  0.40190  Biso   1.000  H
  C282     1.0000 0.03344  0.00673  0.44191  Biso   1.000  C
  H167     1.0000 0.04750  0.03680  0.46390  Biso   1.000  H
  C283     1.0000 0.91639  0.03485  0.30855  Biso   1.000  C
  C284     1.0000 0.97667  0.06350  0.29869  Biso   1.000  C
  H168     1.0000 0.01890  0.04800  0.30980  Biso   1.000  H
  C285     1.0000 0.97530  0.11457  0.27268  Biso   1.000  C
  C286     1.0000 0.91365  0.13568  0.25450  Biso   1.000  C
  H169     1.0000 0.91270  0.17030  0.23560  Biso   1.000  H
  C287     1.0000 0.85373  0.10660  0.26378  Biso   1.000  C
  C288     1.0000 0.85464  0.05574  0.29154  Biso   1.000  C
  H170     1.0000 0.81350  0.03590  0.29860  Biso   1.000  H
  C289     1.0000 0.04058  0.14649  0.26491  Biso   1.000  C
  C290     1.0000 0.78798  0.12893  0.24262  Biso   1.000  C
  N28      1.0000 0.29177  0.10771  0.64062  Biso   1.000  N
  N29      1.0000 0.19396  0.92580  0.57758  Biso   1.000  N
  N30      1.0000 0.17078  0.73208  0.65007  Biso   1.000  N
  Ni11     1.0000 0.81620  0.16476  0.79972  Biso   1.000  Ni
  O51      1.0000 0.45578  0.18019  0.77208  Biso   1.000  O
  O52      1.0000 0.41264  0.13662  0.70286  Biso   1.000  O
  O53      1.0000 0.71078  0.17360  0.78512  Biso   1.000  O
  O54      1.0000 0.76743  0.10375  0.74900  Biso   1.000  O
  O55      1.0000 0.58408  0.98286  0.66562  Biso   1.000  O
  C291     1.0000 0.25765  0.11959  0.39307  Biso   1.000  C
  H171     1.0000 0.27130  0.15810  0.39670  Biso   1.000  H
  C292     1.0000 0.28994  0.07960  0.42276  Biso   1.000  C
  H172     1.0000 0.32470  0.09070  0.44630  Biso   1.000  H
  C293     1.0000 0.27167  0.02288  0.41836  Biso   1.000  C
  C294     1.0000 0.21856  0.01067  0.38495  Biso   1.000  C
  H173     1.0000 0.20280  0.97270  0.38140  Biso   1.000  H
  C295     1.0000 0.18881  0.05344  0.35704  Biso   1.000  C
  H174     1.0000 0.15220  0.04390  0.33470  Biso   1.000  H
  C296     1.0000 0.30991  0.97681  0.44493  Biso   1.000  C
  C297     1.0000 0.35011  0.98607  0.48835  Biso   1.000  C
  H175     1.0000 0.35060  0.02250  0.50410  Biso   1.000  H
  C298     1.0000 0.38944  0.94250  0.50878  Biso   1.000  C
  C299     1.0000 0.38591  0.88977  0.48457  Biso   1.000  C
  H176     1.0000 0.41170  0.85850  0.49720  Biso   1.000  H
  C300     1.0000 0.34396  0.88349  0.44156  Biso   1.000  C
  C301     1.0000 0.33971  0.82930  0.41169  Biso   1.000  C
  C302     1.0000 0.38967  0.78860  0.41101  Biso   1.000  C
  H177     1.0000 0.42930  0.79320  0.43170  Biso   1.000  H
  C303     1.0000 0.38261  0.74076  0.38032  Biso   1.000  C
  H178     1.0000 0.41770  0.71290  0.38110  Biso   1.000  H
  C304     1.0000 0.28123  0.77190  0.35064  Biso   1.000  C
  H179     1.0000 0.24210  0.76660  0.32960  Biso   1.000  H
  C305     1.0000 0.28487  0.82006  0.37992  Biso   1.000  C
  H180     1.0000 0.24920  0.84730  0.37830  Biso   1.000  H
  C306     1.0000 0.43782  0.95325  0.55174  Biso   1.000  C
  C307     1.0000 0.45938  0.91047  0.58530  Biso   1.000  C
  H181     1.0000 0.44110  0.87330  0.58180  Biso   1.000  H
  C308     1.0000 0.50671  0.92120  0.62350  Biso   1.000  C
  H182     1.0000 0.52020  0.89170  0.64640  Biso   1.000  H
  C309     1.0000 0.53429  0.97468  0.62833  Biso   1.000  C
  C310     1.0000 0.51469  0.01731  0.59524  Biso   1.000  C
  H183     1.0000 0.53450  0.05400  0.59810  Biso   1.000  H
  C311     1.0000 0.46656  0.00673  0.55809  Biso   1.000  C
  H184     1.0000 0.45250  0.03680  0.53610  Biso   1.000  H
  C312     1.0000 0.58361  0.03485  0.69145  Biso   1.000  C
  C313     1.0000 0.52333  0.06350  0.70131  Biso   1.000  C
  H185     1.0000 0.48110  0.04800  0.69020  Biso   1.000  H
  C314     1.0000 0.52470  0.11457  0.72732  Biso   1.000  C
  C315     1.0000 0.58635  0.13568  0.74550  Biso   1.000  C
  H186     1.0000 0.58730  0.17030  0.76440  Biso   1.000  H
  C316     1.0000 0.64627  0.10660  0.73622  Biso   1.000  C
  C317     1.0000 0.64536  0.05574  0.70846  Biso   1.000  C
  H187     1.0000 0.68650  0.03590  0.70140  Biso   1.000  H
  C318     1.0000 0.45942  0.14649  0.73509  Biso   1.000  C
  C319     1.0000 0.71202  0.12893  0.75738  Biso   1.000  C
  N31      1.0000 0.20823  0.10771  0.35938  Biso   1.000  N
  N32      1.0000 0.30604  0.92580  0.42242  Biso   1.000  N
  N33      1.0000 0.32922  0.73208  0.34993  Biso   1.000  N
  Ni12     1.0000 0.31620  0.66476  0.29972  Biso   1.000  Ni
  O56      1.0000 0.95578  0.68019  0.27208  Biso   1.000  O
  O57      1.0000 0.91264  0.63662  0.20286  Biso   1.000  O
  O58      1.0000 0.21078  0.67360  0.28512  Biso   1.000  O
  O59      1.0000 0.26743  0.60375  0.24900  Biso   1.000  O
  O60      1.0000 0.08408  0.48286  0.16562  Biso   1.000  O
  C320     1.0000 0.75765  0.61959  0.89307  Biso   1.000  C
  H188     1.0000 0.77130  0.65810  0.89670  Biso   1.000  H
  C321     1.0000 0.78994  0.57960  0.92276  Biso   1.000  C
  H189     1.0000 0.82470  0.59070  0.94630  Biso   1.000  H
  C322     1.0000 0.77167  0.52288  0.91836  Biso   1.000  C
  C323     1.0000 0.71856  0.51067  0.88495  Biso   1.000  C
  H190     1.0000 0.70280  0.47270  0.88140  Biso   1.000  H
  C324     1.0000 0.68881  0.55344  0.85704  Biso   1.000  C
  H191     1.0000 0.65220  0.54390  0.83470  Biso   1.000  H
  C325     1.0000 0.80991  0.47681  0.94493  Biso   1.000  C
  C326     1.0000 0.85011  0.48607  0.98835  Biso   1.000  C
  H192     1.0000 0.85060  0.52250  0.00410  Biso   1.000  H
  C327     1.0000 0.88944  0.44250  0.00878  Biso   1.000  C
  C328     1.0000 0.88591  0.38977  0.98457  Biso   1.000  C
  H193     1.0000 0.91170  0.35850  0.99720  Biso   1.000  H
  C329     1.0000 0.84396  0.38349  0.94156  Biso   1.000  C
  C330     1.0000 0.83971  0.32930  0.91169  Biso   1.000  C
  C331     1.0000 0.88967  0.28860  0.91101  Biso   1.000  C
  H194     1.0000 0.92930  0.29320  0.93170  Biso   1.000  H
  C332     1.0000 0.88261  0.24076  0.88032  Biso   1.000  C
  H195     1.0000 0.91770  0.21290  0.88110  Biso   1.000  H
  C333     1.0000 0.78123  0.27190  0.85064  Biso   1.000  C
  H196     1.0000 0.74210  0.26660  0.82960  Biso   1.000  H
  C334     1.0000 0.78487  0.32006  0.87992  Biso   1.000  C
  H197     1.0000 0.74920  0.34730  0.87830  Biso   1.000  H
  C335     1.0000 0.93782  0.45325  0.05174  Biso   1.000  C
  C336     1.0000 0.95938  0.41047  0.08530  Biso   1.000  C
  H198     1.0000 0.94110  0.37330  0.08180  Biso   1.000  H
  C337     1.0000 0.00671  0.42120  0.12350  Biso   1.000  C
  H199     1.0000 0.02020  0.39170  0.14640  Biso   1.000  H
  C338     1.0000 0.03429  0.47468  0.12833  Biso   1.000  C
  C339     1.0000 0.01469  0.51731  0.09524  Biso   1.000  C
  H200     1.0000 0.03450  0.55400  0.09810  Biso   1.000  H
  C340     1.0000 0.96656  0.50673  0.05809  Biso   1.000  C
  H201     1.0000 0.95250  0.53680  0.03610  Biso   1.000  H
  C341     1.0000 0.08361  0.53485  0.19145  Biso   1.000  C
  C342     1.0000 0.02333  0.56350  0.20131  Biso   1.000  C
  H202     1.0000 0.98110  0.54800  0.19020  Biso   1.000  H
  C343     1.0000 0.02470  0.61457  0.22732  Biso   1.000  C
  C344     1.0000 0.08635  0.63568  0.24550  Biso   1.000  C
  H203     1.0000 0.08730  0.67030  0.26440  Biso   1.000  H
  C345     1.0000 0.14627  0.60660  0.23622  Biso   1.000  C
  C346     1.0000 0.14536  0.55574  0.20846  Biso   1.000  C
  H204     1.0000 0.18650  0.53590  0.20140  Biso   1.000  H
  C347     1.0000 0.95942  0.64649  0.23509  Biso   1.000  C
  C348     1.0000 0.21202  0.62893  0.25738  Biso   1.000  C
  N34      1.0000 0.70823  0.60771  0.85938  Biso   1.000  N
  N35      1.0000 0.80604  0.42580  0.92242  Biso   1.000  N
  N36      1.0000 0.82922  0.23208  0.84993  Biso   1.000  N
  Ni13     1.0000 0.68380  0.66476  0.79972  Biso   1.000  Ni
  O61      1.0000 0.04422  0.68019  0.77208  Biso   1.000  O
  O62      1.0000 0.08736  0.63662  0.70286  Biso   1.000  O
  O63      1.0000 0.78922  0.67360  0.78512  Biso   1.000  O
  O64      1.0000 0.73257  0.60375  0.74900  Biso   1.000  O
  O65      1.0000 0.91592  0.48286  0.66562  Biso   1.000  O
  C349     1.0000 0.24235  0.61959  0.39307  Biso   1.000  C
  H205     1.0000 0.22870  0.65810  0.39670  Biso   1.000  H
  C350     1.0000 0.21006  0.57960  0.42276  Biso   1.000  C
  H206     1.0000 0.17530  0.59070  0.44630  Biso   1.000  H
  C351     1.0000 0.22833  0.52288  0.41836  Biso   1.000  C
  C352     1.0000 0.28144  0.51067  0.38495  Biso   1.000  C
  H207     1.0000 0.29720  0.47270  0.38140  Biso   1.000  H
  C353     1.0000 0.31119  0.55344  0.35704  Biso   1.000  C
  H208     1.0000 0.34780  0.54390  0.33470  Biso   1.000  H
  C354     1.0000 0.19009  0.47681  0.44493  Biso   1.000  C
  C355     1.0000 0.14989  0.48607  0.48835  Biso   1.000  C
  H209     1.0000 0.14940  0.52250  0.50410  Biso   1.000  H
  C356     1.0000 0.11056  0.44250  0.50878  Biso   1.000  C
  C357     1.0000 0.11409  0.38977  0.48457  Biso   1.000  C
  H210     1.0000 0.08830  0.35850  0.49720  Biso   1.000  H
  C358     1.0000 0.15604  0.38349  0.44156  Biso   1.000  C
  C359     1.0000 0.16029  0.32930  0.41169  Biso   1.000  C
  C360     1.0000 0.11033  0.28860  0.41101  Biso   1.000  C
  H211     1.0000 0.07070  0.29320  0.43170  Biso   1.000  H
  C361     1.0000 0.11739  0.24076  0.38032  Biso   1.000  C
  H212     1.0000 0.08230  0.21290  0.38110  Biso   1.000  H
  C362     1.0000 0.21877  0.27190  0.35064  Biso   1.000  C
  H213     1.0000 0.25790  0.26660  0.32960  Biso   1.000  H
  C363     1.0000 0.21513  0.32006  0.37992  Biso   1.000  C
  H214     1.0000 0.25080  0.34730  0.37830  Biso   1.000  H
  C364     1.0000 0.06218  0.45325  0.55174  Biso   1.000  C
  C365     1.0000 0.04062  0.41047  0.58530  Biso   1.000  C
  H215     1.0000 0.05890  0.37330  0.58180  Biso   1.000  H
  C366     1.0000 0.99329  0.42120  0.62350  Biso   1.000  C
  H216     1.0000 0.97980  0.39170  0.64640  Biso   1.000  H
  C367     1.0000 0.96571  0.47468  0.62833  Biso   1.000  C
  C368     1.0000 0.98531  0.51731  0.59524  Biso   1.000  C
  H217     1.0000 0.96550  0.55400  0.59810  Biso   1.000  H
  C369     1.0000 0.03344  0.50673  0.55809  Biso   1.000  C
  H218     1.0000 0.04750  0.53680  0.53610  Biso   1.000  H
  C370     1.0000 0.91639  0.53485  0.69145  Biso   1.000  C
  C371     1.0000 0.97667  0.56350  0.70131  Biso   1.000  C
  H219     1.0000 0.01890  0.54800  0.69020  Biso   1.000  H
  C372     1.0000 0.97530  0.61457  0.72732  Biso   1.000  C
  C373     1.0000 0.91365  0.63568  0.74550  Biso   1.000  C
  H220     1.0000 0.91270  0.67030  0.76440  Biso   1.000  H
  C374     1.0000 0.85373  0.60660  0.73622  Biso   1.000  C
  C375     1.0000 0.85464  0.55574  0.70846  Biso   1.000  C
  H221     1.0000 0.81350  0.53590  0.70140  Biso   1.000  H
  C376     1.0000 0.04058  0.64649  0.73509  Biso   1.000  C
  C377     1.0000 0.78798  0.62893  0.75738  Biso   1.000  C
  N37      1.0000 0.29177  0.60771  0.35938  Biso   1.000  N
  N38      1.0000 0.19396  0.42580  0.42242  Biso   1.000  N
  N39      1.0000 0.17078  0.23208  0.34993  Biso   1.000  N
  Ni14     1.0000 0.18380  0.16476  0.29972  Biso   1.000  Ni
  O66      1.0000 0.54422  0.18019  0.27208  Biso   1.000  O
  O67      1.0000 0.58736  0.13662  0.20286  Biso   1.000  O
  O68      1.0000 0.28922  0.17360  0.28512  Biso   1.000  O
  O69      1.0000 0.23257  0.10375  0.24900  Biso   1.000  O
  O70      1.0000 0.41592  0.98286  0.16562  Biso   1.000  O
  C378     1.0000 0.74235  0.11959  0.89307  Biso   1.000  C
  H222     1.0000 0.72870  0.15810  0.89670  Biso   1.000  H
  C379     1.0000 0.71006  0.07960  0.92276  Biso   1.000  C
  H223     1.0000 0.67530  0.09070  0.94630  Biso   1.000  H
  C380     1.0000 0.72833  0.02288  0.91836  Biso   1.000  C
  C381     1.0000 0.78144  0.01067  0.88495  Biso   1.000  C
  H224     1.0000 0.79720  0.97270  0.88140  Biso   1.000  H
  C382     1.0000 0.81119  0.05344  0.85704  Biso   1.000  C
  H225     1.0000 0.84780  0.04390  0.83470  Biso   1.000  H
  C383     1.0000 0.69009  0.97681  0.94493  Biso   1.000  C
  C384     1.0000 0.64989  0.98607  0.98835  Biso   1.000  C
  H226     1.0000 0.64940  0.02250  0.00410  Biso   1.000  H
  C385     1.0000 0.61056  0.94250  0.00878  Biso   1.000  C
  C386     1.0000 0.61409  0.88977  0.98457  Biso   1.000  C
  H227     1.0000 0.58830  0.85850  0.99720  Biso   1.000  H
  C387     1.0000 0.65604  0.88349  0.94156  Biso   1.000  C
  C388     1.0000 0.66029  0.82930  0.91169  Biso   1.000  C
  C389     1.0000 0.61033  0.78860  0.91101  Biso   1.000  C
  H228     1.0000 0.57070  0.79320  0.93170  Biso   1.000  H
  C390     1.0000 0.61739  0.74076  0.88032  Biso   1.000  C
  H229     1.0000 0.58230  0.71290  0.88110  Biso   1.000  H
  C391     1.0000 0.71877  0.77190  0.85064  Biso   1.000  C
  H230     1.0000 0.75790  0.76660  0.82960  Biso   1.000  H
  C392     1.0000 0.71513  0.82006  0.87992  Biso   1.000  C
  H231     1.0000 0.75080  0.84730  0.87830  Biso   1.000  H
  C393     1.0000 0.56218  0.95325  0.05174  Biso   1.000  C
  C394     1.0000 0.54062  0.91047  0.08530  Biso   1.000  C
  H232     1.0000 0.55890  0.87330  0.08180  Biso   1.000  H
  C395     1.0000 0.49329  0.92120  0.12350  Biso   1.000  C
  H233     1.0000 0.47980  0.89170  0.14640  Biso   1.000  H
  C396     1.0000 0.46571  0.97468  0.12833  Biso   1.000  C
  C397     1.0000 0.48531  0.01731  0.09524  Biso   1.000  C
  H234     1.0000 0.46550  0.05400  0.09810  Biso   1.000  H
  C398     1.0000 0.53344  0.00673  0.05809  Biso   1.000  C
  H235     1.0000 0.54750  0.03680  0.03610  Biso   1.000  H
  C399     1.0000 0.41639  0.03485  0.19145  Biso   1.000  C
  C400     1.0000 0.47667  0.06350  0.20131  Biso   1.000  C
  H236     1.0000 0.51890  0.04800  0.19020  Biso   1.000  H
  C401     1.0000 0.47530  0.11457  0.22732  Biso   1.000  C
  C402     1.0000 0.41365  0.13568  0.24550  Biso   1.000  C
  H237     1.0000 0.41270  0.17030  0.26440  Biso   1.000  H
  C403     1.0000 0.35373  0.10660  0.23622  Biso   1.000  C
  C404     1.0000 0.35464  0.05574  0.20846  Biso   1.000  C
  H238     1.0000 0.31350  0.03590  0.20140  Biso   1.000  H
  C405     1.0000 0.54058  0.14649  0.23509  Biso   1.000  C
  C406     1.0000 0.28798  0.12893  0.25738  Biso   1.000  C
  N40      1.0000 0.79177  0.10771  0.85938  Biso   1.000  N
  N41      1.0000 0.69396  0.92580  0.92242  Biso   1.000  N
  N42      1.0000 0.67078  0.73208  0.84993  Biso   1.000  N
  Ni15     1.0000 0.31620  0.16476  0.70028  Biso   1.000  Ni
  O71      1.0000 0.95578  0.18019  0.72792  Biso   1.000  O
  O72      1.0000 0.91264  0.13662  0.79714  Biso   1.000  O
  O73      1.0000 0.21078  0.17360  0.71488  Biso   1.000  O
  O74      1.0000 0.26743  0.10375  0.75100  Biso   1.000  O
  O75      1.0000 0.08408  0.98286  0.83438  Biso   1.000  O
  C407     1.0000 0.75765  0.11959  0.10693  Biso   1.000  C
  H239     1.0000 0.77130  0.15810  0.10330  Biso   1.000  H
  C408     1.0000 0.78994  0.07960  0.07724  Biso   1.000  C
  H240     1.0000 0.82470  0.09070  0.05370  Biso   1.000  H
  C409     1.0000 0.77167  0.02288  0.08164  Biso   1.000  C
  C410     1.0000 0.71856  0.01067  0.11505  Biso   1.000  C
  H241     1.0000 0.70280  0.97270  0.11860  Biso   1.000  H
  C411     1.0000 0.68881  0.05344  0.14296  Biso   1.000  C
  H242     1.0000 0.65220  0.04390  0.16530  Biso   1.000  H
  C412     1.0000 0.80991  0.97681  0.05507  Biso   1.000  C
  C413     1.0000 0.85011  0.98607  0.01165  Biso   1.000  C
  H243     1.0000 0.85060  0.02250  0.99590  Biso   1.000  H
  C414     1.0000 0.88944  0.94250  0.99122  Biso   1.000  C
  C415     1.0000 0.88591  0.88977  0.01543  Biso   1.000  C
  H244     1.0000 0.91170  0.85850  0.00280  Biso   1.000  H
  C416     1.0000 0.84396  0.88349  0.05844  Biso   1.000  C
  C417     1.0000 0.83971  0.82930  0.08831  Biso   1.000  C
  C418     1.0000 0.88967  0.78860  0.08899  Biso   1.000  C
  H245     1.0000 0.92930  0.79320  0.06830  Biso   1.000  H
  C419     1.0000 0.88261  0.74076  0.11968  Biso   1.000  C
  H246     1.0000 0.91770  0.71290  0.11890  Biso   1.000  H
  C420     1.0000 0.78123  0.77190  0.14936  Biso   1.000  C
  H247     1.0000 0.74210  0.76660  0.17040  Biso   1.000  H
  C421     1.0000 0.78487  0.82006  0.12008  Biso   1.000  C
  H248     1.0000 0.74920  0.84730  0.12170  Biso   1.000  H
  C422     1.0000 0.93782  0.95325  0.94826  Biso   1.000  C
  C423     1.0000 0.95938  0.91047  0.91470  Biso   1.000  C
  H249     1.0000 0.94110  0.87330  0.91820  Biso   1.000  H
  C424     1.0000 0.00671  0.92120  0.87650  Biso   1.000  C
  H250     1.0000 0.02020  0.89170  0.85360  Biso   1.000  H
  C425     1.0000 0.03429  0.97468  0.87167  Biso   1.000  C
  C426     1.0000 0.01469  0.01731  0.90476  Biso   1.000  C
  H251     1.0000 0.03450  0.05400  0.90190  Biso   1.000  H
  C427     1.0000 0.96656  0.00673  0.94191  Biso   1.000  C
  H252     1.0000 0.95250  0.03680  0.96390  Biso   1.000  H
  C428     1.0000 0.08361  0.03485  0.80855  Biso   1.000  C
  C429     1.0000 0.02333  0.06350  0.79869  Biso   1.000  C
  H253     1.0000 0.98110  0.04800  0.80980  Biso   1.000  H
  C430     1.0000 0.02470  0.11457  0.77268  Biso   1.000  C
  C431     1.0000 0.08635  0.13568  0.75450  Biso   1.000  C
  H254     1.0000 0.08730  0.17030  0.73560  Biso   1.000  H
  C432     1.0000 0.14627  0.10660  0.76378  Biso   1.000  C
  C433     1.0000 0.14536  0.05574  0.79154  Biso   1.000  C
  H255     1.0000 0.18650  0.03590  0.79860  Biso   1.000  H
  C434     1.0000 0.95942  0.14649  0.76491  Biso   1.000  C
  C435     1.0000 0.21202  0.12893  0.74262  Biso   1.000  C
  N43      1.0000 0.70823  0.10771  0.14062  Biso   1.000  N
  N44      1.0000 0.80604  0.92580  0.07758  Biso   1.000  N
  N45      1.0000 0.82922  0.73208  0.15007  Biso   1.000  N
  Ni16     1.0000 0.81620  0.66476  0.20028  Biso   1.000  Ni
  O76      1.0000 0.45578  0.68019  0.22792  Biso   1.000  O
  O77      1.0000 0.41264  0.63662  0.29714  Biso   1.000  O
  O78      1.0000 0.71078  0.67360  0.21488  Biso   1.000  O
  O79      1.0000 0.76743  0.60375  0.25100  Biso   1.000  O
  O80      1.0000 0.58408  0.48286  0.33438  Biso   1.000  O
  C436     1.0000 0.25765  0.61959  0.60693  Biso   1.000  C
  H256     1.0000 0.27130  0.65810  0.60330  Biso   1.000  H
  C437     1.0000 0.28994  0.57960  0.57724  Biso   1.000  C
  H257     1.0000 0.32470  0.59070  0.55370  Biso   1.000  H
  C438     1.0000 0.27167  0.52288  0.58164  Biso   1.000  C
  C439     1.0000 0.21856  0.51067  0.61505  Biso   1.000  C
  H258     1.0000 0.20280  0.47270  0.61860  Biso   1.000  H
  C440     1.0000 0.18881  0.55344  0.64296  Biso   1.000  C
  H259     1.0000 0.15220  0.54390  0.66530  Biso   1.000  H
  C441     1.0000 0.30991  0.47681  0.55507  Biso   1.000  C
  C442     1.0000 0.35011  0.48607  0.51165  Biso   1.000  C
  H260     1.0000 0.35060  0.52250  0.49590  Biso   1.000  H
  C443     1.0000 0.38944  0.44250  0.49122  Biso   1.000  C
  C444     1.0000 0.38591  0.38977  0.51543  Biso   1.000  C
  H261     1.0000 0.41170  0.35850  0.50280  Biso   1.000  H
  C445     1.0000 0.34396  0.38349  0.55844  Biso   1.000  C
  C446     1.0000 0.33971  0.32930  0.58831  Biso   1.000  C
  C447     1.0000 0.38967  0.28860  0.58899  Biso   1.000  C
  H262     1.0000 0.42930  0.29320  0.56830  Biso   1.000  H
  C448     1.0000 0.38261  0.24076  0.61968  Biso   1.000  C
  H263     1.0000 0.41770  0.21290  0.61890  Biso   1.000  H
  C449     1.0000 0.28123  0.27190  0.64936  Biso   1.000  C
  H264     1.0000 0.24210  0.26660  0.67040  Biso   1.000  H
  C450     1.0000 0.28487  0.32006  0.62008  Biso   1.000  C
  H265     1.0000 0.24920  0.34730  0.62170  Biso   1.000  H
  C451     1.0000 0.43782  0.45325  0.44826  Biso   1.000  C
  C452     1.0000 0.45938  0.41047  0.41470  Biso   1.000  C
  H266     1.0000 0.44110  0.37330  0.41820  Biso   1.000  H
  C453     1.0000 0.50671  0.42120  0.37650  Biso   1.000  C
  H267     1.0000 0.52020  0.39170  0.35360  Biso   1.000  H
  C454     1.0000 0.53429  0.47468  0.37167  Biso   1.000  C
  C455     1.0000 0.51469  0.51731  0.40476  Biso   1.000  C
  H268     1.0000 0.53450  0.55400  0.40190  Biso   1.000  H
  C456     1.0000 0.46656  0.50673  0.44191  Biso   1.000  C
  H269     1.0000 0.45250  0.53680  0.46390  Biso   1.000  H
  C457     1.0000 0.58361  0.53485  0.30855  Biso   1.000  C
  C458     1.0000 0.52333  0.56350  0.29869  Biso   1.000  C
  H270     1.0000 0.48110  0.54800  0.30980  Biso   1.000  H
  C459     1.0000 0.52470  0.61457  0.27268  Biso   1.000  C
  C460     1.0000 0.58635  0.63568  0.25450  Biso   1.000  C
  H271     1.0000 0.58730  0.67030  0.23560  Biso   1.000  H
  C461     1.0000 0.64627  0.60660  0.26378  Biso   1.000  C
  C462     1.0000 0.64536  0.55574  0.29154  Biso   1.000  C
  H272     1.0000 0.68650  0.53590  0.29860  Biso   1.000  H
  C463     1.0000 0.45942  0.64649  0.26491  Biso   1.000  C
  C464     1.0000 0.71202  0.62893  0.24262  Biso   1.000  C
  N46      1.0000 0.20823  0.60771  0.64062  Biso   1.000  N
  N47      1.0000 0.30604  0.42580  0.57758  Biso   1.000  N
  N48      1.0000 0.32922  0.23208  0.65007  Biso   1.000  N
