data_image0
_cell_length_a       22.535
_cell_length_b       22.535
_cell_length_c       29.635
_cell_angle_alpha    90
_cell_angle_beta     90
_cell_angle_gamma    120

_symmetry_space_group_name_H-M    "P 1"
_symmetry_int_tables_number       1

loop_
  _symmetry_equiv_pos_as_xyz
  'x, y, z'

loop_
  _atom_site_label
  _atom_site_occupancy
  _atom_site_fract_x
  _atom_site_fract_y
  _atom_site_fract_z
  _atom_site_thermal_displace_type
  _atom_site_B_iso_or_equiv
  _atom_site_type_symbol
  Cu1      1.0000 0.25903  0.45235  0.72259  Biso   1.000  Cu
  Cu2      1.0000 0.22002  0.06155  0.64952  Biso   1.000  Cu
  C1       1.0000 0.34510  0.41500  0.68000  Biso   1.000  C
  C2       1.0000 0.40490  0.40250  0.67380  Biso   1.000  C
  H1       1.0000 0.44110  0.44080  0.65750  Biso   1.000  H
  H2       1.0000 0.42270  0.40060  0.70330  Biso   1.000  H
  C3       1.0000 0.38530  0.33690  0.64850  Biso   1.000  C
  H3       1.0000 0.36550  0.33850  0.61950  Biso   1.000  H
  C4       1.0000 0.33180  0.27380  0.67440  Biso   1.000  C
  H4       1.0000 0.35310  0.26840  0.70130  Biso   1.000  H
  H5       1.0000 0.29540  0.28200  0.68400  Biso   1.000  H
  C5       1.0000 0.30040  0.20740  0.64780  Biso   1.000  C
  C6       1.0000 0.44800  0.32770  0.63930  Biso   1.000  C
  H6       1.0000 0.47060  0.32980  0.66760  Biso   1.000  H
  H7       1.0000 0.43250  0.28300  0.62600  Biso   1.000  H
  C7       1.0000 0.49850  0.38240  0.60780  Biso   1.000  C
  C8       1.0000 0.29220  0.54050  0.65078  Biso   1.000  C
  C9       1.0000 0.34070  0.60560  0.62509  Biso   1.000  C
  H8       1.0000 0.33050  0.59860  0.59310  Biso   1.000  H
  H9       1.0000 0.38750  0.61590  0.62940  Biso   1.000  H
  C10      1.0000 0.12920  0.06570  0.70730  Biso   1.000  C
  C11      1.0000 0.06400  0.06470  0.72130  Biso   1.000  C
  H10      1.0000 0.06430  0.10490  0.70940  Biso   1.000  H
  H11      1.0000 0.06230  0.06640  0.75400  Biso   1.000  H
  C12      1.0000 0.20520  0.30590  0.75050  Biso   1.000  C
  H12      1.0000 0.25010  0.31510  0.74790  Biso   1.000  H
  C13      1.0000 0.15450  0.24030  0.76170  Biso   1.000  C
  H13      1.0000 0.16540  0.20610  0.76660  Biso   1.000  H
  C14      1.0000 0.08880  0.22640  0.76540  Biso   1.000  C
  H14      1.0000 0.05420  0.18240  0.77280  Biso   1.000  H
  C15      1.0000 0.07330  0.27810  0.75830  Biso   1.000  C
  H15      1.0000 0.02830  0.26920  0.76010  Biso   1.000  H
  C16      1.0000 0.12680  0.34370  0.74830  Biso   1.000  C
  C17      1.0000 0.11760  0.40400  0.74300  Biso   1.000  C
  C18      1.0000 0.05800  0.40240  0.75190  Biso   1.000  C
  H16      1.0000 0.01970  0.36240  0.76190  Biso   1.000  H
  C19      1.0000 0.05590  0.46350  0.74570  Biso   1.000  C
  H17      1.0000 0.01540  0.46390  0.75090  Biso   1.000  H
  C20      1.0000 0.11320  0.52170  0.73210  Biso   1.000  C
  H18      1.0000 0.11290  0.56260  0.72880  Biso   1.000  H
  C21      1.0000 0.17150  0.51840  0.72340  Biso   1.000  C
  H19      1.0000 0.21050  0.55760  0.71340  Biso   1.000  H
  C22      1.0000 0.36130  0.07820  0.65100  Biso   1.000  C
  H20      1.0000 0.37780  0.12480  0.65480  Biso   1.000  H
  C23      1.0000 0.40810  0.05440  0.64900  Biso   1.000  C
  H21      1.0000 0.45480  0.08440  0.65250  Biso   1.000  H
  C24      1.0000 0.38350  0.98640  0.64180  Biso   1.000  C
  H22      1.0000 0.41410  0.97020  0.63900  Biso   1.000  H
  C25      1.0000 0.31430  0.94120  0.63880  Biso   1.000  C
  H23      1.0000 0.29730  0.89450  0.63490  Biso   1.000  H
  C26      1.0000 0.27090  0.96830  0.64170  Biso   1.000  C
  C27      1.0000 0.19650  0.92600  0.63590  Biso   1.000  C
  C28      1.0000 0.16150  0.85600  0.62930  Biso   1.000  C
  H24      1.0000 0.18480  0.83160  0.63030  Biso   1.000  H
  C29      1.0000 0.09080  0.82180  0.62100  Biso   1.000  C
  H25      1.0000 0.06660  0.77460  0.61630  Biso   1.000  H
  C30      1.0000 0.05800  0.85940  0.62000  Biso   1.000  C
  H26      1.0000 0.01120  0.83840  0.61430  Biso   1.000  H
  C31      1.0000 0.09680  0.93020  0.62770  Biso   1.000  C
  H27      1.0000 0.07460  0.95560  0.62730  Biso   1.000  H
  N1       1.0000 0.19180  0.35670  0.74313  Biso   1.000  N
  N2       1.0000 0.17420  0.46110  0.72879  Biso   1.000  N
  N3       1.0000 0.29360  0.03570  0.64760  Biso   1.000  N
  N4       1.0000 0.16370  0.96240  0.63530  Biso   1.000  N
  O1       1.0000 0.33560  0.43380  0.71905  Biso   1.000  O
  O2       1.0000 0.30840  0.40750  0.64780  Biso   1.000  O
  O3       1.0000 0.28260  0.15430  0.66890  Biso   1.000  O
  O4       1.0000 0.29180  0.20810  0.60630  Biso   1.000  O
  O5       1.0000 0.55310  0.43100  0.62260  Biso   1.000  O
  O6       1.0000 0.48290  0.37720  0.56570  Biso   1.000  O
  O7       1.0000 0.31210  0.53886  0.69144  Biso   1.000  O
  O8       1.0000 0.23800  0.49520  0.63400  Biso   1.000  O
  O9       1.0000 0.13990  0.06860  0.66488  Biso   1.000  O
  O10      1.0000 0.16760  0.06200  0.73585  Biso   1.000  O
  Cu3      1.0000 0.54403  0.10754  0.54020  Biso   1.000  Cu
  C32      1.0000 0.62403  0.20427  0.48493  Biso   1.000  C
  C33      1.0000 0.67293  0.27247  0.46408  Biso   1.000  C
  H28      1.0000 0.66593  0.26887  0.43167  Biso   1.000  H
  H29      1.0000 0.71933  0.28207  0.46967  Biso   1.000  H
  C34      1.0000 0.50273  0.95997  0.54697  Biso   1.000  C
  H30      1.0000 0.54933  0.97557  0.54927  Biso   1.000  H
  C35      1.0000 0.45623  0.88887  0.54927  Biso   1.000  C
  H31      1.0000 0.47113  0.85727  0.55207  Biso   1.000  H
  C36      1.0000 0.38803  0.86897  0.54727  Biso   1.000  C
  H32      1.0000 0.35553  0.82297  0.55097  Biso   1.000  H
  C37      1.0000 0.36733  0.91367  0.54007  Biso   1.000  C
  H33      1.0000 0.32083  0.89887  0.53717  Biso   1.000  H
  C38      1.0000 0.41573  0.98297  0.53707  Biso   1.000  C
  C39      1.0000 0.40043  0.03807  0.53277  Biso   1.000  C
  C40      1.0000 0.33063  0.02797  0.52977  Biso   1.000  C
  H34      1.0000 0.29303  0.98387  0.52947  Biso   1.000  H
  C41      1.0000 0.32163  0.07817  0.52777  Biso   1.000  C
  H35      1.0000 0.27713  0.07047  0.52567  Biso   1.000  H
  C42      1.0000 0.38183  0.15277  0.52857  Biso   1.000  C
  H36      1.0000 0.37623  0.19097  0.52827  Biso   1.000  H
  C43      1.0000 0.44593  0.15647  0.52967  Biso   1.000  C
  H37      1.0000 0.48483  0.19967  0.52847  Biso   1.000  H
  N5       1.0000 0.48213  0.00557  0.54177  Biso   1.000  N
  N6       1.0000 0.45463  0.10337  0.53237  Biso   1.000  N
  O11      1.0000 0.60983  0.14957  0.46491  Biso   1.000  O
  O12      1.0000 0.59863  0.20397  0.52344  Biso   1.000  O
  Cu4      1.0000 0.54765  0.80668  0.72259  Biso   1.000  Cu
  Cu5      1.0000 0.93845  0.15847  0.64952  Biso   1.000  Cu
  C44      1.0000 0.58500  0.93010  0.68000  Biso   1.000  C
  C45      1.0000 0.59750  0.00240  0.67380  Biso   1.000  C
  H38      1.0000 0.55920  0.00030  0.65750  Biso   1.000  H
  H39      1.0000 0.59940  0.02210  0.70330  Biso   1.000  H
  C46      1.0000 0.66310  0.04840  0.64850  Biso   1.000  C
  H40      1.0000 0.66150  0.02700  0.61950  Biso   1.000  H
  C47      1.0000 0.72620  0.05800  0.67440  Biso   1.000  C
  H41      1.0000 0.73160  0.08470  0.70130  Biso   1.000  H
  H42      1.0000 0.71800  0.01340  0.68400  Biso   1.000  H
  C48      1.0000 0.79260  0.09300  0.64780  Biso   1.000  C
  C49      1.0000 0.67230  0.12030  0.63930  Biso   1.000  C
  H43      1.0000 0.67020  0.14080  0.66760  Biso   1.000  H
  H44      1.0000 0.71700  0.14950  0.62600  Biso   1.000  H
  C50      1.0000 0.61760  0.11610  0.60780  Biso   1.000  C
  C51      1.0000 0.45950  0.75170  0.65078  Biso   1.000  C
  C52      1.0000 0.39440  0.73510  0.62509  Biso   1.000  C
  H45      1.0000 0.40140  0.73190  0.59310  Biso   1.000  H
  H46      1.0000 0.38410  0.77160  0.62940  Biso   1.000  H
  C53      1.0000 0.93430  0.06350  0.70730  Biso   1.000  C
  C54      1.0000 0.93530  0.99930  0.72130  Biso   1.000  C
  H47      1.0000 0.89510  0.95940  0.70940  Biso   1.000  H
  H48      1.0000 0.93360  0.99590  0.75400  Biso   1.000  H
  C55      1.0000 0.69410  0.89930  0.75050  Biso   1.000  C
  H49      1.0000 0.68490  0.93500  0.74790  Biso   1.000  H
  C56      1.0000 0.75970  0.91420  0.76170  Biso   1.000  C
  H50      1.0000 0.79390  0.95930  0.76660  Biso   1.000  H
  C57      1.0000 0.77360  0.86240  0.76540  Biso   1.000  C
  H51      1.0000 0.81760  0.87180  0.77280  Biso   1.000  H
  C58      1.0000 0.72190  0.79520  0.75830  Biso   1.000  C
  H52      1.0000 0.73080  0.75910  0.76010  Biso   1.000  H
  C59      1.0000 0.65630  0.78310  0.74830  Biso   1.000  C
  C60      1.0000 0.59600  0.71360  0.74300  Biso   1.000  C
  C61      1.0000 0.59760  0.65560  0.75190  Biso   1.000  C
  H53      1.0000 0.63760  0.65730  0.76190  Biso   1.000  H
  C62      1.0000 0.53650  0.59240  0.74570  Biso   1.000  C
  H54      1.0000 0.53610  0.55150  0.75090  Biso   1.000  H
  C63      1.0000 0.47830  0.59150  0.73210  Biso   1.000  C
  H55      1.0000 0.43740  0.55030  0.72880  Biso   1.000  H
  C64      1.0000 0.48160  0.65310  0.72340  Biso   1.000  C
  H56      1.0000 0.44240  0.65290  0.71340  Biso   1.000  H
  C65      1.0000 0.92180  0.28310  0.65100  Biso   1.000  C
  H57      1.0000 0.87520  0.25300  0.65480  Biso   1.000  H
  C66      1.0000 0.94560  0.35370  0.64900  Biso   1.000  C
  H58      1.0000 0.91560  0.37040  0.65250  Biso   1.000  H
  C67      1.0000 0.01360  0.39710  0.64180  Biso   1.000  C
  H59      1.0000 0.02980  0.44390  0.63900  Biso   1.000  H
  C68      1.0000 0.05880  0.37310  0.63880  Biso   1.000  C
  H60      1.0000 0.10550  0.40280  0.63490  Biso   1.000  H
  C69      1.0000 0.03170  0.30260  0.64170  Biso   1.000  C
  C70      1.0000 0.07400  0.27050  0.63590  Biso   1.000  C
  C71      1.0000 0.14400  0.30550  0.62930  Biso   1.000  C
  H61      1.0000 0.16840  0.35320  0.63030  Biso   1.000  H
  C72      1.0000 0.17820  0.26900  0.62100  Biso   1.000  C
  H62      1.0000 0.22540  0.29200  0.61630  Biso   1.000  H
  C73      1.0000 0.14060  0.19860  0.62000  Biso   1.000  C
  H63      1.0000 0.16160  0.17280  0.61430  Biso   1.000  H
  C74      1.0000 0.06980  0.16660  0.62770  Biso   1.000  C
  H64      1.0000 0.04440  0.11900  0.62730  Biso   1.000  H
  N7       1.0000 0.64330  0.83510  0.74313  Biso   1.000  N
  N8       1.0000 0.53890  0.71310  0.72879  Biso   1.000  N
  N9       1.0000 0.96430  0.25790  0.64760  Biso   1.000  N
  N10      1.0000 0.03760  0.20130  0.63530  Biso   1.000  N
  O13      1.0000 0.56620  0.90180  0.71905  Biso   1.000  O
  O14      1.0000 0.59250  0.90090  0.64780  Biso   1.000  O
  O15      1.0000 0.84570  0.12830  0.66890  Biso   1.000  O
  O16      1.0000 0.79190  0.08370  0.60630  Biso   1.000  O
  O17      1.0000 0.56900  0.12210  0.62260  Biso   1.000  O
  O18      1.0000 0.62280  0.10570  0.56570  Biso   1.000  O
  O19      1.0000 0.46114  0.77324  0.69144  Biso   1.000  O
  O20      1.0000 0.50480  0.74280  0.63400  Biso   1.000  O
  O21      1.0000 0.93140  0.07130  0.66488  Biso   1.000  O
  O22      1.0000 0.93800  0.10560  0.73585  Biso   1.000  O
  Cu6      1.0000 0.89246  0.43650  0.54020  Biso   1.000  Cu
  C75      1.0000 0.79573  0.41977  0.48493  Biso   1.000  C
  C76      1.0000 0.72753  0.40047  0.46408  Biso   1.000  C
  H65      1.0000 0.73113  0.39707  0.43167  Biso   1.000  H
  H66      1.0000 0.71793  0.43727  0.46967  Biso   1.000  H
  C77      1.0000 0.04003  0.54277  0.54697  Biso   1.000  C
  H67      1.0000 0.02443  0.57377  0.54927  Biso   1.000  H
  C78      1.0000 0.11113  0.56737  0.54927  Biso   1.000  C
  H68      1.0000 0.14273  0.61387  0.55207  Biso   1.000  H
  C79      1.0000 0.13103  0.51907  0.54727  Biso   1.000  C
  H69      1.0000 0.17703  0.53257  0.55097  Biso   1.000  H
  C80      1.0000 0.08633  0.45367  0.54007  Biso   1.000  C
  H70      1.0000 0.10113  0.42197  0.53717  Biso   1.000  H
  C81      1.0000 0.01703  0.43277  0.53707  Biso   1.000  C
  C82      1.0000 0.96193  0.36237  0.53277  Biso   1.000  C
  C83      1.0000 0.97203  0.30267  0.52977  Biso   1.000  C
  H71      1.0000 0.01613  0.30917  0.52947  Biso   1.000  H
  C84      1.0000 0.92183  0.24347  0.52777  Biso   1.000  C
  H72      1.0000 0.92953  0.20667  0.52567  Biso   1.000  H
  C85      1.0000 0.84723  0.22907  0.52857  Biso   1.000  C
  H73      1.0000 0.80903  0.18527  0.52827  Biso   1.000  H
  C86      1.0000 0.84353  0.28947  0.52967  Biso   1.000  C
  H74      1.0000 0.80033  0.28517  0.52847  Biso   1.000  H
  N11      1.0000 0.99443  0.47657  0.54177  Biso   1.000  N
  N12      1.0000 0.89663  0.35127  0.53237  Biso   1.000  N
  O23      1.0000 0.85043  0.46027  0.46491  Biso   1.000  O
  O24      1.0000 0.79603  0.39467  0.52344  Biso   1.000  O
  Cu7      1.0000 0.19332  0.74097  0.72259  Biso   1.000  Cu
  Cu8      1.0000 0.84153  0.77998  0.64952  Biso   1.000  Cu
  C87      1.0000 0.06990  0.65490  0.68000  Biso   1.000  C
  C88      1.0000 0.99760  0.59510  0.67380  Biso   1.000  C
  H75      1.0000 0.99970  0.55890  0.65750  Biso   1.000  H
  H76      1.0000 0.97790  0.57730  0.70330  Biso   1.000  H
  C89      1.0000 0.95160  0.61470  0.64850  Biso   1.000  C
  H77      1.0000 0.97300  0.63450  0.61950  Biso   1.000  H
  C90      1.0000 0.94200  0.66820  0.67440  Biso   1.000  C
  H78      1.0000 0.91530  0.64690  0.70130  Biso   1.000  H
  H79      1.0000 0.98660  0.70460  0.68400  Biso   1.000  H
  C91      1.0000 0.90700  0.69960  0.64780  Biso   1.000  C
  C92      1.0000 0.87970  0.55200  0.63930  Biso   1.000  C
  H80      1.0000 0.85920  0.52940  0.66760  Biso   1.000  H
  H81      1.0000 0.85050  0.56750  0.62600  Biso   1.000  H
  C93      1.0000 0.88390  0.50150  0.60780  Biso   1.000  C
  C94      1.0000 0.24830  0.70780  0.65078  Biso   1.000  C
  C95      1.0000 0.26490  0.65930  0.62509  Biso   1.000  C
  H82      1.0000 0.26810  0.66950  0.59310  Biso   1.000  H
  H83      1.0000 0.22840  0.61250  0.62940  Biso   1.000  H
  C96      1.0000 0.93650  0.87080  0.70730  Biso   1.000  C
  C97      1.0000 0.00070  0.93600  0.72130  Biso   1.000  C
  H84      1.0000 0.04060  0.93570  0.70940  Biso   1.000  H
  H85      1.0000 0.00410  0.93770  0.75400  Biso   1.000  H
  C98      1.0000 0.10070  0.79480  0.75050  Biso   1.000  C
  H86      1.0000 0.06500  0.74990  0.74790  Biso   1.000  H
  C99      1.0000 0.08580  0.84550  0.76170  Biso   1.000  C
  H87      1.0000 0.04070  0.83460  0.76660  Biso   1.000  H
  C100     1.0000 0.13760  0.91120  0.76540  Biso   1.000  C
  H88      1.0000 0.12820  0.94580  0.77280  Biso   1.000  H
  C101     1.0000 0.20480  0.92670  0.75830  Biso   1.000  C
  H89      1.0000 0.24090  0.97170  0.76010  Biso   1.000  H
  C102     1.0000 0.21690  0.87320  0.74830  Biso   1.000  C
  C103     1.0000 0.28640  0.88240  0.74300  Biso   1.000  C
  C104     1.0000 0.34440  0.94200  0.75190  Biso   1.000  C
  H90      1.0000 0.34270  0.98030  0.76190  Biso   1.000  H
  C105     1.0000 0.40760  0.94410  0.74570  Biso   1.000  C
  H91      1.0000 0.44850  0.98460  0.75090  Biso   1.000  H
  C106     1.0000 0.40850  0.88680  0.73210  Biso   1.000  C
  H92      1.0000 0.44970  0.88710  0.72880  Biso   1.000  H
  C107     1.0000 0.34690  0.82850  0.72340  Biso   1.000  C
  H93      1.0000 0.34710  0.78950  0.71340  Biso   1.000  H
  C108     1.0000 0.71690  0.63870  0.65100  Biso   1.000  C
  H94      1.0000 0.74700  0.62220  0.65480  Biso   1.000  H
  C109     1.0000 0.64630  0.59190  0.64900  Biso   1.000  C
  H95      1.0000 0.62960  0.54520  0.65250  Biso   1.000  H
  C110     1.0000 0.60290  0.61650  0.64180  Biso   1.000  C
  H96      1.0000 0.55610  0.58590  0.63900  Biso   1.000  H
  C111     1.0000 0.62690  0.68570  0.63880  Biso   1.000  C
  H97      1.0000 0.59720  0.70270  0.63490  Biso   1.000  H
  C112     1.0000 0.69740  0.72910  0.64170  Biso   1.000  C
  C113     1.0000 0.72950  0.80350  0.63590  Biso   1.000  C
  C114     1.0000 0.69450  0.83850  0.62930  Biso   1.000  C
  H98      1.0000 0.64680  0.81520  0.63030  Biso   1.000  H
  C115     1.0000 0.73100  0.90920  0.62100  Biso   1.000  C
  H99      1.0000 0.70800  0.93340  0.61630  Biso   1.000  H
  C116     1.0000 0.80140  0.94200  0.62000  Biso   1.000  C
  H100     1.0000 0.82720  0.98880  0.61430  Biso   1.000  H
  C117     1.0000 0.83340  0.90320  0.62770  Biso   1.000  C
  H101     1.0000 0.88100  0.92540  0.62730  Biso   1.000  H
  N13      1.0000 0.16490  0.80820  0.74313  Biso   1.000  N
  N14      1.0000 0.28690  0.82580  0.72879  Biso   1.000  N
  N15      1.0000 0.74210  0.70640  0.64760  Biso   1.000  N
  N16      1.0000 0.79870  0.83630  0.63530  Biso   1.000  N
  O25      1.0000 0.09820  0.66440  0.71905  Biso   1.000  O
  O26      1.0000 0.09910  0.69160  0.64780  Biso   1.000  O
  O27      1.0000 0.87170  0.71740  0.66890  Biso   1.000  O
  O28      1.0000 0.91630  0.70820  0.60630  Biso   1.000  O
  O29      1.0000 0.87790  0.44690  0.62260  Biso   1.000  O
  O30      1.0000 0.89430  0.51710  0.56570  Biso   1.000  O
  O31      1.0000 0.22676  0.68790  0.69144  Biso   1.000  O
  O32      1.0000 0.25720  0.76200  0.63400  Biso   1.000  O
  O33      1.0000 0.92870  0.86010  0.66488  Biso   1.000  O
  O34      1.0000 0.89440  0.83240  0.73585  Biso   1.000  O
  Cu9      1.0000 0.56350  0.45597  0.54020  Biso   1.000  Cu
  C118     1.0000 0.58023  0.37597  0.48493  Biso   1.000  C
  C119     1.0000 0.59953  0.32707  0.46408  Biso   1.000  C
  H102     1.0000 0.60293  0.33407  0.43167  Biso   1.000  H
  H103     1.0000 0.56273  0.28067  0.46967  Biso   1.000  H
  C120     1.0000 0.45723  0.49727  0.54697  Biso   1.000  C
  H104     1.0000 0.42623  0.45067  0.54927  Biso   1.000  H
  C121     1.0000 0.43263  0.54377  0.54927  Biso   1.000  C
  H105     1.0000 0.38613  0.52887  0.55207  Biso   1.000  H
  C122     1.0000 0.48093  0.61197  0.54727  Biso   1.000  C
  H106     1.0000 0.46743  0.64447  0.55097  Biso   1.000  H
  C123     1.0000 0.54633  0.63267  0.54007  Biso   1.000  C
  H107     1.0000 0.57803  0.67917  0.53717  Biso   1.000  H
  C124     1.0000 0.56723  0.58427  0.53707  Biso   1.000  C
  C125     1.0000 0.63763  0.59957  0.53277  Biso   1.000  C
  C126     1.0000 0.69733  0.66937  0.52977  Biso   1.000  C
  H108     1.0000 0.69083  0.70697  0.52947  Biso   1.000  H
  C127     1.0000 0.75653  0.67837  0.52777  Biso   1.000  C
  H109     1.0000 0.79333  0.72287  0.52567  Biso   1.000  H
  C128     1.0000 0.77093  0.61817  0.52857  Biso   1.000  C
  H110     1.0000 0.81473  0.62377  0.52827  Biso   1.000  H
  C129     1.0000 0.71053  0.55407  0.52967  Biso   1.000  C
  H111     1.0000 0.71483  0.51517  0.52847  Biso   1.000  H
  N17      1.0000 0.52343  0.51787  0.54177  Biso   1.000  N
  N18      1.0000 0.64873  0.54537  0.53237  Biso   1.000  N
  O35      1.0000 0.53973  0.39017  0.46491  Biso   1.000  O
  O36      1.0000 0.60533  0.40137  0.52344  Biso   1.000  O
  C130     1.0000 0.33333  0.66667  0.64170  Biso   1.000  C
  H112     1.0000 0.33333  0.66667  0.67480  Biso   1.000  H
  C131     1.0000 0.66667  0.33333  0.48097  Biso   1.000  C
  H113     1.0000 0.66667  0.33333  0.51407  Biso   1.000  H
  C132     1.0000 0.00000  0.00000  0.70420  Biso   1.000  C
  H114     1.0000 0.00000  0.00000  0.67110  Biso   1.000  H
  Cu10     1.0000 0.21070  0.44087  0.87353  Biso   1.000  Cu
  C133     1.0000 0.29070  0.53760  0.81826  Biso   1.000  C
  C134     1.0000 0.33960  0.60580  0.79741  Biso   1.000  C
  H115     1.0000 0.33260  0.60220  0.76500  Biso   1.000  H
  H116     1.0000 0.38600  0.61540  0.80300  Biso   1.000  H
  C135     1.0000 0.16940  0.29330  0.88030  Biso   1.000  C
  H117     1.0000 0.21600  0.30890  0.88260  Biso   1.000  H
  C136     1.0000 0.12290  0.22220  0.88260  Biso   1.000  C
  H118     1.0000 0.13780  0.19060  0.88540  Biso   1.000  H
  C137     1.0000 0.05470  0.20230  0.88060  Biso   1.000  C
  H119     1.0000 0.02220  0.15630  0.88430  Biso   1.000  H
  C138     1.0000 0.03400  0.24700  0.87340  Biso   1.000  C
  H120     1.0000 0.98750  0.23220  0.87050  Biso   1.000  H
  C139     1.0000 0.08240  0.31630  0.87040  Biso   1.000  C
  C140     1.0000 0.06710  0.37140  0.86610  Biso   1.000  C
  C141     1.0000 0.99730  0.36130  0.86310  Biso   1.000  C
  H121     1.0000 0.95970  0.31720  0.86280  Biso   1.000  H
  C142     1.0000 0.98830  0.41150  0.86110  Biso   1.000  C
  H122     1.0000 0.94380  0.40380  0.85900  Biso   1.000  H
  C143     1.0000 0.04850  0.48610  0.86190  Biso   1.000  C
  H123     1.0000 0.04290  0.52430  0.86160  Biso   1.000  H
  C144     1.0000 0.11260  0.48980  0.86300  Biso   1.000  C
  H124     1.0000 0.15150  0.53300  0.86180  Biso   1.000  H
  N19      1.0000 0.14880  0.33890  0.87510  Biso   1.000  N
  N20      1.0000 0.12130  0.43670  0.86570  Biso   1.000  N
  O37      1.0000 0.27650  0.48290  0.79824  Biso   1.000  O
  O38      1.0000 0.26530  0.53730  0.85677  Biso   1.000  O
  Cu11     1.0000 0.92570  0.78568  0.05592  Biso   1.000  Cu
  Cu12     1.0000 0.88669  0.39488  0.98285  Biso   1.000  Cu
  C145     1.0000 0.01177  0.74833  0.01333  Biso   1.000  C
  C146     1.0000 0.07157  0.73583  0.00713  Biso   1.000  C
  H125     1.0000 0.10777  0.77413  0.99083  Biso   1.000  H
  H126     1.0000 0.08937  0.73393  0.03663  Biso   1.000  H
  C147     1.0000 0.05197  0.67023  0.98183  Biso   1.000  C
  H127     1.0000 0.03217  0.67183  0.95283  Biso   1.000  H
  C148     1.0000 0.99847  0.60713  0.00773  Biso   1.000  C
  H128     1.0000 0.01977  0.60173  0.03463  Biso   1.000  H
  H129     1.0000 0.96207  0.61533  0.01733  Biso   1.000  H
  C149     1.0000 0.96707  0.54073  0.98113  Biso   1.000  C
  C150     1.0000 0.11467  0.66103  0.97263  Biso   1.000  C
  H130     1.0000 0.13727  0.66313  0.00093  Biso   1.000  H
  H131     1.0000 0.09917  0.61633  0.95933  Biso   1.000  H
  C151     1.0000 0.16517  0.71573  0.94113  Biso   1.000  C
  C152     1.0000 0.95887  0.87383  0.98411  Biso   1.000  C
  C153     1.0000 0.00737  0.93893  0.95842  Biso   1.000  C
  H132     1.0000 0.99717  0.93193  0.92643  Biso   1.000  H
  H133     1.0000 0.05417  0.94923  0.96273  Biso   1.000  H
  C154     1.0000 0.79587  0.39903  0.04063  Biso   1.000  C
  C155     1.0000 0.73067  0.39803  0.05463  Biso   1.000  C
  H134     1.0000 0.73097  0.43823  0.04273  Biso   1.000  H
  H135     1.0000 0.72897  0.39973  0.08733  Biso   1.000  H
  C156     1.0000 0.87187  0.63923  0.08383  Biso   1.000  C
  H136     1.0000 0.91677  0.64843  0.08123  Biso   1.000  H
  C157     1.0000 0.82117  0.57363  0.09503  Biso   1.000  C
  H137     1.0000 0.83207  0.53943  0.09993  Biso   1.000  H
  C158     1.0000 0.75547  0.55973  0.09873  Biso   1.000  C
  H138     1.0000 0.72087  0.51573  0.10613  Biso   1.000  H
  C159     1.0000 0.73997  0.61143  0.09163  Biso   1.000  C
  H139     1.0000 0.69497  0.60253  0.09343  Biso   1.000  H
  C160     1.0000 0.79347  0.67703  0.08163  Biso   1.000  C
  C161     1.0000 0.78427  0.73733  0.07633  Biso   1.000  C
  C162     1.0000 0.72467  0.73573  0.08523  Biso   1.000  C
  H140     1.0000 0.68637  0.69573  0.09523  Biso   1.000  H
  C163     1.0000 0.72257  0.79683  0.07903  Biso   1.000  C
  H141     1.0000 0.68207  0.79723  0.08423  Biso   1.000  H
  C164     1.0000 0.77987  0.85503  0.06543  Biso   1.000  C
  H142     1.0000 0.77957  0.89593  0.06213  Biso   1.000  H
  C165     1.0000 0.83817  0.85173  0.05673  Biso   1.000  C
  H143     1.0000 0.87717  0.89093  0.04673  Biso   1.000  H
  C166     1.0000 0.02797  0.41153  0.98433  Biso   1.000  C
  H144     1.0000 0.04447  0.45813  0.98813  Biso   1.000  H
  C167     1.0000 0.07477  0.38773  0.98233  Biso   1.000  C
  H145     1.0000 0.12147  0.41773  0.98583  Biso   1.000  H
  C168     1.0000 0.05017  0.31973  0.97513  Biso   1.000  C
  H146     1.0000 0.08077  0.30353  0.97233  Biso   1.000  H
  C169     1.0000 0.98097  0.27453  0.97213  Biso   1.000  C
  H147     1.0000 0.96397  0.22783  0.96823  Biso   1.000  H
  C170     1.0000 0.93757  0.30163  0.97503  Biso   1.000  C
  C171     1.0000 0.86317  0.25933  0.96923  Biso   1.000  C
  C172     1.0000 0.82817  0.18933  0.96263  Biso   1.000  C
  H148     1.0000 0.85147  0.16493  0.96363  Biso   1.000  H
  C173     1.0000 0.75747  0.15513  0.95433  Biso   1.000  C
  H149     1.0000 0.73327  0.10793  0.94963  Biso   1.000  H
  C174     1.0000 0.72467  0.19273  0.95333  Biso   1.000  C
  H150     1.0000 0.67787  0.17173  0.94763  Biso   1.000  H
  C175     1.0000 0.76347  0.26353  0.96103  Biso   1.000  C
  H151     1.0000 0.74127  0.28893  0.96063  Biso   1.000  H
  N21      1.0000 0.85847  0.69003  0.07646  Biso   1.000  N
  N22      1.0000 0.84087  0.79443  0.06212  Biso   1.000  N
  N23      1.0000 0.96027  0.36903  0.98093  Biso   1.000  N
  N24      1.0000 0.83037  0.29573  0.96863  Biso   1.000  N
  O39      1.0000 0.00227  0.76713  0.05238  Biso   1.000  O
  O40      1.0000 0.97507  0.74083  0.98113  Biso   1.000  O
  O41      1.0000 0.94927  0.48763  0.00223  Biso   1.000  O
  O42      1.0000 0.95847  0.54143  0.93963  Biso   1.000  O
  O43      1.0000 0.21977  0.76433  0.95593  Biso   1.000  O
  O44      1.0000 0.14957  0.71053  0.89903  Biso   1.000  O
  O45      1.0000 0.97877  0.87219  0.02477  Biso   1.000  O
  O46      1.0000 0.90467  0.82853  0.96733  Biso   1.000  O
  O47      1.0000 0.80657  0.40193  0.99821  Biso   1.000  O
  O48      1.0000 0.83427  0.39533  0.06918  Biso   1.000  O
  Cu13     1.0000 0.55913  0.76983  0.87353  Biso   1.000  Cu
  C176     1.0000 0.46240  0.75310  0.81826  Biso   1.000  C
  C177     1.0000 0.39420  0.73380  0.79741  Biso   1.000  C
  H152     1.0000 0.39780  0.73040  0.76500  Biso   1.000  H
  H153     1.0000 0.38460  0.77060  0.80300  Biso   1.000  H
  C178     1.0000 0.70670  0.87610  0.88030  Biso   1.000  C
  H154     1.0000 0.69110  0.90710  0.88260  Biso   1.000  H
  C179     1.0000 0.77780  0.90070  0.88260  Biso   1.000  C
  H155     1.0000 0.80940  0.94720  0.88540  Biso   1.000  H
  C180     1.0000 0.79770  0.85240  0.88060  Biso   1.000  C
  H156     1.0000 0.84370  0.86590  0.88430  Biso   1.000  H
  C181     1.0000 0.75300  0.78700  0.87340  Biso   1.000  C
  H157     1.0000 0.76780  0.75530  0.87050  Biso   1.000  H
  C182     1.0000 0.68370  0.76610  0.87040  Biso   1.000  C
  C183     1.0000 0.62860  0.69570  0.86610  Biso   1.000  C
  C184     1.0000 0.63870  0.63600  0.86310  Biso   1.000  C
  H158     1.0000 0.68280  0.64250  0.86280  Biso   1.000  H
  C185     1.0000 0.58850  0.57680  0.86110  Biso   1.000  C
  H159     1.0000 0.59620  0.54000  0.85900  Biso   1.000  H
  C186     1.0000 0.51390  0.56240  0.86190  Biso   1.000  C
  H160     1.0000 0.47570  0.51860  0.86160  Biso   1.000  H
  C187     1.0000 0.51020  0.62280  0.86300  Biso   1.000  C
  H161     1.0000 0.46700  0.61850  0.86180  Biso   1.000  H
  N25      1.0000 0.66110  0.80990  0.87510  Biso   1.000  N
  N26      1.0000 0.56330  0.68460  0.86570  Biso   1.000  N
  O49      1.0000 0.51710  0.79360  0.79824  Biso   1.000  O
  O50      1.0000 0.46270  0.72800  0.85677  Biso   1.000  O
  Cu14     1.0000 0.21432  0.14001  0.05592  Biso   1.000  Cu
  Cu15     1.0000 0.60512  0.49180  0.98285  Biso   1.000  Cu
  C188     1.0000 0.25167  0.26343  0.01333  Biso   1.000  C
  C189     1.0000 0.26417  0.33573  0.00713  Biso   1.000  C
  H162     1.0000 0.22587  0.33363  0.99083  Biso   1.000  H
  H163     1.0000 0.26607  0.35543  0.03663  Biso   1.000  H
  C190     1.0000 0.32977  0.38173  0.98183  Biso   1.000  C
  H164     1.0000 0.32817  0.36033  0.95283  Biso   1.000  H
  C191     1.0000 0.39287  0.39133  0.00773  Biso   1.000  C
  H165     1.0000 0.39827  0.41803  0.03463  Biso   1.000  H
  H166     1.0000 0.38467  0.34673  0.01733  Biso   1.000  H
  C192     1.0000 0.45927  0.42633  0.98113  Biso   1.000  C
  C193     1.0000 0.33897  0.45363  0.97263  Biso   1.000  C
  H167     1.0000 0.33687  0.47413  0.00093  Biso   1.000  H
  H168     1.0000 0.38367  0.48283  0.95933  Biso   1.000  H
  C194     1.0000 0.28427  0.44943  0.94113  Biso   1.000  C
  C195     1.0000 0.12617  0.08503  0.98411  Biso   1.000  C
  C196     1.0000 0.06107  0.06843  0.95842  Biso   1.000  C
  H169     1.0000 0.06807  0.06523  0.92643  Biso   1.000  H
  H170     1.0000 0.05077  0.10493  0.96273  Biso   1.000  H
  C197     1.0000 0.60097  0.39683  0.04063  Biso   1.000  C
  C198     1.0000 0.60197  0.33263  0.05463  Biso   1.000  C
  H171     1.0000 0.56177  0.29273  0.04273  Biso   1.000  H
  H172     1.0000 0.60027  0.32923  0.08733  Biso   1.000  H
  C199     1.0000 0.36077  0.23263  0.08383  Biso   1.000  C
  H173     1.0000 0.35157  0.26833  0.08123  Biso   1.000  H
  C200     1.0000 0.42637  0.24753  0.09503  Biso   1.000  C
  H174     1.0000 0.46057  0.29263  0.09993  Biso   1.000  H
  C201     1.0000 0.44027  0.19573  0.09873  Biso   1.000  C
  H175     1.0000 0.48427  0.20513  0.10613  Biso   1.000  H
  C202     1.0000 0.38857  0.12853  0.09163  Biso   1.000  C
  H176     1.0000 0.39747  0.09243  0.09343  Biso   1.000  H
  C203     1.0000 0.32297  0.11643  0.08163  Biso   1.000  C
  C204     1.0000 0.26267  0.04693  0.07633  Biso   1.000  C
  C205     1.0000 0.26427  0.98893  0.08523  Biso   1.000  C
  H177     1.0000 0.30427  0.99063  0.09523  Biso   1.000  H
  C206     1.0000 0.20317  0.92573  0.07903  Biso   1.000  C
  H178     1.0000 0.20277  0.88483  0.08423  Biso   1.000  H
  C207     1.0000 0.14497  0.92483  0.06543  Biso   1.000  C
  H179     1.0000 0.10407  0.88363  0.06213  Biso   1.000  H
  C208     1.0000 0.14827  0.98643  0.05673  Biso   1.000  C
  H180     1.0000 0.10907  0.98623  0.04673  Biso   1.000  H
  C209     1.0000 0.58847  0.61643  0.98433  Biso   1.000  C
  H181     1.0000 0.54187  0.58633  0.98813  Biso   1.000  H
  C210     1.0000 0.61227  0.68703  0.98233  Biso   1.000  C
  H182     1.0000 0.58227  0.70373  0.98583  Biso   1.000  H
  C211     1.0000 0.68027  0.73043  0.97513  Biso   1.000  C
  H183     1.0000 0.69647  0.77723  0.97233  Biso   1.000  H
  C212     1.0000 0.72547  0.70643  0.97213  Biso   1.000  C
  H184     1.0000 0.77217  0.73613  0.96823  Biso   1.000  H
  C213     1.0000 0.69837  0.63593  0.97503  Biso   1.000  C
  C214     1.0000 0.74067  0.60383  0.96923  Biso   1.000  C
  C215     1.0000 0.81067  0.63883  0.96263  Biso   1.000  C
  H185     1.0000 0.83507  0.68653  0.96363  Biso   1.000  H
  C216     1.0000 0.84487  0.60233  0.95433  Biso   1.000  C
  H186     1.0000 0.89207  0.62533  0.94963  Biso   1.000  H
  C217     1.0000 0.80727  0.53193  0.95333  Biso   1.000  C
  H187     1.0000 0.82827  0.50613  0.94763  Biso   1.000  H
  C218     1.0000 0.73647  0.49993  0.96103  Biso   1.000  C
  H188     1.0000 0.71107  0.45233  0.96063  Biso   1.000  H
  N27      1.0000 0.30997  0.16843  0.07646  Biso   1.000  N
  N28      1.0000 0.20557  0.04643  0.06212  Biso   1.000  N
  N29      1.0000 0.63097  0.59123  0.98093  Biso   1.000  N
  N30      1.0000 0.70427  0.53463  0.96863  Biso   1.000  N
  O51      1.0000 0.23287  0.23513  0.05238  Biso   1.000  O
  O52      1.0000 0.25917  0.23423  0.98113  Biso   1.000  O
  O53      1.0000 0.51237  0.46163  0.00223  Biso   1.000  O
  O54      1.0000 0.45857  0.41703  0.93963  Biso   1.000  O
  O55      1.0000 0.23567  0.45543  0.95593  Biso   1.000  O
  O56      1.0000 0.28947  0.43903  0.89903  Biso   1.000  O
  O57      1.0000 0.12781  0.10657  0.02477  Biso   1.000  O
  O58      1.0000 0.17147  0.07613  0.96733  Biso   1.000  O
  O59      1.0000 0.59807  0.40463  0.99821  Biso   1.000  O
  O60      1.0000 0.60467  0.43893  0.06918  Biso   1.000  O
  Cu16     1.0000 0.23017  0.78930  0.87353  Biso   1.000  Cu
  C219     1.0000 0.24690  0.70930  0.81826  Biso   1.000  C
  C220     1.0000 0.26620  0.66040  0.79741  Biso   1.000  C
  H189     1.0000 0.26960  0.66740  0.76500  Biso   1.000  H
  H190     1.0000 0.22940  0.61400  0.80300  Biso   1.000  H
  C221     1.0000 0.12390  0.83060  0.88030  Biso   1.000  C
  H191     1.0000 0.09290  0.78400  0.88260  Biso   1.000  H
  C222     1.0000 0.09930  0.87710  0.88260  Biso   1.000  C
  H192     1.0000 0.05280  0.86220  0.88540  Biso   1.000  H
  C223     1.0000 0.14760  0.94530  0.88060  Biso   1.000  C
  H193     1.0000 0.13410  0.97780  0.88430  Biso   1.000  H
  C224     1.0000 0.21300  0.96600  0.87340  Biso   1.000  C
  H194     1.0000 0.24470  0.01250  0.87050  Biso   1.000  H
  C225     1.0000 0.23390  0.91760  0.87040  Biso   1.000  C
  C226     1.0000 0.30430  0.93290  0.86610  Biso   1.000  C
  C227     1.0000 0.36400  0.00270  0.86310  Biso   1.000  C
  H195     1.0000 0.35750  0.04030  0.86280  Biso   1.000  H
  C228     1.0000 0.42320  0.01170  0.86110  Biso   1.000  C
  H196     1.0000 0.46000  0.05620  0.85900  Biso   1.000  H
  C229     1.0000 0.43760  0.95150  0.86190  Biso   1.000  C
  H197     1.0000 0.48140  0.95710  0.86160  Biso   1.000  H
  C230     1.0000 0.37720  0.88740  0.86300  Biso   1.000  C
  H198     1.0000 0.38150  0.84850  0.86180  Biso   1.000  H
  N31      1.0000 0.19010  0.85120  0.87510  Biso   1.000  N
  N32      1.0000 0.31540  0.87870  0.86570  Biso   1.000  N
  O61      1.0000 0.20640  0.72350  0.79824  Biso   1.000  O
  O62      1.0000 0.27200  0.73470  0.85677  Biso   1.000  O
  Cu17     1.0000 0.85999  0.07430  0.05592  Biso   1.000  Cu
  Cu18     1.0000 0.50820  0.11331  0.98285  Biso   1.000  Cu
  C231     1.0000 0.73657  0.98823  0.01333  Biso   1.000  C
  C232     1.0000 0.66427  0.92843  0.00713  Biso   1.000  C
  H199     1.0000 0.66637  0.89223  0.99083  Biso   1.000  H
  H200     1.0000 0.64457  0.91063  0.03663  Biso   1.000  H
  C233     1.0000 0.61827  0.94803  0.98183  Biso   1.000  C
  H201     1.0000 0.63967  0.96783  0.95283  Biso   1.000  H
  C234     1.0000 0.60867  0.00153  0.00773  Biso   1.000  C
  H202     1.0000 0.58197  0.98023  0.03463  Biso   1.000  H
  H203     1.0000 0.65327  0.03793  0.01733  Biso   1.000  H
  C235     1.0000 0.57367  0.03293  0.98113  Biso   1.000  C
  C236     1.0000 0.54637  0.88533  0.97263  Biso   1.000  C
  H204     1.0000 0.52587  0.86273  0.00093  Biso   1.000  H
  H205     1.0000 0.51717  0.90083  0.95933  Biso   1.000  H
  C237     1.0000 0.55057  0.83483  0.94113  Biso   1.000  C
  C238     1.0000 0.91497  0.04113  0.98411  Biso   1.000  C
  C239     1.0000 0.93157  0.99263  0.95842  Biso   1.000  C
  H206     1.0000 0.93477  0.00283  0.92643  Biso   1.000  H
  H207     1.0000 0.89507  0.94583  0.96273  Biso   1.000  H
  C240     1.0000 0.60317  0.20413  0.04063  Biso   1.000  C
  C241     1.0000 0.66737  0.26933  0.05463  Biso   1.000  C
  H208     1.0000 0.70727  0.26903  0.04273  Biso   1.000  H
  H209     1.0000 0.67077  0.27103  0.08733  Biso   1.000  H
  C242     1.0000 0.76737  0.12813  0.08383  Biso   1.000  C
  H210     1.0000 0.73167  0.08323  0.08123  Biso   1.000  H
  C243     1.0000 0.75247  0.17883  0.09503  Biso   1.000  C
  H211     1.0000 0.70737  0.16793  0.09993  Biso   1.000  H
  C244     1.0000 0.80427  0.24453  0.09873  Biso   1.000  C
  H212     1.0000 0.79487  0.27913  0.10613  Biso   1.000  H
  C245     1.0000 0.87147  0.26003  0.09163  Biso   1.000  C
  H213     1.0000 0.90757  0.30503  0.09343  Biso   1.000  H
  C246     1.0000 0.88357  0.20653  0.08163  Biso   1.000  C
  C247     1.0000 0.95307  0.21573  0.07633  Biso   1.000  C
  C248     1.0000 0.01107  0.27533  0.08523  Biso   1.000  C
  H214     1.0000 0.00937  0.31363  0.09523  Biso   1.000  H
  C249     1.0000 0.07427  0.27743  0.07903  Biso   1.000  C
  H215     1.0000 0.11517  0.31793  0.08423  Biso   1.000  H
  C250     1.0000 0.07517  0.22013  0.06543  Biso   1.000  C
  H216     1.0000 0.11637  0.22043  0.06213  Biso   1.000  H
  C251     1.0000 0.01357  0.16183  0.05673  Biso   1.000  C
  H217     1.0000 0.01377  0.12283  0.04673  Biso   1.000  H
  C252     1.0000 0.38357  0.97203  0.98433  Biso   1.000  C
  H218     1.0000 0.41367  0.95553  0.98813  Biso   1.000  H
  C253     1.0000 0.31297  0.92523  0.98233  Biso   1.000  C
  H219     1.0000 0.29627  0.87853  0.98583  Biso   1.000  H
  C254     1.0000 0.26957  0.94983  0.97513  Biso   1.000  C
  H220     1.0000 0.22277  0.91923  0.97233  Biso   1.000  H
  C255     1.0000 0.29357  0.01903  0.97213  Biso   1.000  C
  H221     1.0000 0.26387  0.03603  0.96823  Biso   1.000  H
  C256     1.0000 0.36407  0.06243  0.97503  Biso   1.000  C
  C257     1.0000 0.39617  0.13683  0.96923  Biso   1.000  C
  C258     1.0000 0.36117  0.17183  0.96263  Biso   1.000  C
  H222     1.0000 0.31347  0.14853  0.96363  Biso   1.000  H
  C259     1.0000 0.39767  0.24253  0.95433  Biso   1.000  C
  H223     1.0000 0.37467  0.26673  0.94963  Biso   1.000  H
  C260     1.0000 0.46807  0.27533  0.95333  Biso   1.000  C
  H224     1.0000 0.49387  0.32213  0.94763  Biso   1.000  H
  C261     1.0000 0.50007  0.23653  0.96103  Biso   1.000  C
  H225     1.0000 0.54767  0.25873  0.96063  Biso   1.000  H
  N33      1.0000 0.83157  0.14153  0.07646  Biso   1.000  N
  N34      1.0000 0.95357  0.15913  0.06212  Biso   1.000  N
  N35      1.0000 0.40877  0.03973  0.98093  Biso   1.000  N
  N36      1.0000 0.46537  0.16963  0.96863  Biso   1.000  N
  O63      1.0000 0.76487  0.99773  0.05238  Biso   1.000  O
  O64      1.0000 0.76577  0.02493  0.98113  Biso   1.000  O
  O65      1.0000 0.53837  0.05073  0.00223  Biso   1.000  O
  O66      1.0000 0.58297  0.04153  0.93963  Biso   1.000  O
  O67      1.0000 0.54457  0.78023  0.95593  Biso   1.000  O
  O68      1.0000 0.56097  0.85043  0.89903  Biso   1.000  O
  O69      1.0000 0.89343  0.02123  0.02477  Biso   1.000  O
  O70      1.0000 0.92387  0.09533  0.96733  Biso   1.000  O
  O71      1.0000 0.59537  0.19343  0.99821  Biso   1.000  O
  O72      1.0000 0.56107  0.16573  0.06918  Biso   1.000  O
  C262     1.0000 0.33333  0.66667  0.81430  Biso   1.000  C
  H226     1.0000 0.33333  0.66667  0.84740  Biso   1.000  H
  C263     1.0000 0.00000  0.00000  0.97503  Biso   1.000  C
  H227     1.0000 0.00000  0.00000  0.00813  Biso   1.000  H
  C264     1.0000 0.66667  0.33333  0.03753  Biso   1.000  C
  H228     1.0000 0.66667  0.33333  0.00443  Biso   1.000  H
  Cu19     1.0000 0.87737  0.77420  0.20686  Biso   1.000  Cu
  C265     1.0000 0.95737  0.87093  0.15159  Biso   1.000  C
  C266     1.0000 0.00627  0.93913  0.13074  Biso   1.000  C
  H229     1.0000 0.99927  0.93553  0.09833  Biso   1.000  H
  H230     1.0000 0.05267  0.94873  0.13633  Biso   1.000  H
  C267     1.0000 0.83607  0.62663  0.21363  Biso   1.000  C
  H231     1.0000 0.88267  0.64223  0.21593  Biso   1.000  H
  C268     1.0000 0.78957  0.55553  0.21593  Biso   1.000  C
  H232     1.0000 0.80447  0.52393  0.21873  Biso   1.000  H
  C269     1.0000 0.72137  0.53563  0.21393  Biso   1.000  C
  H233     1.0000 0.68887  0.48963  0.21763  Biso   1.000  H
  C270     1.0000 0.70067  0.58033  0.20673  Biso   1.000  C
  H234     1.0000 0.65417  0.56553  0.20383  Biso   1.000  H
  C271     1.0000 0.74907  0.64963  0.20373  Biso   1.000  C
  C272     1.0000 0.73377  0.70473  0.19943  Biso   1.000  C
  C273     1.0000 0.66397  0.69463  0.19643  Biso   1.000  C
  H235     1.0000 0.62637  0.65053  0.19613  Biso   1.000  H
  C274     1.0000 0.65497  0.74483  0.19443  Biso   1.000  C
  H236     1.0000 0.61047  0.73713  0.19233  Biso   1.000  H
  C275     1.0000 0.71517  0.81943  0.19523  Biso   1.000  C
  H237     1.0000 0.70957  0.85763  0.19493  Biso   1.000  H
  C276     1.0000 0.77927  0.82313  0.19633  Biso   1.000  C
  H238     1.0000 0.81817  0.86633  0.19513  Biso   1.000  H
  N37      1.0000 0.81547  0.67223  0.20843  Biso   1.000  N
  N38      1.0000 0.78797  0.77003  0.19903  Biso   1.000  N
  O73      1.0000 0.94317  0.81623  0.13157  Biso   1.000  O
  O74      1.0000 0.93197  0.87063  0.19010  Biso   1.000  O
  Cu20     1.0000 0.59236  0.11902  0.38926  Biso   1.000  Cu
  Cu21     1.0000 0.55335  0.72822  0.31619  Biso   1.000  Cu
  C277     1.0000 0.67843  0.08167  0.34667  Biso   1.000  C
  C278     1.0000 0.73823  0.06917  0.34047  Biso   1.000  C
  H239     1.0000 0.77443  0.10747  0.32417  Biso   1.000  H
  H240     1.0000 0.75603  0.06727  0.36997  Biso   1.000  H
  C279     1.0000 0.71863  0.00357  0.31517  Biso   1.000  C
  H241     1.0000 0.69883  0.00517  0.28617  Biso   1.000  H
  C280     1.0000 0.66513  0.94047  0.34107  Biso   1.000  C
  H242     1.0000 0.68643  0.93507  0.36797  Biso   1.000  H
  H243     1.0000 0.62873  0.94867  0.35067  Biso   1.000  H
  C281     1.0000 0.63373  0.87407  0.31447  Biso   1.000  C
  C282     1.0000 0.78133  0.99437  0.30597  Biso   1.000  C
  H244     1.0000 0.80393  0.99647  0.33427  Biso   1.000  H
  H245     1.0000 0.76583  0.94967  0.29267  Biso   1.000  H
  C283     1.0000 0.83183  0.04907  0.27447  Biso   1.000  C
  C284     1.0000 0.62553  0.20717  0.31745  Biso   1.000  C
  C285     1.0000 0.67403  0.27227  0.29176  Biso   1.000  C
  H246     1.0000 0.66383  0.26527  0.25977  Biso   1.000  H
  H247     1.0000 0.72083  0.28257  0.29607  Biso   1.000  H
  C286     1.0000 0.46253  0.73237  0.37397  Biso   1.000  C
  C287     1.0000 0.39733  0.73137  0.38797  Biso   1.000  C
  H248     1.0000 0.39763  0.77157  0.37607  Biso   1.000  H
  H249     1.0000 0.39563  0.73307  0.42067  Biso   1.000  H
  C288     1.0000 0.53853  0.97257  0.41717  Biso   1.000  C
  H250     1.0000 0.58343  0.98177  0.41457  Biso   1.000  H
  C289     1.0000 0.48783  0.90697  0.42837  Biso   1.000  C
  H251     1.0000 0.49873  0.87277  0.43327  Biso   1.000  H
  C290     1.0000 0.42213  0.89307  0.43207  Biso   1.000  C
  H252     1.0000 0.38753  0.84907  0.43947  Biso   1.000  H
  C291     1.0000 0.40663  0.94477  0.42497  Biso   1.000  C
  H253     1.0000 0.36163  0.93587  0.42677  Biso   1.000  H
  C292     1.0000 0.46013  0.01037  0.41497  Biso   1.000  C
  C293     1.0000 0.45093  0.07067  0.40967  Biso   1.000  C
  C294     1.0000 0.39133  0.06907  0.41857  Biso   1.000  C
  H254     1.0000 0.35303  0.02907  0.42857  Biso   1.000  H
  C295     1.0000 0.38923  0.13017  0.41237  Biso   1.000  C
  H255     1.0000 0.34873  0.13057  0.41757  Biso   1.000  H
  C296     1.0000 0.44653  0.18837  0.39877  Biso   1.000  C
  H256     1.0000 0.44623  0.22927  0.39547  Biso   1.000  H
  C297     1.0000 0.50483  0.18507  0.39007  Biso   1.000  C
  H257     1.0000 0.54383  0.22427  0.38007  Biso   1.000  H
  C298     1.0000 0.69463  0.74487  0.31767  Biso   1.000  C
  H258     1.0000 0.71113  0.79147  0.32147  Biso   1.000  H
  C299     1.0000 0.74143  0.72107  0.31567  Biso   1.000  C
  H259     1.0000 0.78813  0.75107  0.31917  Biso   1.000  H
  C300     1.0000 0.71683  0.65307  0.30847  Biso   1.000  C
  H260     1.0000 0.74743  0.63687  0.30567  Biso   1.000  H
  C301     1.0000 0.64763  0.60787  0.30547  Biso   1.000  C
  H261     1.0000 0.63063  0.56117  0.30157  Biso   1.000  H
  C302     1.0000 0.60423  0.63497  0.30837  Biso   1.000  C
  C303     1.0000 0.52983  0.59267  0.30257  Biso   1.000  C
  C304     1.0000 0.49483  0.52267  0.29597  Biso   1.000  C
  H262     1.0000 0.51813  0.49827  0.29697  Biso   1.000  H
  C305     1.0000 0.42413  0.48847  0.28767  Biso   1.000  C
  H263     1.0000 0.39993  0.44127  0.28297  Biso   1.000  H
  C306     1.0000 0.39133  0.52607  0.28667  Biso   1.000  C
  H264     1.0000 0.34453  0.50507  0.28097  Biso   1.000  H
  C307     1.0000 0.43013  0.59687  0.29437  Biso   1.000  C
  H265     1.0000 0.40793  0.62227  0.29397  Biso   1.000  H
  N39      1.0000 0.52513  0.02337  0.40980  Biso   1.000  N
  N40      1.0000 0.50753  0.12777  0.39546  Biso   1.000  N
  N41      1.0000 0.62693  0.70237  0.31427  Biso   1.000  N
  N42      1.0000 0.49703  0.62907  0.30197  Biso   1.000  N
  O75      1.0000 0.66893  0.10047  0.38572  Biso   1.000  O
  O76      1.0000 0.64173  0.07417  0.31447  Biso   1.000  O
  O77      1.0000 0.61593  0.82097  0.33557  Biso   1.000  O
  O78      1.0000 0.62513  0.87477  0.27297  Biso   1.000  O
  O79      1.0000 0.88643  0.09767  0.28927  Biso   1.000  O
  O80      1.0000 0.81623  0.04387  0.23237  Biso   1.000  O
  O81      1.0000 0.64543  0.20553  0.35811  Biso   1.000  O
  O82      1.0000 0.57133  0.16187  0.30067  Biso   1.000  O
  O83      1.0000 0.47323  0.73527  0.33155  Biso   1.000  O
  O84      1.0000 0.50093  0.72867  0.40252  Biso   1.000  O
  Cu22     1.0000 0.22580  0.10316  0.20686  Biso   1.000  Cu
  C308     1.0000 0.12907  0.08643  0.15159  Biso   1.000  C
  C309     1.0000 0.06087  0.06713  0.13074  Biso   1.000  C
  H266     1.0000 0.06447  0.06373  0.09833  Biso   1.000  H
  H267     1.0000 0.05127  0.10393  0.13633  Biso   1.000  H
  C310     1.0000 0.37337  0.20943  0.21363  Biso   1.000  C
  H268     1.0000 0.35777  0.24043  0.21593  Biso   1.000  H
  C311     1.0000 0.44447  0.23403  0.21593  Biso   1.000  C
  H269     1.0000 0.47607  0.28053  0.21873  Biso   1.000  H
  C312     1.0000 0.46437  0.18573  0.21393  Biso   1.000  C
  H270     1.0000 0.51037  0.19923  0.21763  Biso   1.000  H
  C313     1.0000 0.41967  0.12033  0.20673  Biso   1.000  C
  H271     1.0000 0.43447  0.08863  0.20383  Biso   1.000  H
  C314     1.0000 0.35037  0.09943  0.20373  Biso   1.000  C
  C315     1.0000 0.29527  0.02903  0.19943  Biso   1.000  C
  C316     1.0000 0.30537  0.96933  0.19643  Biso   1.000  C
  H272     1.0000 0.34947  0.97583  0.19613  Biso   1.000  H
  C317     1.0000 0.25517  0.91013  0.19443  Biso   1.000  C
  H273     1.0000 0.26287  0.87333  0.19233  Biso   1.000  H
  C318     1.0000 0.18057  0.89573  0.19523  Biso   1.000  C
  H274     1.0000 0.14237  0.85193  0.19493  Biso   1.000  H
  C319     1.0000 0.17687  0.95613  0.19633  Biso   1.000  C
  H275     1.0000 0.13367  0.95183  0.19513  Biso   1.000  H
  N43      1.0000 0.32777  0.14323  0.20843  Biso   1.000  N
  N44      1.0000 0.22997  0.01793  0.19903  Biso   1.000  N
  O85      1.0000 0.18377  0.12693  0.13157  Biso   1.000  O
  O86      1.0000 0.12937  0.06133  0.19010  Biso   1.000  O
  Cu23     1.0000 0.88098  0.47335  0.38926  Biso   1.000  Cu
  Cu24     1.0000 0.27178  0.82514  0.31619  Biso   1.000  Cu
  C320     1.0000 0.91833  0.59677  0.34667  Biso   1.000  C
  C321     1.0000 0.93083  0.66907  0.34047  Biso   1.000  C
  H276     1.0000 0.89253  0.66697  0.32417  Biso   1.000  H
  H277     1.0000 0.93273  0.68877  0.36997  Biso   1.000  H
  C322     1.0000 0.99643  0.71507  0.31517  Biso   1.000  C
  H278     1.0000 0.99483  0.69367  0.28617  Biso   1.000  H
  C323     1.0000 0.05953  0.72467  0.34107  Biso   1.000  C
  H279     1.0000 0.06493  0.75137  0.36797  Biso   1.000  H
  H280     1.0000 0.05133  0.68007  0.35067  Biso   1.000  H
  C324     1.0000 0.12593  0.75967  0.31447  Biso   1.000  C
  C325     1.0000 0.00563  0.78697  0.30597  Biso   1.000  C
  H281     1.0000 0.00353  0.80747  0.33427  Biso   1.000  H
  H282     1.0000 0.05033  0.81617  0.29267  Biso   1.000  H
  C326     1.0000 0.95093  0.78277  0.27447  Biso   1.000  C
  C327     1.0000 0.79283  0.41837  0.31745  Biso   1.000  C
  C328     1.0000 0.72773  0.40177  0.29176  Biso   1.000  C
  H283     1.0000 0.73473  0.39857  0.25977  Biso   1.000  H
  H284     1.0000 0.71743  0.43827  0.29607  Biso   1.000  H
  C329     1.0000 0.26763  0.73017  0.37397  Biso   1.000  C
  C330     1.0000 0.26863  0.66597  0.38797  Biso   1.000  C
  H285     1.0000 0.22843  0.62607  0.37607  Biso   1.000  H
  H286     1.0000 0.26693  0.66257  0.42067  Biso   1.000  H
  C331     1.0000 0.02743  0.56597  0.41717  Biso   1.000  C
  H287     1.0000 0.01823  0.60167  0.41457  Biso   1.000  H
  C332     1.0000 0.09303  0.58087  0.42837  Biso   1.000  C
  H288     1.0000 0.12723  0.62597  0.43327  Biso   1.000  H
  C333     1.0000 0.10693  0.52907  0.43207  Biso   1.000  C
  H289     1.0000 0.15093  0.53847  0.43947  Biso   1.000  H
  C334     1.0000 0.05523  0.46187  0.42497  Biso   1.000  C
  H290     1.0000 0.06413  0.42577  0.42677  Biso   1.000  H
  C335     1.0000 0.98963  0.44977  0.41497  Biso   1.000  C
  C336     1.0000 0.92933  0.38027  0.40967  Biso   1.000  C
  C337     1.0000 0.93093  0.32227  0.41857  Biso   1.000  C
  H291     1.0000 0.97093  0.32397  0.42857  Biso   1.000  H
  C338     1.0000 0.86983  0.25907  0.41237  Biso   1.000  C
  H292     1.0000 0.86943  0.21817  0.41757  Biso   1.000  H
  C339     1.0000 0.81163  0.25817  0.39877  Biso   1.000  C
  H293     1.0000 0.77073  0.21697  0.39547  Biso   1.000  H
  C340     1.0000 0.81493  0.31977  0.39007  Biso   1.000  C
  H294     1.0000 0.77573  0.31957  0.38007  Biso   1.000  H
  C341     1.0000 0.25513  0.94977  0.31767  Biso   1.000  C
  H295     1.0000 0.20853  0.91967  0.32147  Biso   1.000  H
  C342     1.0000 0.27893  0.02037  0.31567  Biso   1.000  C
  H296     1.0000 0.24893  0.03707  0.31917  Biso   1.000  H
  C343     1.0000 0.34693  0.06377  0.30847  Biso   1.000  C
  H297     1.0000 0.36313  0.11057  0.30567  Biso   1.000  H
  C344     1.0000 0.39213  0.03977  0.30547  Biso   1.000  C
  H298     1.0000 0.43883  0.06947  0.30157  Biso   1.000  H
  C345     1.0000 0.36503  0.96927  0.30837  Biso   1.000  C
  C346     1.0000 0.40733  0.93717  0.30257  Biso   1.000  C
  C347     1.0000 0.47733  0.97217  0.29597  Biso   1.000  C
  H299     1.0000 0.50173  0.01987  0.29697  Biso   1.000  H
  C348     1.0000 0.51153  0.93567  0.28767  Biso   1.000  C
  H300     1.0000 0.55873  0.95867  0.28297  Biso   1.000  H
  C349     1.0000 0.47393  0.86527  0.28667  Biso   1.000  C
  H301     1.0000 0.49493  0.83947  0.28097  Biso   1.000  H
  C350     1.0000 0.40313  0.83327  0.29437  Biso   1.000  C
  H302     1.0000 0.37773  0.78567  0.29397  Biso   1.000  H
  N45      1.0000 0.97663  0.50177  0.40980  Biso   1.000  N
  N46      1.0000 0.87223  0.37977  0.39546  Biso   1.000  N
  N47      1.0000 0.29763  0.92457  0.31427  Biso   1.000  N
  N48      1.0000 0.37093  0.86797  0.30197  Biso   1.000  N
  O87      1.0000 0.89953  0.56847  0.38572  Biso   1.000  O
  O88      1.0000 0.92583  0.56757  0.31447  Biso   1.000  O
  O89      1.0000 0.17903  0.79497  0.33557  Biso   1.000  O
  O90      1.0000 0.12523  0.75037  0.27297  Biso   1.000  O
  O91      1.0000 0.90233  0.78877  0.28927  Biso   1.000  O
  O92      1.0000 0.95613  0.77237  0.23237  Biso   1.000  O
  O93      1.0000 0.79447  0.43991  0.35811  Biso   1.000  O
  O94      1.0000 0.83813  0.40947  0.30067  Biso   1.000  O
  O95      1.0000 0.26473  0.73797  0.33155  Biso   1.000  O
  O96      1.0000 0.27133  0.77227  0.40252  Biso   1.000  O
  Cu25     1.0000 0.89684  0.12263  0.20686  Biso   1.000  Cu
  C351     1.0000 0.91357  0.04263  0.15159  Biso   1.000  C
  C352     1.0000 0.93287  0.99373  0.13074  Biso   1.000  C
  H303     1.0000 0.93627  0.00073  0.09833  Biso   1.000  H
  H304     1.0000 0.89607  0.94733  0.13633  Biso   1.000  H
  C353     1.0000 0.79057  0.16393  0.21363  Biso   1.000  C
  H305     1.0000 0.75957  0.11733  0.21593  Biso   1.000  H
  C354     1.0000 0.76597  0.21043  0.21593  Biso   1.000  C
  H306     1.0000 0.71947  0.19553  0.21873  Biso   1.000  H
  C355     1.0000 0.81427  0.27863  0.21393  Biso   1.000  C
  H307     1.0000 0.80077  0.31113  0.21763  Biso   1.000  H
  C356     1.0000 0.87967  0.29933  0.20673  Biso   1.000  C
  H308     1.0000 0.91137  0.34583  0.20383  Biso   1.000  H
  C357     1.0000 0.90057  0.25093  0.20373  Biso   1.000  C
  C358     1.0000 0.97097  0.26623  0.19943  Biso   1.000  C
  C359     1.0000 0.03067  0.33603  0.19643  Biso   1.000  C
  H309     1.0000 0.02417  0.37363  0.19613  Biso   1.000  H
  C360     1.0000 0.08987  0.34503  0.19443  Biso   1.000  C
  H310     1.0000 0.12667  0.38953  0.19233  Biso   1.000  H
  C361     1.0000 0.10427  0.28483  0.19523  Biso   1.000  C
  H311     1.0000 0.14807  0.29043  0.19493  Biso   1.000  H
  C362     1.0000 0.04387  0.22073  0.19633  Biso   1.000  C
  H312     1.0000 0.04817  0.18183  0.19513  Biso   1.000  H
  N49      1.0000 0.85677  0.18453  0.20843  Biso   1.000  N
  N50      1.0000 0.98207  0.21203  0.19903  Biso   1.000  N
  O97      1.0000 0.87307  0.05683  0.13157  Biso   1.000  O
  O98      1.0000 0.93867  0.06803  0.19010  Biso   1.000  O
  Cu26     1.0000 0.52665  0.40764  0.38926  Biso   1.000  Cu
  Cu27     1.0000 0.17486  0.44665  0.31619  Biso   1.000  Cu
  C363     1.0000 0.40323  0.32157  0.34667  Biso   1.000  C
  C364     1.0000 0.33093  0.26177  0.34047  Biso   1.000  C
  H313     1.0000 0.33303  0.22557  0.32417  Biso   1.000  H
  H314     1.0000 0.31123  0.24397  0.36997  Biso   1.000  H
  C365     1.0000 0.28493  0.28137  0.31517  Biso   1.000  C
  H315     1.0000 0.30633  0.30117  0.28617  Biso   1.000  H
  C366     1.0000 0.27533  0.33487  0.34107  Biso   1.000  C
  H316     1.0000 0.24863  0.31357  0.36797  Biso   1.000  H
  H317     1.0000 0.31993  0.37127  0.35067  Biso   1.000  H
  C367     1.0000 0.24033  0.36627  0.31447  Biso   1.000  C
  C368     1.0000 0.21303  0.21867  0.30597  Biso   1.000  C
  H318     1.0000 0.19253  0.19607  0.33427  Biso   1.000  H
  H319     1.0000 0.18383  0.23417  0.29267  Biso   1.000  H
  C369     1.0000 0.21723  0.16817  0.27447  Biso   1.000  C
  C370     1.0000 0.58163  0.37447  0.31745  Biso   1.000  C
  C371     1.0000 0.59823  0.32597  0.29176  Biso   1.000  C
  H320     1.0000 0.60143  0.33617  0.25977  Biso   1.000  H
  H321     1.0000 0.56173  0.27917  0.29607  Biso   1.000  H
  C372     1.0000 0.26983  0.53747  0.37397  Biso   1.000  C
  C373     1.0000 0.33403  0.60267  0.38797  Biso   1.000  C
  H322     1.0000 0.37393  0.60237  0.37607  Biso   1.000  H
  H323     1.0000 0.33743  0.60437  0.42067  Biso   1.000  H
  C374     1.0000 0.43403  0.46147  0.41717  Biso   1.000  C
  H324     1.0000 0.39833  0.41657  0.41457  Biso   1.000  H
  C375     1.0000 0.41913  0.51217  0.42837  Biso   1.000  C
  H325     1.0000 0.37403  0.50127  0.43327  Biso   1.000  H
  C376     1.0000 0.47093  0.57787  0.43207  Biso   1.000  C
  H326     1.0000 0.46153  0.61247  0.43947  Biso   1.000  H
  C377     1.0000 0.53813  0.59337  0.42497  Biso   1.000  C
  H327     1.0000 0.57423  0.63837  0.42677  Biso   1.000  H
  C378     1.0000 0.55023  0.53987  0.41497  Biso   1.000  C
  C379     1.0000 0.61973  0.54907  0.40967  Biso   1.000  C
  C380     1.0000 0.67773  0.60867  0.41857  Biso   1.000  C
  H328     1.0000 0.67603  0.64697  0.42857  Biso   1.000  H
  C381     1.0000 0.74093  0.61077  0.41237  Biso   1.000  C
  H329     1.0000 0.78183  0.65127  0.41757  Biso   1.000  H
  C382     1.0000 0.74183  0.55347  0.39877  Biso   1.000  C
  H330     1.0000 0.78303  0.55377  0.39547  Biso   1.000  H
  C383     1.0000 0.68023  0.49517  0.39007  Biso   1.000  C
  H331     1.0000 0.68043  0.45617  0.38007  Biso   1.000  H
  C384     1.0000 0.05023  0.30537  0.31767  Biso   1.000  C
  H332     1.0000 0.08033  0.28887  0.32147  Biso   1.000  H
  C385     1.0000 0.97963  0.25857  0.31567  Biso   1.000  C
  H333     1.0000 0.96293  0.21187  0.31917  Biso   1.000  H
  C386     1.0000 0.93623  0.28317  0.30847  Biso   1.000  C
  H334     1.0000 0.88943  0.25257  0.30567  Biso   1.000  H
  C387     1.0000 0.96023  0.35237  0.30547  Biso   1.000  C
  H335     1.0000 0.93053  0.36937  0.30157  Biso   1.000  H
  C388     1.0000 0.03073  0.39577  0.30837  Biso   1.000  C
  C389     1.0000 0.06283  0.47017  0.30257  Biso   1.000  C
  C390     1.0000 0.02783  0.50517  0.29597  Biso   1.000  C
  H336     1.0000 0.98013  0.48187  0.29697  Biso   1.000  H
  C391     1.0000 0.06433  0.57587  0.28767  Biso   1.000  C
  H337     1.0000 0.04133  0.60007  0.28297  Biso   1.000  H
  C392     1.0000 0.13473  0.60867  0.28667  Biso   1.000  C
  H338     1.0000 0.16053  0.65547  0.28097  Biso   1.000  H
  C393     1.0000 0.16673  0.56987  0.29437  Biso   1.000  C
  H339     1.0000 0.21433  0.59207  0.29397  Biso   1.000  H
  N51      1.0000 0.49823  0.47487  0.40980  Biso   1.000  N
  N52      1.0000 0.62023  0.49247  0.39546  Biso   1.000  N
  N53      1.0000 0.07543  0.37307  0.31427  Biso   1.000  N
  N54      1.0000 0.13203  0.50297  0.30197  Biso   1.000  N
  O99      1.0000 0.43153  0.33107  0.38572  Biso   1.000  O
  O100     1.0000 0.43243  0.35827  0.31447  Biso   1.000  O
  O101     1.0000 0.20503  0.38407  0.33557  Biso   1.000  O
  O102     1.0000 0.24963  0.37487  0.27297  Biso   1.000  O
  O103     1.0000 0.21123  0.11357  0.28927  Biso   1.000  O
  O104     1.0000 0.22763  0.18377  0.23237  Biso   1.000  O
  O105     1.0000 0.56009  0.35457  0.35811  Biso   1.000  O
  O106     1.0000 0.59053  0.42867  0.30067  Biso   1.000  O
  O107     1.0000 0.26203  0.52677  0.33155  Biso   1.000  O
  O108     1.0000 0.22773  0.49907  0.40252  Biso   1.000  O
  C394     1.0000 0.00000  0.00000  0.14763  Biso   1.000  C
  H340     1.0000 0.00000  0.00000  0.18073  Biso   1.000  H
  C395     1.0000 0.66667  0.33333  0.30837  Biso   1.000  C
  H341     1.0000 0.66667  0.33333  0.34147  Biso   1.000  H
  C396     1.0000 0.33333  0.66667  0.37087  Biso   1.000  C
  H342     1.0000 0.33333  0.66667  0.33777  Biso   1.000  H
