data_image0
_cell_length_a       38.569
_cell_length_b       38.569
_cell_length_c       28.647
_cell_angle_alpha    90
_cell_angle_beta     90
_cell_angle_gamma    120

_symmetry_space_group_name_H-M    "P 1"
_symmetry_int_tables_number       1

loop_
  _symmetry_equiv_pos_as_xyz
  'x, y, z'

loop_
  _atom_site_label
  _atom_site_occupancy
  _atom_site_fract_x
  _atom_site_fract_y
  _atom_site_fract_z
  _atom_site_thermal_displace_type
  _atom_site_B_iso_or_equiv
  _atom_site_type_symbol
  Zn1      1.0000 0.71944  0.24205  0.45337  Biso   1.000  Zn
  Zn2      1.0000 0.73865  0.21700  0.54392  Biso   1.000  Zn
  Zn3      1.0000 0.96966  0.23275  0.54976  Biso   1.000  Zn
  Zn4      1.0000 0.01533  0.25878  0.46014  Biso   1.000  Zn
  C1       1.0000 0.84180  0.26180  0.45620  Biso   1.000  C
  C2       1.0000 0.84980  0.27860  0.41230  Biso   1.000  C
  H1       1.0000 0.83040  0.28260  0.39660  Biso   1.000  H
  C3       1.0000 0.88530  0.28940  0.39140  Biso   1.000  C
  C4       1.0000 0.91420  0.28420  0.41310  Biso   1.000  C
  H2       1.0000 0.93870  0.29150  0.39760  Biso   1.000  H
  C5       1.0000 0.90740  0.26800  0.45850  Biso   1.000  C
  C6       1.0000 0.87010  0.25700  0.47960  Biso   1.000  C
  H3       1.0000 0.86460  0.24620  0.51020  Biso   1.000  H
  C7       1.0000 0.80230  0.24910  0.47720  Biso   1.000  C
  C8       1.0000 0.93670  0.25960  0.48170  Biso   1.000  C
  C9       1.0000 0.92930  0.33830  0.28540  Biso   1.000  C
  C10      1.0000 0.90140  0.34490  0.26360  Biso   1.000  C
  H4       1.0000 0.87640  0.33680  0.27810  Biso   1.000  H
  C11      1.0000 0.91010  0.36390  0.21890  Biso   1.000  C
  C12      1.0000 0.94610  0.37490  0.19930  Biso   1.000  C
  H5       1.0000 0.95160  0.38640  0.16900  Biso   1.000  H
  C13      1.0000 0.97560  0.37000  0.22220  Biso   1.000  C
  C14      1.0000 0.96640  0.35110  0.26460  Biso   1.000  C
  H6       1.0000 0.98560  0.34670  0.28020  Biso   1.000  H
  C15      1.0000 0.87990  0.37080  0.19670  Biso   1.000  C
  C16      1.0000 0.01610  0.38390  0.20120  Biso   1.000  C
  C17      1.0000 0.91950  0.13690  0.44870  Biso   1.000  C
  C18      1.0000 0.92760  0.12750  0.40700  Biso   1.000  C
  H7       1.0000 0.95200  0.14580  0.39220  Biso   1.000  H
  C19      1.0000 0.90140  0.09160  0.38390  Biso   1.000  C
  C20      1.0000 0.86440  0.06660  0.40190  Biso   1.000  C
  H8       1.0000 0.84450  0.04480  0.38440  Biso   1.000  H
  C21      1.0000 0.85660  0.07460  0.44780  Biso   1.000  C
  C22      1.0000 0.88350  0.10860  0.47110  Biso   1.000  C
  H9       1.0000 0.87800  0.11320  0.50210  Biso   1.000  H
  C23      1.0000 0.94740  0.17450  0.47160  Biso   1.000  C
  C24      1.0000 0.81730  0.04530  0.46910  Biso   1.000  C
  C25      1.0000 0.98340  0.11000  0.25720  Biso   1.000  C
  H10      1.0000 0.00420  0.13220  0.27340  Biso   1.000  H
  C26      1.0000 0.99090  0.09940  0.21400  Biso   1.000  C
  C27      1.0000 0.95910  0.06550  0.19040  Biso   1.000  C
  H11      1.0000 0.96350  0.05810  0.16030  Biso   1.000  H
  C28      1.0000 0.92370  0.04460  0.21080  Biso   1.000  C
  C29      1.0000 0.91500  0.05360  0.25460  Biso   1.000  C
  H12      1.0000 0.88970  0.03720  0.26890  Biso   1.000  H
  C30      1.0000 0.94520  0.08830  0.27710  Biso   1.000  C
  C31      1.0000 0.03170  0.12230  0.19490  Biso   1.000  C
  C32      1.0000 0.88880  0.00540  0.18750  Biso   1.000  C
  N1       1.0000 0.89090  0.30810  0.34540  Biso   1.000  N
  N2       1.0000 0.92500  0.32050  0.32890  Biso   1.000  N
  N3       1.0000 0.90790  0.08030  0.33950  Biso   1.000  N
  N4       1.0000 0.94120  0.10090  0.32060  Biso   1.000  N
  O1       1.0000 0.77624  0.25030  0.45220  Biso   1.000  O
  O2       1.0000 0.79418  0.23370  0.51860  Biso   1.000  O
  O3       1.0000 0.96583  0.26580  0.45660  Biso   1.000  O
  O4       1.0000 0.93062  0.24770  0.52313  Biso   1.000  O
  O5       1.0000 0.85124  0.36628  0.22137  Biso   1.000  O
  O6       1.0000 0.88721  0.38497  0.15640  Biso   1.000  O
  O7       1.0000 0.02151  0.39980  0.16010  Biso   1.000  O
  O8       1.0000 0.04045  0.38387  0.22570  Biso   1.000  O
  O9       1.0000 0.97697  0.20169  0.44746  Biso   1.000  O
  O10      1.0000 0.93818  0.18077  0.51250  Biso   1.000  O
  O11      1.0000 0.81000  0.05338  0.50970  Biso   1.000  O
  O12      1.0000 0.79516  0.01670  0.44570  Biso   1.000  O
  O13      1.0000 0.05776  0.14798  0.21930  Biso   1.000  O
  O14      1.0000 0.03725  0.11451  0.15270  Biso   1.000  O
  O15      1.0000 0.89609  0.99980  0.14730  Biso   1.000  O
  O16      1.0000 0.85982  0.98585  0.21310  Biso   1.000  O
  Zn5      1.0000 0.38611  0.57538  0.78670  Biso   1.000  Zn
  Zn6      1.0000 0.40532  0.55033  0.87725  Biso   1.000  Zn
  Zn7      1.0000 0.63633  0.56608  0.88309  Biso   1.000  Zn
  Zn8      1.0000 0.68200  0.59211  0.79347  Biso   1.000  Zn
  C33      1.0000 0.50847  0.59513  0.78953  Biso   1.000  C
  C34      1.0000 0.51647  0.61193  0.74563  Biso   1.000  C
  H13      1.0000 0.49707  0.61593  0.72993  Biso   1.000  H
  C35      1.0000 0.55197  0.62273  0.72473  Biso   1.000  C
  C36      1.0000 0.58087  0.61753  0.74643  Biso   1.000  C
  H14      1.0000 0.60537  0.62483  0.73093  Biso   1.000  H
  C37      1.0000 0.57407  0.60133  0.79183  Biso   1.000  C
  C38      1.0000 0.53677  0.59033  0.81293  Biso   1.000  C
  H15      1.0000 0.53127  0.57953  0.84353  Biso   1.000  H
  C39      1.0000 0.46897  0.58243  0.81053  Biso   1.000  C
  C40      1.0000 0.60337  0.59293  0.81503  Biso   1.000  C
  C41      1.0000 0.59597  0.67163  0.61873  Biso   1.000  C
  C42      1.0000 0.56807  0.67823  0.59693  Biso   1.000  C
  H16      1.0000 0.54307  0.67013  0.61143  Biso   1.000  H
  C43      1.0000 0.57677  0.69723  0.55223  Biso   1.000  C
  C44      1.0000 0.61277  0.70823  0.53263  Biso   1.000  C
  H17      1.0000 0.61827  0.71973  0.50233  Biso   1.000  H
  C45      1.0000 0.64227  0.70333  0.55553  Biso   1.000  C
  C46      1.0000 0.63307  0.68443  0.59793  Biso   1.000  C
  H18      1.0000 0.65227  0.68003  0.61353  Biso   1.000  H
  C47      1.0000 0.54657  0.70413  0.53003  Biso   1.000  C
  C48      1.0000 0.68277  0.71723  0.53453  Biso   1.000  C
  C49      1.0000 0.58617  0.47023  0.78203  Biso   1.000  C
  C50      1.0000 0.59427  0.46083  0.74033  Biso   1.000  C
  H19      1.0000 0.61867  0.47913  0.72553  Biso   1.000  H
  C51      1.0000 0.56807  0.42493  0.71723  Biso   1.000  C
  C52      1.0000 0.53107  0.39993  0.73523  Biso   1.000  C
  H20      1.0000 0.51117  0.37813  0.71773  Biso   1.000  H
  C53      1.0000 0.52327  0.40793  0.78113  Biso   1.000  C
  C54      1.0000 0.55017  0.44193  0.80443  Biso   1.000  C
  H21      1.0000 0.54467  0.44653  0.83543  Biso   1.000  H
  C55      1.0000 0.61407  0.50783  0.80493  Biso   1.000  C
  C56      1.0000 0.48397  0.37863  0.80243  Biso   1.000  C
  C57      1.0000 0.65007  0.44333  0.59053  Biso   1.000  C
  H22      1.0000 0.67087  0.46553  0.60673  Biso   1.000  H
  C58      1.0000 0.65757  0.43273  0.54733  Biso   1.000  C
  C59      1.0000 0.62577  0.39883  0.52373  Biso   1.000  C
  H23      1.0000 0.63017  0.39143  0.49363  Biso   1.000  H
  C60      1.0000 0.59037  0.37793  0.54413  Biso   1.000  C
  C61      1.0000 0.58167  0.38693  0.58793  Biso   1.000  C
  H24      1.0000 0.55637  0.37053  0.60223  Biso   1.000  H
  C62      1.0000 0.61187  0.42163  0.61043  Biso   1.000  C
  C63      1.0000 0.69837  0.45563  0.52823  Biso   1.000  C
  C64      1.0000 0.55547  0.33873  0.52083  Biso   1.000  C
  N5       1.0000 0.55757  0.64143  0.67873  Biso   1.000  N
  N6       1.0000 0.59167  0.65383  0.66223  Biso   1.000  N
  N7       1.0000 0.57457  0.41363  0.67283  Biso   1.000  N
  N8       1.0000 0.60787  0.43423  0.65393  Biso   1.000  N
  O17      1.0000 0.44291  0.58363  0.78553  Biso   1.000  O
  O18      1.0000 0.46085  0.56703  0.85193  Biso   1.000  O
  O19      1.0000 0.63250  0.59913  0.78993  Biso   1.000  O
  O20      1.0000 0.59729  0.58103  0.85646  Biso   1.000  O
  O21      1.0000 0.51791  0.69961  0.55470  Biso   1.000  O
  O22      1.0000 0.55388  0.71830  0.48973  Biso   1.000  O
  O23      1.0000 0.68818  0.73313  0.49343  Biso   1.000  O
  O24      1.0000 0.70712  0.71720  0.55903  Biso   1.000  O
  O25      1.0000 0.64364  0.53502  0.78079  Biso   1.000  O
  O26      1.0000 0.60485  0.51410  0.84583  Biso   1.000  O
  O27      1.0000 0.47667  0.38671  0.84303  Biso   1.000  O
  O28      1.0000 0.46183  0.35003  0.77903  Biso   1.000  O
  O29      1.0000 0.72443  0.48131  0.55263  Biso   1.000  O
  O30      1.0000 0.70392  0.44784  0.48603  Biso   1.000  O
  O31      1.0000 0.56276  0.33313  0.48063  Biso   1.000  O
  O32      1.0000 0.52649  0.31918  0.54643  Biso   1.000  O
  Zn9      1.0000 0.05277  0.90872  0.12004  Biso   1.000  Zn
  Zn10     1.0000 0.07198  0.88367  0.21059  Biso   1.000  Zn
  Zn11     1.0000 0.30299  0.89942  0.21643  Biso   1.000  Zn
  Zn12     1.0000 0.34866  0.92545  0.12681  Biso   1.000  Zn
  C65      1.0000 0.17513  0.92847  0.12287  Biso   1.000  C
  C66      1.0000 0.18313  0.94527  0.07897  Biso   1.000  C
  H25      1.0000 0.16373  0.94927  0.06327  Biso   1.000  H
  C67      1.0000 0.21863  0.95607  0.05807  Biso   1.000  C
  C68      1.0000 0.24753  0.95087  0.07977  Biso   1.000  C
  H26      1.0000 0.27203  0.95817  0.06427  Biso   1.000  H
  C69      1.0000 0.24073  0.93467  0.12517  Biso   1.000  C
  C70      1.0000 0.20343  0.92367  0.14627  Biso   1.000  C
  H27      1.0000 0.19793  0.91287  0.17687  Biso   1.000  H
  C71      1.0000 0.13563  0.91577  0.14387  Biso   1.000  C
  C72      1.0000 0.27003  0.92627  0.14837  Biso   1.000  C
  C73      1.0000 0.26263  0.00497  0.95207  Biso   1.000  C
  C74      1.0000 0.23473  0.01157  0.93027  Biso   1.000  C
  H28      1.0000 0.20973  0.00347  0.94477  Biso   1.000  H
  C75      1.0000 0.24343  0.03057  0.88557  Biso   1.000  C
  C76      1.0000 0.27943  0.04157  0.86597  Biso   1.000  C
  H29      1.0000 0.28493  0.05307  0.83567  Biso   1.000  H
  C77      1.0000 0.30893  0.03667  0.88887  Biso   1.000  C
  C78      1.0000 0.29973  0.01777  0.93127  Biso   1.000  C
  H30      1.0000 0.31893  0.01337  0.94687  Biso   1.000  H
  C79      1.0000 0.21323  0.03747  0.86337  Biso   1.000  C
  C80      1.0000 0.34943  0.05057  0.86787  Biso   1.000  C
  C81      1.0000 0.25283  0.80357  0.11537  Biso   1.000  C
  C82      1.0000 0.26093  0.79417  0.07367  Biso   1.000  C
  H31      1.0000 0.28533  0.81247  0.05887  Biso   1.000  H
  C83      1.0000 0.23473  0.75827  0.05057  Biso   1.000  C
  C84      1.0000 0.19773  0.73327  0.06857  Biso   1.000  C
  H32      1.0000 0.17783  0.71147  0.05107  Biso   1.000  H
  C85      1.0000 0.18993  0.74127  0.11447  Biso   1.000  C
  C86      1.0000 0.21683  0.77527  0.13777  Biso   1.000  C
  H33      1.0000 0.21133  0.77987  0.16877  Biso   1.000  H
  C87      1.0000 0.28073  0.84117  0.13827  Biso   1.000  C
  C88      1.0000 0.15063  0.71197  0.13577  Biso   1.000  C
  C89      1.0000 0.31673  0.77667  0.92387  Biso   1.000  C
  H34      1.0000 0.33753  0.79887  0.94007  Biso   1.000  H
  C90      1.0000 0.32423  0.76607  0.88067  Biso   1.000  C
  C91      1.0000 0.29243  0.73217  0.85707  Biso   1.000  C
  H35      1.0000 0.29683  0.72477  0.82697  Biso   1.000  H
  C92      1.0000 0.25703  0.71127  0.87747  Biso   1.000  C
  C93      1.0000 0.24833  0.72027  0.92127  Biso   1.000  C
  H36      1.0000 0.22303  0.70387  0.93557  Biso   1.000  H
  C94      1.0000 0.27853  0.75497  0.94377  Biso   1.000  C
  C95      1.0000 0.36503  0.78897  0.86157  Biso   1.000  C
  C96      1.0000 0.22213  0.67207  0.85417  Biso   1.000  C
  N9       1.0000 0.22423  0.97477  0.01207  Biso   1.000  N
  N10      1.0000 0.25833  0.98717  0.99557  Biso   1.000  N
  N11      1.0000 0.24123  0.74697  0.00617  Biso   1.000  N
  N12      1.0000 0.27453  0.76757  0.98727  Biso   1.000  N
  O33      1.0000 0.10957  0.91697  0.11887  Biso   1.000  O
  O34      1.0000 0.12751  0.90037  0.18527  Biso   1.000  O
  O35      1.0000 0.29916  0.93247  0.12327  Biso   1.000  O
  O36      1.0000 0.26395  0.91437  0.18980  Biso   1.000  O
  O37      1.0000 0.18457  0.03295  0.88804  Biso   1.000  O
  O38      1.0000 0.22054  0.05164  0.82307  Biso   1.000  O
  O39      1.0000 0.35484  0.06647  0.82677  Biso   1.000  O
  O40      1.0000 0.37378  0.05054  0.89237  Biso   1.000  O
  O41      1.0000 0.31030  0.86836  0.11413  Biso   1.000  O
  O42      1.0000 0.27151  0.84744  0.17917  Biso   1.000  O
  O43      1.0000 0.14333  0.72005  0.17637  Biso   1.000  O
  O44      1.0000 0.12849  0.68337  0.11237  Biso   1.000  O
  O45      1.0000 0.39109  0.81465  0.88597  Biso   1.000  O
  O46      1.0000 0.37058  0.78118  0.81937  Biso   1.000  O
  O47      1.0000 0.22942  0.66647  0.81397  Biso   1.000  O
  O48      1.0000 0.19315  0.65252  0.87977  Biso   1.000  O
  Zn13     1.0000 0.75795  0.47739  0.45337  Biso   1.000  Zn
  Zn14     1.0000 0.78300  0.52165  0.54392  Biso   1.000  Zn
  Zn15     1.0000 0.76725  0.73691  0.54976  Biso   1.000  Zn
  Zn16     1.0000 0.74122  0.75655  0.46014  Biso   1.000  Zn
  C97      1.0000 0.73820  0.58000  0.45620  Biso   1.000  C
  C98      1.0000 0.72140  0.57120  0.41230  Biso   1.000  C
  H37      1.0000 0.71740  0.54780  0.39660  Biso   1.000  H
  C99      1.0000 0.71060  0.59590  0.39140  Biso   1.000  C
  C100     1.0000 0.71580  0.63000  0.41310  Biso   1.000  C
  H38      1.0000 0.70850  0.64720  0.39760  Biso   1.000  H
  C101     1.0000 0.73200  0.63940  0.45850  Biso   1.000  C
  C102     1.0000 0.74300  0.61310  0.47960  Biso   1.000  C
  H39      1.0000 0.75380  0.61840  0.51020  Biso   1.000  H
  C103     1.0000 0.75090  0.55320  0.47720  Biso   1.000  C
  C104     1.0000 0.74040  0.67710  0.48170  Biso   1.000  C
  C105     1.0000 0.66170  0.59100  0.28540  Biso   1.000  C
  C106     1.0000 0.65510  0.55650  0.26360  Biso   1.000  C
  H40      1.0000 0.66320  0.53960  0.27810  Biso   1.000  H
  C107     1.0000 0.63610  0.54620  0.21890  Biso   1.000  C
  C108     1.0000 0.62510  0.57120  0.19930  Biso   1.000  C
  H41      1.0000 0.61360  0.56520  0.16900  Biso   1.000  H
  C109     1.0000 0.63000  0.60560  0.22220  Biso   1.000  C
  C110     1.0000 0.64890  0.61530  0.26460  Biso   1.000  C
  H42      1.0000 0.65330  0.63890  0.28020  Biso   1.000  H
  C111     1.0000 0.62920  0.50910  0.19670  Biso   1.000  C
  C112     1.0000 0.61610  0.63220  0.20120  Biso   1.000  C
  C113     1.0000 0.86310  0.78260  0.44870  Biso   1.000  C
  C114     1.0000 0.87250  0.80010  0.40700  Biso   1.000  C
  H43      1.0000 0.85420  0.80620  0.39220  Biso   1.000  H
  C115     1.0000 0.90840  0.80980  0.38390  Biso   1.000  C
  C116     1.0000 0.93340  0.79780  0.40190  Biso   1.000  C
  H44      1.0000 0.95520  0.79970  0.38440  Biso   1.000  H
  C117     1.0000 0.92540  0.78200  0.44780  Biso   1.000  C
  C118     1.0000 0.89140  0.77490  0.47110  Biso   1.000  C
  H45      1.0000 0.88680  0.76480  0.50210  Biso   1.000  H
  C119     1.0000 0.82550  0.77290  0.47160  Biso   1.000  C
  C120     1.0000 0.95470  0.77200  0.46910  Biso   1.000  C
  C121     1.0000 0.89000  0.87340  0.25720  Biso   1.000  C
  H46      1.0000 0.86780  0.87200  0.27340  Biso   1.000  H
  C122     1.0000 0.90060  0.89150  0.21400  Biso   1.000  C
  C123     1.0000 0.93450  0.89360  0.19040  Biso   1.000  C
  H47      1.0000 0.94190  0.90540  0.16030  Biso   1.000  H
  C124     1.0000 0.95540  0.87910  0.21080  Biso   1.000  C
  C125     1.0000 0.94640  0.86140  0.25460  Biso   1.000  C
  H48      1.0000 0.96280  0.85250  0.26890  Biso   1.000  H
  C126     1.0000 0.91170  0.85690  0.27710  Biso   1.000  C
  C127     1.0000 0.87770  0.90940  0.19490  Biso   1.000  C
  C128     1.0000 0.99460  0.88340  0.18750  Biso   1.000  C
  N13      1.0000 0.69190  0.58280  0.34540  Biso   1.000  N
  N14      1.0000 0.67950  0.60450  0.32890  Biso   1.000  N
  N15      1.0000 0.91970  0.82760  0.33950  Biso   1.000  N
  N16      1.0000 0.89910  0.84030  0.32060  Biso   1.000  N
  O49      1.0000 0.74970  0.52594  0.45220  Biso   1.000  O
  O50      1.0000 0.76630  0.56048  0.51860  Biso   1.000  O
  O51      1.0000 0.73420  0.70003  0.45660  Biso   1.000  O
  O52      1.0000 0.75230  0.68292  0.52313  Biso   1.000  O
  O53      1.0000 0.63372  0.48496  0.22137  Biso   1.000  O
  O54      1.0000 0.61503  0.50224  0.15640  Biso   1.000  O
  O55      1.0000 0.60020  0.62171  0.16010  Biso   1.000  O
  O56      1.0000 0.61613  0.65658  0.22570  Biso   1.000  O
  O57      1.0000 0.79831  0.77528  0.44746  Biso   1.000  O
  O58      1.0000 0.81923  0.75741  0.51250  Biso   1.000  O
  O59      1.0000 0.94662  0.75662  0.50970  Biso   1.000  O
  O60      1.0000 0.98330  0.77846  0.44570  Biso   1.000  O
  O61      1.0000 0.85202  0.90978  0.21930  Biso   1.000  O
  O62      1.0000 0.88549  0.92274  0.15270  Biso   1.000  O
  O63      1.0000 0.00020  0.89629  0.14730  Biso   1.000  O
  O64      1.0000 0.01415  0.87397  0.21310  Biso   1.000  O
  Zn17     1.0000 0.42462  0.81072  0.78670  Biso   1.000  Zn
  Zn18     1.0000 0.44967  0.85498  0.87725  Biso   1.000  Zn
  Zn19     1.0000 0.43392  0.07024  0.88309  Biso   1.000  Zn
  Zn20     1.0000 0.40789  0.08988  0.79347  Biso   1.000  Zn
  C129     1.0000 0.40487  0.91333  0.78953  Biso   1.000  C
  C130     1.0000 0.38807  0.90453  0.74563  Biso   1.000  C
  H49      1.0000 0.38407  0.88113  0.72993  Biso   1.000  H
  C131     1.0000 0.37727  0.92923  0.72473  Biso   1.000  C
  C132     1.0000 0.38247  0.96333  0.74643  Biso   1.000  C
  H50      1.0000 0.37517  0.98053  0.73093  Biso   1.000  H
  C133     1.0000 0.39867  0.97273  0.79183  Biso   1.000  C
  C134     1.0000 0.40967  0.94643  0.81293  Biso   1.000  C
  H51      1.0000 0.42047  0.95173  0.84353  Biso   1.000  H
  C135     1.0000 0.41757  0.88653  0.81053  Biso   1.000  C
  C136     1.0000 0.40707  0.01043  0.81503  Biso   1.000  C
  C137     1.0000 0.32837  0.92433  0.61873  Biso   1.000  C
  C138     1.0000 0.32177  0.88983  0.59693  Biso   1.000  C
  H52      1.0000 0.32987  0.87293  0.61143  Biso   1.000  H
  C139     1.0000 0.30277  0.87953  0.55223  Biso   1.000  C
  C140     1.0000 0.29177  0.90453  0.53263  Biso   1.000  C
  H53      1.0000 0.28027  0.89853  0.50233  Biso   1.000  H
  C141     1.0000 0.29667  0.93893  0.55553  Biso   1.000  C
  C142     1.0000 0.31557  0.94863  0.59793  Biso   1.000  C
  H54      1.0000 0.31997  0.97223  0.61353  Biso   1.000  H
  C143     1.0000 0.29587  0.84243  0.53003  Biso   1.000  C
  C144     1.0000 0.28277  0.96553  0.53453  Biso   1.000  C
  C145     1.0000 0.52977  0.11593  0.78203  Biso   1.000  C
  C146     1.0000 0.53917  0.13343  0.74033  Biso   1.000  C
  H55      1.0000 0.52087  0.13953  0.72553  Biso   1.000  H
  C147     1.0000 0.57507  0.14313  0.71723  Biso   1.000  C
  C148     1.0000 0.60007  0.13113  0.73523  Biso   1.000  C
  H56      1.0000 0.62187  0.13303  0.71773  Biso   1.000  H
  C149     1.0000 0.59207  0.11533  0.78113  Biso   1.000  C
  C150     1.0000 0.55807  0.10823  0.80443  Biso   1.000  C
  H57      1.0000 0.55347  0.09813  0.83543  Biso   1.000  H
  C151     1.0000 0.49217  0.10623  0.80493  Biso   1.000  C
  C152     1.0000 0.62137  0.10533  0.80243  Biso   1.000  C
  C153     1.0000 0.55667  0.20673  0.59053  Biso   1.000  C
  H58      1.0000 0.53447  0.20533  0.60673  Biso   1.000  H
  C154     1.0000 0.56727  0.22483  0.54733  Biso   1.000  C
  C155     1.0000 0.60117  0.22693  0.52373  Biso   1.000  C
  H59      1.0000 0.60857  0.23873  0.49363  Biso   1.000  H
  C156     1.0000 0.62207  0.21243  0.54413  Biso   1.000  C
  C157     1.0000 0.61307  0.19473  0.58793  Biso   1.000  C
  H60      1.0000 0.62947  0.18583  0.60223  Biso   1.000  H
  C158     1.0000 0.57837  0.19023  0.61043  Biso   1.000  C
  C159     1.0000 0.54437  0.24273  0.52823  Biso   1.000  C
  C160     1.0000 0.66127  0.21673  0.52083  Biso   1.000  C
  N17      1.0000 0.35857  0.91613  0.67873  Biso   1.000  N
  N18      1.0000 0.34617  0.93783  0.66223  Biso   1.000  N
  N19      1.0000 0.58637  0.16093  0.67283  Biso   1.000  N
  N20      1.0000 0.56577  0.17363  0.65393  Biso   1.000  N
  O65      1.0000 0.41637  0.85927  0.78553  Biso   1.000  O
  O66      1.0000 0.43297  0.89381  0.85193  Biso   1.000  O
  O67      1.0000 0.40087  0.03336  0.78993  Biso   1.000  O
  O68      1.0000 0.41897  0.01625  0.85646  Biso   1.000  O
  O69      1.0000 0.30039  0.81829  0.55470  Biso   1.000  O
  O70      1.0000 0.28170  0.83557  0.48973  Biso   1.000  O
  O71      1.0000 0.26687  0.95504  0.49343  Biso   1.000  O
  O72      1.0000 0.28280  0.98991  0.55903  Biso   1.000  O
  O73      1.0000 0.46498  0.10861  0.78079  Biso   1.000  O
  O74      1.0000 0.48590  0.09074  0.84583  Biso   1.000  O
  O75      1.0000 0.61329  0.08995  0.84303  Biso   1.000  O
  O76      1.0000 0.64997  0.11179  0.77903  Biso   1.000  O
  O77      1.0000 0.51869  0.24311  0.55263  Biso   1.000  O
  O78      1.0000 0.55216  0.25607  0.48603  Biso   1.000  O
  O79      1.0000 0.66687  0.22962  0.48063  Biso   1.000  O
  O80      1.0000 0.68082  0.20730  0.54643  Biso   1.000  O
  Zn21     1.0000 0.09128  0.14406  0.12004  Biso   1.000  Zn
  Zn22     1.0000 0.11633  0.18832  0.21059  Biso   1.000  Zn
  Zn23     1.0000 0.10058  0.40358  0.21643  Biso   1.000  Zn
  Zn24     1.0000 0.07455  0.42322  0.12681  Biso   1.000  Zn
  C161     1.0000 0.07153  0.24667  0.12287  Biso   1.000  C
  C162     1.0000 0.05473  0.23787  0.07897  Biso   1.000  C
  H61      1.0000 0.05073  0.21447  0.06327  Biso   1.000  H
  C163     1.0000 0.04393  0.26257  0.05807  Biso   1.000  C
  C164     1.0000 0.04913  0.29667  0.07977  Biso   1.000  C
  H62      1.0000 0.04183  0.31387  0.06427  Biso   1.000  H
  C165     1.0000 0.06533  0.30607  0.12517  Biso   1.000  C
  C166     1.0000 0.07633  0.27977  0.14627  Biso   1.000  C
  H63      1.0000 0.08713  0.28507  0.17687  Biso   1.000  H
  C167     1.0000 0.08423  0.21987  0.14387  Biso   1.000  C
  C168     1.0000 0.07373  0.34377  0.14837  Biso   1.000  C
  C169     1.0000 0.99503  0.25767  0.95207  Biso   1.000  C
  C170     1.0000 0.98843  0.22317  0.93027  Biso   1.000  C
  H64      1.0000 0.99653  0.20627  0.94477  Biso   1.000  H
  C171     1.0000 0.96943  0.21287  0.88557  Biso   1.000  C
  C172     1.0000 0.95843  0.23787  0.86597  Biso   1.000  C
  H65      1.0000 0.94693  0.23187  0.83567  Biso   1.000  H
  C173     1.0000 0.96333  0.27227  0.88887  Biso   1.000  C
  C174     1.0000 0.98223  0.28197  0.93127  Biso   1.000  C
  H66      1.0000 0.98663  0.30557  0.94687  Biso   1.000  H
  C175     1.0000 0.96253  0.17577  0.86337  Biso   1.000  C
  C176     1.0000 0.94943  0.29887  0.86787  Biso   1.000  C
  C177     1.0000 0.19643  0.44927  0.11537  Biso   1.000  C
  C178     1.0000 0.20583  0.46677  0.07367  Biso   1.000  C
  H67      1.0000 0.18753  0.47287  0.05887  Biso   1.000  H
  C179     1.0000 0.24173  0.47647  0.05057  Biso   1.000  C
  C180     1.0000 0.26673  0.46447  0.06857  Biso   1.000  C
  H68      1.0000 0.28853  0.46637  0.05107  Biso   1.000  H
  C181     1.0000 0.25873  0.44867  0.11447  Biso   1.000  C
  C182     1.0000 0.22473  0.44157  0.13777  Biso   1.000  C
  H69      1.0000 0.22013  0.43147  0.16877  Biso   1.000  H
  C183     1.0000 0.15883  0.43957  0.13827  Biso   1.000  C
  C184     1.0000 0.28803  0.43867  0.13577  Biso   1.000  C
  C185     1.0000 0.22333  0.54007  0.92387  Biso   1.000  C
  H70      1.0000 0.20113  0.53867  0.94007  Biso   1.000  H
  C186     1.0000 0.23393  0.55817  0.88067  Biso   1.000  C
  C187     1.0000 0.26783  0.56027  0.85707  Biso   1.000  C
  H71      1.0000 0.27523  0.57207  0.82697  Biso   1.000  H
  C188     1.0000 0.28873  0.54577  0.87747  Biso   1.000  C
  C189     1.0000 0.27973  0.52807  0.92127  Biso   1.000  C
  H72      1.0000 0.29613  0.51917  0.93557  Biso   1.000  H
  C190     1.0000 0.24503  0.52357  0.94377  Biso   1.000  C
  C191     1.0000 0.21103  0.57607  0.86157  Biso   1.000  C
  C192     1.0000 0.32793  0.55007  0.85417  Biso   1.000  C
  N21      1.0000 0.02523  0.24947  0.01207  Biso   1.000  N
  N22      1.0000 0.01283  0.27117  0.99557  Biso   1.000  N
  N23      1.0000 0.25303  0.49427  0.00617  Biso   1.000  N
  N24      1.0000 0.23243  0.50697  0.98727  Biso   1.000  N
  O81      1.0000 0.08303  0.19261  0.11887  Biso   1.000  O
  O82      1.0000 0.09963  0.22715  0.18527  Biso   1.000  O
  O83      1.0000 0.06753  0.36670  0.12327  Biso   1.000  O
  O84      1.0000 0.08563  0.34959  0.18980  Biso   1.000  O
  O85      1.0000 0.96705  0.15163  0.88804  Biso   1.000  O
  O86      1.0000 0.94836  0.16891  0.82307  Biso   1.000  O
  O87      1.0000 0.93353  0.28838  0.82677  Biso   1.000  O
  O88      1.0000 0.94946  0.32325  0.89237  Biso   1.000  O
  O89      1.0000 0.13164  0.44195  0.11413  Biso   1.000  O
  O90      1.0000 0.15256  0.42408  0.17917  Biso   1.000  O
  O91      1.0000 0.27995  0.42329  0.17637  Biso   1.000  O
  O92      1.0000 0.31663  0.44513  0.11237  Biso   1.000  O
  O93      1.0000 0.18535  0.57645  0.88597  Biso   1.000  O
  O94      1.0000 0.21882  0.58941  0.81937  Biso   1.000  O
  O95      1.0000 0.33353  0.56296  0.81397  Biso   1.000  O
  O96      1.0000 0.34748  0.54064  0.87977  Biso   1.000  O
  Zn25     1.0000 0.52261  0.28056  0.45337  Biso   1.000  Zn
  Zn26     1.0000 0.47835  0.26135  0.54392  Biso   1.000  Zn
  Zn27     1.0000 0.26309  0.03034  0.54976  Biso   1.000  Zn
  Zn28     1.0000 0.24345  0.98467  0.46014  Biso   1.000  Zn
  C193     1.0000 0.42000  0.15820  0.45620  Biso   1.000  C
  C194     1.0000 0.42880  0.15020  0.41230  Biso   1.000  C
  H73      1.0000 0.45220  0.16960  0.39660  Biso   1.000  H
  C195     1.0000 0.40410  0.11470  0.39140  Biso   1.000  C
  C196     1.0000 0.37000  0.08580  0.41310  Biso   1.000  C
  H74      1.0000 0.35280  0.06130  0.39760  Biso   1.000  H
  C197     1.0000 0.36060  0.09260  0.45850  Biso   1.000  C
  C198     1.0000 0.38690  0.12990  0.47960  Biso   1.000  C
  H75      1.0000 0.38160  0.13540  0.51020  Biso   1.000  H
  C199     1.0000 0.44680  0.19770  0.47720  Biso   1.000  C
  C200     1.0000 0.32290  0.06330  0.48170  Biso   1.000  C
  C201     1.0000 0.40900  0.07070  0.28540  Biso   1.000  C
  C202     1.0000 0.44350  0.09860  0.26360  Biso   1.000  C
  H76      1.0000 0.46040  0.12360  0.27810  Biso   1.000  H
  C203     1.0000 0.45380  0.08990  0.21890  Biso   1.000  C
  C204     1.0000 0.42880  0.05390  0.19930  Biso   1.000  C
  H77      1.0000 0.43480  0.04840  0.16900  Biso   1.000  H
  C205     1.0000 0.39440  0.02440  0.22220  Biso   1.000  C
  C206     1.0000 0.38470  0.03360  0.26460  Biso   1.000  C
  H78      1.0000 0.36110  0.01440  0.28020  Biso   1.000  H
  C207     1.0000 0.49090  0.12010  0.19670  Biso   1.000  C
  C208     1.0000 0.36780  0.98390  0.20120  Biso   1.000  C
  C209     1.0000 0.21740  0.08050  0.44870  Biso   1.000  C
  C210     1.0000 0.19990  0.07240  0.40700  Biso   1.000  C
  H79      1.0000 0.19380  0.04800  0.39220  Biso   1.000  H
  C211     1.0000 0.19020  0.09860  0.38390  Biso   1.000  C
  C212     1.0000 0.20220  0.13560  0.40190  Biso   1.000  C
  H80      1.0000 0.20030  0.15550  0.38440  Biso   1.000  H
  C213     1.0000 0.21800  0.14340  0.44780  Biso   1.000  C
  C214     1.0000 0.22510  0.11650  0.47110  Biso   1.000  C
  H81      1.0000 0.23520  0.12200  0.50210  Biso   1.000  H
  C215     1.0000 0.22710  0.05260  0.47160  Biso   1.000  C
  C216     1.0000 0.22800  0.18270  0.46910  Biso   1.000  C
  C217     1.0000 0.12660  0.01660  0.25720  Biso   1.000  C
  H82      1.0000 0.12800  0.99580  0.27340  Biso   1.000  H
  C218     1.0000 0.10850  0.00910  0.21400  Biso   1.000  C
  C219     1.0000 0.10640  0.04090  0.19040  Biso   1.000  C
  H83      1.0000 0.09460  0.03650  0.16030  Biso   1.000  H
  C220     1.0000 0.12090  0.07630  0.21080  Biso   1.000  C
  C221     1.0000 0.13860  0.08500  0.25460  Biso   1.000  C
  H84      1.0000 0.14750  0.11030  0.26890  Biso   1.000  H
  C222     1.0000 0.14310  0.05480  0.27710  Biso   1.000  C
  C223     1.0000 0.09060  0.96830  0.19490  Biso   1.000  C
  C224     1.0000 0.11660  0.11120  0.18750  Biso   1.000  C
  N25      1.0000 0.41720  0.10910  0.34540  Biso   1.000  N
  N26      1.0000 0.39550  0.07500  0.32890  Biso   1.000  N
  N27      1.0000 0.17240  0.09210  0.33950  Biso   1.000  N
  N28      1.0000 0.15970  0.05880  0.32060  Biso   1.000  N
  O97      1.0000 0.47406  0.22376  0.45220  Biso   1.000  O
  O98      1.0000 0.43952  0.20582  0.51860  Biso   1.000  O
  O99      1.0000 0.29997  0.03417  0.45660  Biso   1.000  O
  O100     1.0000 0.31708  0.06938  0.52313  Biso   1.000  O
  O101     1.0000 0.51504  0.14876  0.22137  Biso   1.000  O
  O102     1.0000 0.49776  0.11279  0.15640  Biso   1.000  O
  O103     1.0000 0.37829  0.97849  0.16010  Biso   1.000  O
  O104     1.0000 0.34342  0.95955  0.22570  Biso   1.000  O
  O105     1.0000 0.22472  0.02303  0.44746  Biso   1.000  O
  O106     1.0000 0.24259  0.06182  0.51250  Biso   1.000  O
  O107     1.0000 0.24338  0.19000  0.50970  Biso   1.000  O
  O108     1.0000 0.22154  0.20484  0.44570  Biso   1.000  O
  O109     1.0000 0.09022  0.94224  0.21930  Biso   1.000  O
  O110     1.0000 0.07726  0.96275  0.15270  Biso   1.000  O
  O111     1.0000 0.10371  0.10391  0.14730  Biso   1.000  O
  O112     1.0000 0.12603  0.14018  0.21310  Biso   1.000  O
  Zn29     1.0000 0.18928  0.61389  0.78670  Biso   1.000  Zn
  Zn30     1.0000 0.14502  0.59468  0.87725  Biso   1.000  Zn
  Zn31     1.0000 0.92976  0.36367  0.88309  Biso   1.000  Zn
  Zn32     1.0000 0.91012  0.31800  0.79347  Biso   1.000  Zn
  C225     1.0000 0.08667  0.49153  0.78953  Biso   1.000  C
  C226     1.0000 0.09547  0.48353  0.74563  Biso   1.000  C
  H85      1.0000 0.11887  0.50293  0.72993  Biso   1.000  H
  C227     1.0000 0.07077  0.44803  0.72473  Biso   1.000  C
  C228     1.0000 0.03667  0.41913  0.74643  Biso   1.000  C
  H86      1.0000 0.01947  0.39463  0.73093  Biso   1.000  H
  C229     1.0000 0.02727  0.42593  0.79183  Biso   1.000  C
  C230     1.0000 0.05357  0.46323  0.81293  Biso   1.000  C
  H87      1.0000 0.04827  0.46873  0.84353  Biso   1.000  H
  C231     1.0000 0.11347  0.53103  0.81053  Biso   1.000  C
  C232     1.0000 0.98957  0.39663  0.81503  Biso   1.000  C
  C233     1.0000 0.07567  0.40403  0.61873  Biso   1.000  C
  C234     1.0000 0.11017  0.43193  0.59693  Biso   1.000  C
  H88      1.0000 0.12707  0.45693  0.61143  Biso   1.000  H
  C235     1.0000 0.12047  0.42323  0.55223  Biso   1.000  C
  C236     1.0000 0.09547  0.38723  0.53263  Biso   1.000  C
  H89      1.0000 0.10147  0.38173  0.50233  Biso   1.000  H
  C237     1.0000 0.06107  0.35773  0.55553  Biso   1.000  C
  C238     1.0000 0.05137  0.36693  0.59793  Biso   1.000  C
  H90      1.0000 0.02777  0.34773  0.61353  Biso   1.000  H
  C239     1.0000 0.15757  0.45343  0.53003  Biso   1.000  C
  C240     1.0000 0.03447  0.31723  0.53453  Biso   1.000  C
  C241     1.0000 0.88407  0.41383  0.78203  Biso   1.000  C
  C242     1.0000 0.86657  0.40573  0.74033  Biso   1.000  C
  H91      1.0000 0.86047  0.38133  0.72553  Biso   1.000  H
  C243     1.0000 0.85687  0.43193  0.71723  Biso   1.000  C
  C244     1.0000 0.86887  0.46893  0.73523  Biso   1.000  C
  H92      1.0000 0.86697  0.48883  0.71773  Biso   1.000  H
  C245     1.0000 0.88467  0.47673  0.78113  Biso   1.000  C
  C246     1.0000 0.89177  0.44983  0.80443  Biso   1.000  C
  H93      1.0000 0.90187  0.45533  0.83543  Biso   1.000  H
  C247     1.0000 0.89377  0.38593  0.80493  Biso   1.000  C
  C248     1.0000 0.89467  0.51603  0.80243  Biso   1.000  C
  C249     1.0000 0.79327  0.34993  0.59053  Biso   1.000  C
  H94      1.0000 0.79467  0.32913  0.60673  Biso   1.000  H
  C250     1.0000 0.77517  0.34243  0.54733  Biso   1.000  C
  C251     1.0000 0.77307  0.37423  0.52373  Biso   1.000  C
  H95      1.0000 0.76127  0.36983  0.49363  Biso   1.000  H
  C252     1.0000 0.78757  0.40963  0.54413  Biso   1.000  C
  C253     1.0000 0.80527  0.41833  0.58793  Biso   1.000  C
  H96      1.0000 0.81417  0.44363  0.60223  Biso   1.000  H
  C254     1.0000 0.80977  0.38813  0.61043  Biso   1.000  C
  C255     1.0000 0.75727  0.30163  0.52823  Biso   1.000  C
  C256     1.0000 0.78327  0.44453  0.52083  Biso   1.000  C
  N29      1.0000 0.08387  0.44243  0.67873  Biso   1.000  N
  N30      1.0000 0.06217  0.40833  0.66223  Biso   1.000  N
  N31      1.0000 0.83907  0.42543  0.67283  Biso   1.000  N
  N32      1.0000 0.82637  0.39213  0.65393  Biso   1.000  N
  O113     1.0000 0.14073  0.55709  0.78553  Biso   1.000  O
  O114     1.0000 0.10619  0.53915  0.85193  Biso   1.000  O
  O115     1.0000 0.96664  0.36750  0.78993  Biso   1.000  O
  O116     1.0000 0.98375  0.40271  0.85646  Biso   1.000  O
  O117     1.0000 0.18171  0.48209  0.55470  Biso   1.000  O
  O118     1.0000 0.16443  0.44612  0.48973  Biso   1.000  O
  O119     1.0000 0.04496  0.31182  0.49343  Biso   1.000  O
  O120     1.0000 0.01009  0.29288  0.55903  Biso   1.000  O
  O121     1.0000 0.89139  0.35636  0.78079  Biso   1.000  O
  O122     1.0000 0.90926  0.39515  0.84583  Biso   1.000  O
  O123     1.0000 0.91005  0.52333  0.84303  Biso   1.000  O
  O124     1.0000 0.88821  0.53817  0.77903  Biso   1.000  O
  O125     1.0000 0.75689  0.27557  0.55263  Biso   1.000  O
  O126     1.0000 0.74393  0.29608  0.48603  Biso   1.000  O
  O127     1.0000 0.77038  0.43724  0.48063  Biso   1.000  O
  O128     1.0000 0.79270  0.47351  0.54643  Biso   1.000  O
  Zn33     1.0000 0.85594  0.94723  0.12004  Biso   1.000  Zn
  Zn34     1.0000 0.81168  0.92802  0.21059  Biso   1.000  Zn
  Zn35     1.0000 0.59642  0.69701  0.21643  Biso   1.000  Zn
  Zn36     1.0000 0.57678  0.65134  0.12681  Biso   1.000  Zn
  C257     1.0000 0.75333  0.82487  0.12287  Biso   1.000  C
  C258     1.0000 0.76213  0.81687  0.07897  Biso   1.000  C
  H97      1.0000 0.78553  0.83627  0.06327  Biso   1.000  H
  C259     1.0000 0.73743  0.78137  0.05807  Biso   1.000  C
  C260     1.0000 0.70333  0.75247  0.07977  Biso   1.000  C
  H98      1.0000 0.68613  0.72797  0.06427  Biso   1.000  H
  C261     1.0000 0.69393  0.75927  0.12517  Biso   1.000  C
  C262     1.0000 0.72023  0.79657  0.14627  Biso   1.000  C
  H99      1.0000 0.71493  0.80207  0.17687  Biso   1.000  H
  C263     1.0000 0.78013  0.86437  0.14387  Biso   1.000  C
  C264     1.0000 0.65623  0.72997  0.14837  Biso   1.000  C
  C265     1.0000 0.74233  0.73737  0.95207  Biso   1.000  C
  C266     1.0000 0.77683  0.76527  0.93027  Biso   1.000  C
  H100     1.0000 0.79373  0.79027  0.94477  Biso   1.000  H
  C267     1.0000 0.78713  0.75657  0.88557  Biso   1.000  C
  C268     1.0000 0.76213  0.72057  0.86597  Biso   1.000  C
  H101     1.0000 0.76813  0.71507  0.83567  Biso   1.000  H
  C269     1.0000 0.72773  0.69107  0.88887  Biso   1.000  C
  C270     1.0000 0.71803  0.70027  0.93127  Biso   1.000  C
  H102     1.0000 0.69443  0.68107  0.94687  Biso   1.000  H
  C271     1.0000 0.82423  0.78677  0.86337  Biso   1.000  C
  C272     1.0000 0.70113  0.65057  0.86787  Biso   1.000  C
  C273     1.0000 0.55073  0.74717  0.11537  Biso   1.000  C
  C274     1.0000 0.53323  0.73907  0.07367  Biso   1.000  C
  H103     1.0000 0.52713  0.71467  0.05887  Biso   1.000  H
  C275     1.0000 0.52353  0.76527  0.05057  Biso   1.000  C
  C276     1.0000 0.53553  0.80227  0.06857  Biso   1.000  C
  H104     1.0000 0.53363  0.82217  0.05107  Biso   1.000  H
  C277     1.0000 0.55133  0.81007  0.11447  Biso   1.000  C
  C278     1.0000 0.55843  0.78317  0.13777  Biso   1.000  C
  H105     1.0000 0.56853  0.78867  0.16877  Biso   1.000  H
  C279     1.0000 0.56043  0.71927  0.13827  Biso   1.000  C
  C280     1.0000 0.56133  0.84937  0.13577  Biso   1.000  C
  C281     1.0000 0.45993  0.68327  0.92387  Biso   1.000  C
  H106     1.0000 0.46133  0.66247  0.94007  Biso   1.000  H
  C282     1.0000 0.44183  0.67577  0.88067  Biso   1.000  C
  C283     1.0000 0.43973  0.70757  0.85707  Biso   1.000  C
  H107     1.0000 0.42793  0.70317  0.82697  Biso   1.000  H
  C284     1.0000 0.45423  0.74297  0.87747  Biso   1.000  C
  C285     1.0000 0.47193  0.75167  0.92127  Biso   1.000  C
  H108     1.0000 0.48083  0.77697  0.93557  Biso   1.000  H
  C286     1.0000 0.47643  0.72147  0.94377  Biso   1.000  C
  C287     1.0000 0.42393  0.63497  0.86157  Biso   1.000  C
  C288     1.0000 0.44993  0.77787  0.85417  Biso   1.000  C
  N33      1.0000 0.75053  0.77577  0.01207  Biso   1.000  N
  N34      1.0000 0.72883  0.74167  0.99557  Biso   1.000  N
  N35      1.0000 0.50573  0.75877  0.00617  Biso   1.000  N
  N36      1.0000 0.49303  0.72547  0.98727  Biso   1.000  N
  O129     1.0000 0.80739  0.89043  0.11887  Biso   1.000  O
  O130     1.0000 0.77285  0.87249  0.18527  Biso   1.000  O
  O131     1.0000 0.63330  0.70084  0.12327  Biso   1.000  O
  O132     1.0000 0.65041  0.73605  0.18980  Biso   1.000  O
  O133     1.0000 0.84837  0.81543  0.88804  Biso   1.000  O
  O134     1.0000 0.83109  0.77946  0.82307  Biso   1.000  O
  O135     1.0000 0.71162  0.64516  0.82677  Biso   1.000  O
  O136     1.0000 0.67675  0.62622  0.89237  Biso   1.000  O
  O137     1.0000 0.55805  0.68970  0.11413  Biso   1.000  O
  O138     1.0000 0.57592  0.72849  0.17917  Biso   1.000  O
  O139     1.0000 0.57671  0.85667  0.17637  Biso   1.000  O
  O140     1.0000 0.55487  0.87151  0.11237  Biso   1.000  O
  O141     1.0000 0.42355  0.60891  0.88597  Biso   1.000  O
  O142     1.0000 0.41059  0.62942  0.81937  Biso   1.000  O
  O143     1.0000 0.43704  0.77058  0.81397  Biso   1.000  O
  O144     1.0000 0.45936  0.80685  0.87977  Biso   1.000  O
  Zn37     1.0000 0.28056  0.75795  0.54663  Biso   1.000  Zn
  Zn38     1.0000 0.26135  0.78300  0.45608  Biso   1.000  Zn
  Zn39     1.0000 0.03034  0.76725  0.45024  Biso   1.000  Zn
  Zn40     1.0000 0.98467  0.74122  0.53986  Biso   1.000  Zn
  C289     1.0000 0.15820  0.73820  0.54380  Biso   1.000  C
  C290     1.0000 0.15020  0.72140  0.58770  Biso   1.000  C
  H109     1.0000 0.16960  0.71740  0.60340  Biso   1.000  H
  C291     1.0000 0.11470  0.71060  0.60860  Biso   1.000  C
  C292     1.0000 0.08580  0.71580  0.58690  Biso   1.000  C
  H110     1.0000 0.06130  0.70850  0.60240  Biso   1.000  H
  C293     1.0000 0.09260  0.73200  0.54150  Biso   1.000  C
  C294     1.0000 0.12990  0.74300  0.52040  Biso   1.000  C
  H111     1.0000 0.13540  0.75380  0.48980  Biso   1.000  H
  C295     1.0000 0.19770  0.75090  0.52280  Biso   1.000  C
  C296     1.0000 0.06330  0.74040  0.51830  Biso   1.000  C
  C297     1.0000 0.07070  0.66170  0.71460  Biso   1.000  C
  C298     1.0000 0.09860  0.65510  0.73640  Biso   1.000  C
  H112     1.0000 0.12360  0.66320  0.72190  Biso   1.000  H
  C299     1.0000 0.08990  0.63610  0.78110  Biso   1.000  C
  C300     1.0000 0.05390  0.62510  0.80070  Biso   1.000  C
  H113     1.0000 0.04840  0.61360  0.83100  Biso   1.000  H
  C301     1.0000 0.02440  0.63000  0.77780  Biso   1.000  C
  C302     1.0000 0.03360  0.64890  0.73540  Biso   1.000  C
  H114     1.0000 0.01440  0.65330  0.71980  Biso   1.000  H
  C303     1.0000 0.12010  0.62920  0.80330  Biso   1.000  C
  C304     1.0000 0.98390  0.61610  0.79880  Biso   1.000  C
  C305     1.0000 0.08050  0.86310  0.55130  Biso   1.000  C
  C306     1.0000 0.07240  0.87250  0.59300  Biso   1.000  C
  H115     1.0000 0.04800  0.85420  0.60780  Biso   1.000  H
  C307     1.0000 0.09860  0.90840  0.61610  Biso   1.000  C
  C308     1.0000 0.13560  0.93340  0.59810  Biso   1.000  C
  H116     1.0000 0.15550  0.95520  0.61560  Biso   1.000  H
  C309     1.0000 0.14340  0.92540  0.55220  Biso   1.000  C
  C310     1.0000 0.11650  0.89140  0.52890  Biso   1.000  C
  H117     1.0000 0.12200  0.88680  0.49790  Biso   1.000  H
  C311     1.0000 0.05260  0.82550  0.52840  Biso   1.000  C
  C312     1.0000 0.18270  0.95470  0.53090  Biso   1.000  C
  C313     1.0000 0.01660  0.89000  0.74280  Biso   1.000  C
  H118     1.0000 0.99580  0.86780  0.72660  Biso   1.000  H
  C314     1.0000 0.00910  0.90060  0.78600  Biso   1.000  C
  C315     1.0000 0.04090  0.93450  0.80960  Biso   1.000  C
  H119     1.0000 0.03650  0.94190  0.83970  Biso   1.000  H
  C316     1.0000 0.07630  0.95540  0.78920  Biso   1.000  C
  C317     1.0000 0.08500  0.94640  0.74540  Biso   1.000  C
  H120     1.0000 0.11030  0.96280  0.73110  Biso   1.000  H
  C318     1.0000 0.05480  0.91170  0.72290  Biso   1.000  C
  C319     1.0000 0.96830  0.87770  0.80510  Biso   1.000  C
  C320     1.0000 0.11120  0.99460  0.81250  Biso   1.000  C
  N37      1.0000 0.10910  0.69190  0.65460  Biso   1.000  N
  N38      1.0000 0.07500  0.67950  0.67110  Biso   1.000  N
  N39      1.0000 0.09210  0.91970  0.66050  Biso   1.000  N
  N40      1.0000 0.05880  0.89910  0.67940  Biso   1.000  N
  O145     1.0000 0.22376  0.74970  0.54780  Biso   1.000  O
  O146     1.0000 0.20582  0.76630  0.48140  Biso   1.000  O
  O147     1.0000 0.03417  0.73420  0.54340  Biso   1.000  O
  O148     1.0000 0.06938  0.75230  0.47687  Biso   1.000  O
  O149     1.0000 0.14876  0.63372  0.77863  Biso   1.000  O
  O150     1.0000 0.11279  0.61503  0.84360  Biso   1.000  O
  O151     1.0000 0.97849  0.60020  0.83990  Biso   1.000  O
  O152     1.0000 0.95955  0.61613  0.77430  Biso   1.000  O
  O153     1.0000 0.02303  0.79831  0.55254  Biso   1.000  O
  O154     1.0000 0.06182  0.81923  0.48750  Biso   1.000  O
  O155     1.0000 0.19000  0.94662  0.49030  Biso   1.000  O
  O156     1.0000 0.20484  0.98330  0.55430  Biso   1.000  O
  O157     1.0000 0.94224  0.85202  0.78070  Biso   1.000  O
  O158     1.0000 0.96275  0.88549  0.84730  Biso   1.000  O
  O159     1.0000 0.10391  0.00020  0.85270  Biso   1.000  O
  O160     1.0000 0.14018  0.01415  0.78690  Biso   1.000  O
  Zn41     1.0000 0.94723  0.09128  0.87996  Biso   1.000  Zn
  Zn42     1.0000 0.92802  0.11633  0.78941  Biso   1.000  Zn
  Zn43     1.0000 0.69701  0.10058  0.78357  Biso   1.000  Zn
  Zn44     1.0000 0.65134  0.07455  0.87319  Biso   1.000  Zn
  C321     1.0000 0.82487  0.07153  0.87713  Biso   1.000  C
  C322     1.0000 0.81687  0.05473  0.92103  Biso   1.000  C
  H121     1.0000 0.83627  0.05073  0.93673  Biso   1.000  H
  C323     1.0000 0.78137  0.04393  0.94193  Biso   1.000  C
  C324     1.0000 0.75247  0.04913  0.92023  Biso   1.000  C
  H122     1.0000 0.72797  0.04183  0.93573  Biso   1.000  H
  C325     1.0000 0.75927  0.06533  0.87483  Biso   1.000  C
  C326     1.0000 0.79657  0.07633  0.85373  Biso   1.000  C
  H123     1.0000 0.80207  0.08713  0.82313  Biso   1.000  H
  C327     1.0000 0.86437  0.08423  0.85613  Biso   1.000  C
  C328     1.0000 0.72997  0.07373  0.85163  Biso   1.000  C
  C329     1.0000 0.73737  0.99503  0.04793  Biso   1.000  C
  C330     1.0000 0.76527  0.98843  0.06973  Biso   1.000  C
  H124     1.0000 0.79027  0.99653  0.05523  Biso   1.000  H
  C331     1.0000 0.75657  0.96943  0.11443  Biso   1.000  C
  C332     1.0000 0.72057  0.95843  0.13403  Biso   1.000  C
  H125     1.0000 0.71507  0.94693  0.16433  Biso   1.000  H
  C333     1.0000 0.69107  0.96333  0.11113  Biso   1.000  C
  C334     1.0000 0.70027  0.98223  0.06873  Biso   1.000  C
  H126     1.0000 0.68107  0.98663  0.05313  Biso   1.000  H
  C335     1.0000 0.78677  0.96253  0.13663  Biso   1.000  C
  C336     1.0000 0.65057  0.94943  0.13213  Biso   1.000  C
  C337     1.0000 0.74717  0.19643  0.88463  Biso   1.000  C
  C338     1.0000 0.73907  0.20583  0.92633  Biso   1.000  C
  H127     1.0000 0.71467  0.18753  0.94113  Biso   1.000  H
  C339     1.0000 0.76527  0.24173  0.94943  Biso   1.000  C
  C340     1.0000 0.80227  0.26673  0.93143  Biso   1.000  C
  H128     1.0000 0.82217  0.28853  0.94893  Biso   1.000  H
  C341     1.0000 0.81007  0.25873  0.88553  Biso   1.000  C
  C342     1.0000 0.78317  0.22473  0.86223  Biso   1.000  C
  H129     1.0000 0.78867  0.22013  0.83123  Biso   1.000  H
  C343     1.0000 0.71927  0.15883  0.86173  Biso   1.000  C
  C344     1.0000 0.84937  0.28803  0.86423  Biso   1.000  C
  C345     1.0000 0.68327  0.22333  0.07613  Biso   1.000  C
  H130     1.0000 0.66247  0.20113  0.05993  Biso   1.000  H
  C346     1.0000 0.67577  0.23393  0.11933  Biso   1.000  C
  C347     1.0000 0.70757  0.26783  0.14293  Biso   1.000  C
  H131     1.0000 0.70317  0.27523  0.17303  Biso   1.000  H
  C348     1.0000 0.74297  0.28873  0.12253  Biso   1.000  C
  C349     1.0000 0.75167  0.27973  0.07873  Biso   1.000  C
  H132     1.0000 0.77697  0.29613  0.06443  Biso   1.000  H
  C350     1.0000 0.72147  0.24503  0.05623  Biso   1.000  C
  C351     1.0000 0.63497  0.21103  0.13843  Biso   1.000  C
  C352     1.0000 0.77787  0.32793  0.14583  Biso   1.000  C
  N41      1.0000 0.77577  0.02523  0.98793  Biso   1.000  N
  N42      1.0000 0.74167  0.01283  0.00443  Biso   1.000  N
  N43      1.0000 0.75877  0.25303  0.99383  Biso   1.000  N
  N44      1.0000 0.72547  0.23243  0.01273  Biso   1.000  N
  O161     1.0000 0.89043  0.08303  0.88113  Biso   1.000  O
  O162     1.0000 0.87249  0.09963  0.81473  Biso   1.000  O
  O163     1.0000 0.70084  0.06753  0.87673  Biso   1.000  O
  O164     1.0000 0.73605  0.08563  0.81020  Biso   1.000  O
  O165     1.0000 0.81543  0.96705  0.11196  Biso   1.000  O
  O166     1.0000 0.77946  0.94836  0.17693  Biso   1.000  O
  O167     1.0000 0.64516  0.93353  0.17323  Biso   1.000  O
  O168     1.0000 0.62622  0.94946  0.10763  Biso   1.000  O
  O169     1.0000 0.68970  0.13164  0.88587  Biso   1.000  O
  O170     1.0000 0.72849  0.15256  0.82083  Biso   1.000  O
  O171     1.0000 0.85667  0.27995  0.82363  Biso   1.000  O
  O172     1.0000 0.87151  0.31663  0.88763  Biso   1.000  O
  O173     1.0000 0.60891  0.18535  0.11403  Biso   1.000  O
  O174     1.0000 0.62942  0.21882  0.18063  Biso   1.000  O
  O175     1.0000 0.77058  0.33353  0.18603  Biso   1.000  O
  O176     1.0000 0.80685  0.34748  0.12023  Biso   1.000  O
  Zn45     1.0000 0.61389  0.42462  0.21330  Biso   1.000  Zn
  Zn46     1.0000 0.59468  0.44967  0.12275  Biso   1.000  Zn
  Zn47     1.0000 0.36367  0.43392  0.11691  Biso   1.000  Zn
  Zn48     1.0000 0.31800  0.40789  0.20653  Biso   1.000  Zn
  C353     1.0000 0.49153  0.40487  0.21047  Biso   1.000  C
  C354     1.0000 0.48353  0.38807  0.25437  Biso   1.000  C
  H133     1.0000 0.50293  0.38407  0.27007  Biso   1.000  H
  C355     1.0000 0.44803  0.37727  0.27527  Biso   1.000  C
  C356     1.0000 0.41913  0.38247  0.25357  Biso   1.000  C
  H134     1.0000 0.39463  0.37517  0.26907  Biso   1.000  H
  C357     1.0000 0.42593  0.39867  0.20817  Biso   1.000  C
  C358     1.0000 0.46323  0.40967  0.18707  Biso   1.000  C
  H135     1.0000 0.46873  0.42047  0.15647  Biso   1.000  H
  C359     1.0000 0.53103  0.41757  0.18947  Biso   1.000  C
  C360     1.0000 0.39663  0.40707  0.18497  Biso   1.000  C
  C361     1.0000 0.40403  0.32837  0.38127  Biso   1.000  C
  C362     1.0000 0.43193  0.32177  0.40307  Biso   1.000  C
  H136     1.0000 0.45693  0.32987  0.38857  Biso   1.000  H
  C363     1.0000 0.42323  0.30277  0.44777  Biso   1.000  C
  C364     1.0000 0.38723  0.29177  0.46737  Biso   1.000  C
  H137     1.0000 0.38173  0.28027  0.49767  Biso   1.000  H
  C365     1.0000 0.35773  0.29667  0.44447  Biso   1.000  C
  C366     1.0000 0.36693  0.31557  0.40207  Biso   1.000  C
  H138     1.0000 0.34773  0.31997  0.38647  Biso   1.000  H
  C367     1.0000 0.45343  0.29587  0.46997  Biso   1.000  C
  C368     1.0000 0.31723  0.28277  0.46547  Biso   1.000  C
  C369     1.0000 0.41383  0.52977  0.21797  Biso   1.000  C
  C370     1.0000 0.40573  0.53917  0.25967  Biso   1.000  C
  H139     1.0000 0.38133  0.52087  0.27447  Biso   1.000  H
  C371     1.0000 0.43193  0.57507  0.28277  Biso   1.000  C
  C372     1.0000 0.46893  0.60007  0.26477  Biso   1.000  C
  H140     1.0000 0.48883  0.62187  0.28227  Biso   1.000  H
  C373     1.0000 0.47673  0.59207  0.21887  Biso   1.000  C
  C374     1.0000 0.44983  0.55807  0.19557  Biso   1.000  C
  H141     1.0000 0.45533  0.55347  0.16457  Biso   1.000  H
  C375     1.0000 0.38593  0.49217  0.19507  Biso   1.000  C
  C376     1.0000 0.51603  0.62137  0.19757  Biso   1.000  C
  C377     1.0000 0.34993  0.55667  0.40947  Biso   1.000  C
  H142     1.0000 0.32913  0.53447  0.39327  Biso   1.000  H
  C378     1.0000 0.34243  0.56727  0.45267  Biso   1.000  C
  C379     1.0000 0.37423  0.60117  0.47627  Biso   1.000  C
  H143     1.0000 0.36983  0.60857  0.50637  Biso   1.000  H
  C380     1.0000 0.40963  0.62207  0.45587  Biso   1.000  C
  C381     1.0000 0.41833  0.61307  0.41207  Biso   1.000  C
  H144     1.0000 0.44363  0.62947  0.39777  Biso   1.000  H
  C382     1.0000 0.38813  0.57837  0.38957  Biso   1.000  C
  C383     1.0000 0.30163  0.54437  0.47177  Biso   1.000  C
  C384     1.0000 0.44453  0.66127  0.47917  Biso   1.000  C
  N45      1.0000 0.44243  0.35857  0.32127  Biso   1.000  N
  N46      1.0000 0.40833  0.34617  0.33777  Biso   1.000  N
  N47      1.0000 0.42543  0.58637  0.32717  Biso   1.000  N
  N48      1.0000 0.39213  0.56577  0.34607  Biso   1.000  N
  O177     1.0000 0.55709  0.41637  0.21447  Biso   1.000  O
  O178     1.0000 0.53915  0.43297  0.14807  Biso   1.000  O
  O179     1.0000 0.36750  0.40087  0.21007  Biso   1.000  O
  O180     1.0000 0.40271  0.41897  0.14354  Biso   1.000  O
  O181     1.0000 0.48209  0.30039  0.44530  Biso   1.000  O
  O182     1.0000 0.44612  0.28170  0.51027  Biso   1.000  O
  O183     1.0000 0.31182  0.26687  0.50657  Biso   1.000  O
  O184     1.0000 0.29288  0.28280  0.44097  Biso   1.000  O
  O185     1.0000 0.35636  0.46498  0.21921  Biso   1.000  O
  O186     1.0000 0.39515  0.48590  0.15417  Biso   1.000  O
  O187     1.0000 0.52333  0.61329  0.15697  Biso   1.000  O
  O188     1.0000 0.53817  0.64997  0.22097  Biso   1.000  O
  O189     1.0000 0.27557  0.51869  0.44737  Biso   1.000  O
  O190     1.0000 0.29608  0.55216  0.51397  Biso   1.000  O
  O191     1.0000 0.43724  0.66687  0.51937  Biso   1.000  O
  O192     1.0000 0.47351  0.68082  0.45357  Biso   1.000  O
  Zn49     1.0000 0.24205  0.52261  0.54663  Biso   1.000  Zn
  Zn50     1.0000 0.21700  0.47835  0.45608  Biso   1.000  Zn
  Zn51     1.0000 0.23275  0.26309  0.45024  Biso   1.000  Zn
  Zn52     1.0000 0.25878  0.24345  0.53986  Biso   1.000  Zn
  C385     1.0000 0.26180  0.42000  0.54380  Biso   1.000  C
  C386     1.0000 0.27860  0.42880  0.58770  Biso   1.000  C
  H145     1.0000 0.28260  0.45220  0.60340  Biso   1.000  H
  C387     1.0000 0.28940  0.40410  0.60860  Biso   1.000  C
  C388     1.0000 0.28420  0.37000  0.58690  Biso   1.000  C
  H146     1.0000 0.29150  0.35280  0.60240  Biso   1.000  H
  C389     1.0000 0.26800  0.36060  0.54150  Biso   1.000  C
  C390     1.0000 0.25700  0.38690  0.52040  Biso   1.000  C
  H147     1.0000 0.24620  0.38160  0.48980  Biso   1.000  H
  C391     1.0000 0.24910  0.44680  0.52280  Biso   1.000  C
  C392     1.0000 0.25960  0.32290  0.51830  Biso   1.000  C
  C393     1.0000 0.33830  0.40900  0.71460  Biso   1.000  C
  C394     1.0000 0.34490  0.44350  0.73640  Biso   1.000  C
  H148     1.0000 0.33680  0.46040  0.72190  Biso   1.000  H
  C395     1.0000 0.36390  0.45380  0.78110  Biso   1.000  C
  C396     1.0000 0.37490  0.42880  0.80070  Biso   1.000  C
  H149     1.0000 0.38640  0.43480  0.83100  Biso   1.000  H
  C397     1.0000 0.37000  0.39440  0.77780  Biso   1.000  C
  C398     1.0000 0.35110  0.38470  0.73540  Biso   1.000  C
  H150     1.0000 0.34670  0.36110  0.71980  Biso   1.000  H
  C399     1.0000 0.37080  0.49090  0.80330  Biso   1.000  C
  C400     1.0000 0.38390  0.36780  0.79880  Biso   1.000  C
  C401     1.0000 0.13690  0.21740  0.55130  Biso   1.000  C
  C402     1.0000 0.12750  0.19990  0.59300  Biso   1.000  C
  H151     1.0000 0.14580  0.19380  0.60780  Biso   1.000  H
  C403     1.0000 0.09160  0.19020  0.61610  Biso   1.000  C
  C404     1.0000 0.06660  0.20220  0.59810  Biso   1.000  C
  H152     1.0000 0.04480  0.20030  0.61560  Biso   1.000  H
  C405     1.0000 0.07460  0.21800  0.55220  Biso   1.000  C
  C406     1.0000 0.10860  0.22510  0.52890  Biso   1.000  C
  H153     1.0000 0.11320  0.23520  0.49790  Biso   1.000  H
  C407     1.0000 0.17450  0.22710  0.52840  Biso   1.000  C
  C408     1.0000 0.04530  0.22800  0.53090  Biso   1.000  C
  C409     1.0000 0.11000  0.12660  0.74280  Biso   1.000  C
  H154     1.0000 0.13220  0.12800  0.72660  Biso   1.000  H
  C410     1.0000 0.09940  0.10850  0.78600  Biso   1.000  C
  C411     1.0000 0.06550  0.10640  0.80960  Biso   1.000  C
  H155     1.0000 0.05810  0.09460  0.83970  Biso   1.000  H
  C412     1.0000 0.04460  0.12090  0.78920  Biso   1.000  C
  C413     1.0000 0.05360  0.13860  0.74540  Biso   1.000  C
  H156     1.0000 0.03720  0.14750  0.73110  Biso   1.000  H
  C414     1.0000 0.08830  0.14310  0.72290  Biso   1.000  C
  C415     1.0000 0.12230  0.09060  0.80510  Biso   1.000  C
  C416     1.0000 0.00540  0.11660  0.81250  Biso   1.000  C
  N49      1.0000 0.30810  0.41720  0.65460  Biso   1.000  N
  N50      1.0000 0.32050  0.39550  0.67110  Biso   1.000  N
  N51      1.0000 0.08030  0.17240  0.66050  Biso   1.000  N
  N52      1.0000 0.10090  0.15970  0.67940  Biso   1.000  N
  O193     1.0000 0.25030  0.47406  0.54780  Biso   1.000  O
  O194     1.0000 0.23370  0.43952  0.48140  Biso   1.000  O
  O195     1.0000 0.26580  0.29997  0.54340  Biso   1.000  O
  O196     1.0000 0.24770  0.31708  0.47687  Biso   1.000  O
  O197     1.0000 0.36628  0.51504  0.77863  Biso   1.000  O
  O198     1.0000 0.38497  0.49776  0.84360  Biso   1.000  O
  O199     1.0000 0.39980  0.37829  0.83990  Biso   1.000  O
  O200     1.0000 0.38387  0.34342  0.77430  Biso   1.000  O
  O201     1.0000 0.20169  0.22472  0.55254  Biso   1.000  O
  O202     1.0000 0.18077  0.24259  0.48750  Biso   1.000  O
  O203     1.0000 0.05338  0.24338  0.49030  Biso   1.000  O
  O204     1.0000 0.01670  0.22154  0.55430  Biso   1.000  O
  O205     1.0000 0.14798  0.09022  0.78070  Biso   1.000  O
  O206     1.0000 0.11451  0.07726  0.84730  Biso   1.000  O
  O207     1.0000 0.99980  0.10371  0.85270  Biso   1.000  O
  O208     1.0000 0.98585  0.12603  0.78690  Biso   1.000  O
  Zn53     1.0000 0.90872  0.85594  0.87996  Biso   1.000  Zn
  Zn54     1.0000 0.88367  0.81168  0.78941  Biso   1.000  Zn
  Zn55     1.0000 0.89942  0.59642  0.78357  Biso   1.000  Zn
  Zn56     1.0000 0.92545  0.57678  0.87319  Biso   1.000  Zn
  C417     1.0000 0.92847  0.75333  0.87713  Biso   1.000  C
  C418     1.0000 0.94527  0.76213  0.92103  Biso   1.000  C
  H157     1.0000 0.94927  0.78553  0.93673  Biso   1.000  H
  C419     1.0000 0.95607  0.73743  0.94193  Biso   1.000  C
  C420     1.0000 0.95087  0.70333  0.92023  Biso   1.000  C
  H158     1.0000 0.95817  0.68613  0.93573  Biso   1.000  H
  C421     1.0000 0.93467  0.69393  0.87483  Biso   1.000  C
  C422     1.0000 0.92367  0.72023  0.85373  Biso   1.000  C
  H159     1.0000 0.91287  0.71493  0.82313  Biso   1.000  H
  C423     1.0000 0.91577  0.78013  0.85613  Biso   1.000  C
  C424     1.0000 0.92627  0.65623  0.85163  Biso   1.000  C
  C425     1.0000 0.00497  0.74233  0.04793  Biso   1.000  C
  C426     1.0000 0.01157  0.77683  0.06973  Biso   1.000  C
  H160     1.0000 0.00347  0.79373  0.05523  Biso   1.000  H
  C427     1.0000 0.03057  0.78713  0.11443  Biso   1.000  C
  C428     1.0000 0.04157  0.76213  0.13403  Biso   1.000  C
  H161     1.0000 0.05307  0.76813  0.16433  Biso   1.000  H
  C429     1.0000 0.03667  0.72773  0.11113  Biso   1.000  C
  C430     1.0000 0.01777  0.71803  0.06873  Biso   1.000  C
  H162     1.0000 0.01337  0.69443  0.05313  Biso   1.000  H
  C431     1.0000 0.03747  0.82423  0.13663  Biso   1.000  C
  C432     1.0000 0.05057  0.70113  0.13213  Biso   1.000  C
  C433     1.0000 0.80357  0.55073  0.88463  Biso   1.000  C
  C434     1.0000 0.79417  0.53323  0.92633  Biso   1.000  C
  H163     1.0000 0.81247  0.52713  0.94113  Biso   1.000  H
  C435     1.0000 0.75827  0.52353  0.94943  Biso   1.000  C
  C436     1.0000 0.73327  0.53553  0.93143  Biso   1.000  C
  H164     1.0000 0.71147  0.53363  0.94893  Biso   1.000  H
  C437     1.0000 0.74127  0.55133  0.88553  Biso   1.000  C
  C438     1.0000 0.77527  0.55843  0.86223  Biso   1.000  C
  H165     1.0000 0.77987  0.56853  0.83123  Biso   1.000  H
  C439     1.0000 0.84117  0.56043  0.86173  Biso   1.000  C
  C440     1.0000 0.71197  0.56133  0.86423  Biso   1.000  C
  C441     1.0000 0.77667  0.45993  0.07613  Biso   1.000  C
  H166     1.0000 0.79887  0.46133  0.05993  Biso   1.000  H
  C442     1.0000 0.76607  0.44183  0.11933  Biso   1.000  C
  C443     1.0000 0.73217  0.43973  0.14293  Biso   1.000  C
  H167     1.0000 0.72477  0.42793  0.17303  Biso   1.000  H
  C444     1.0000 0.71127  0.45423  0.12253  Biso   1.000  C
  C445     1.0000 0.72027  0.47193  0.07873  Biso   1.000  C
  H168     1.0000 0.70387  0.48083  0.06443  Biso   1.000  H
  C446     1.0000 0.75497  0.47643  0.05623  Biso   1.000  C
  C447     1.0000 0.78897  0.42393  0.13843  Biso   1.000  C
  C448     1.0000 0.67207  0.44993  0.14583  Biso   1.000  C
  N53      1.0000 0.97477  0.75053  0.98793  Biso   1.000  N
  N54      1.0000 0.98717  0.72883  0.00443  Biso   1.000  N
  N55      1.0000 0.74697  0.50573  0.99383  Biso   1.000  N
  N56      1.0000 0.76757  0.49303  0.01273  Biso   1.000  N
  O209     1.0000 0.91697  0.80739  0.88113  Biso   1.000  O
  O210     1.0000 0.90037  0.77285  0.81473  Biso   1.000  O
  O211     1.0000 0.93247  0.63330  0.87673  Biso   1.000  O
  O212     1.0000 0.91437  0.65041  0.81020  Biso   1.000  O
  O213     1.0000 0.03295  0.84837  0.11196  Biso   1.000  O
  O214     1.0000 0.05164  0.83109  0.17693  Biso   1.000  O
  O215     1.0000 0.06647  0.71162  0.17323  Biso   1.000  O
  O216     1.0000 0.05054  0.67675  0.10763  Biso   1.000  O
  O217     1.0000 0.86836  0.55805  0.88587  Biso   1.000  O
  O218     1.0000 0.84744  0.57592  0.82083  Biso   1.000  O
  O219     1.0000 0.72005  0.57671  0.82363  Biso   1.000  O
  O220     1.0000 0.68337  0.55487  0.88763  Biso   1.000  O
  O221     1.0000 0.81465  0.42355  0.11403  Biso   1.000  O
  O222     1.0000 0.78118  0.41059  0.18063  Biso   1.000  O
  O223     1.0000 0.66647  0.43704  0.18603  Biso   1.000  O
  O224     1.0000 0.65252  0.45936  0.12023  Biso   1.000  O
  Zn57     1.0000 0.57538  0.18928  0.21330  Biso   1.000  Zn
  Zn58     1.0000 0.55033  0.14502  0.12275  Biso   1.000  Zn
  Zn59     1.0000 0.56608  0.92976  0.11691  Biso   1.000  Zn
  Zn60     1.0000 0.59211  0.91012  0.20653  Biso   1.000  Zn
  C449     1.0000 0.59513  0.08667  0.21047  Biso   1.000  C
  C450     1.0000 0.61193  0.09547  0.25437  Biso   1.000  C
  H169     1.0000 0.61593  0.11887  0.27007  Biso   1.000  H
  C451     1.0000 0.62273  0.07077  0.27527  Biso   1.000  C
  C452     1.0000 0.61753  0.03667  0.25357  Biso   1.000  C
  H170     1.0000 0.62483  0.01947  0.26907  Biso   1.000  H
  C453     1.0000 0.60133  0.02727  0.20817  Biso   1.000  C
  C454     1.0000 0.59033  0.05357  0.18707  Biso   1.000  C
  H171     1.0000 0.57953  0.04827  0.15647  Biso   1.000  H
  C455     1.0000 0.58243  0.11347  0.18947  Biso   1.000  C
  C456     1.0000 0.59293  0.98957  0.18497  Biso   1.000  C
  C457     1.0000 0.67163  0.07567  0.38127  Biso   1.000  C
  C458     1.0000 0.67823  0.11017  0.40307  Biso   1.000  C
  H172     1.0000 0.67013  0.12707  0.38857  Biso   1.000  H
  C459     1.0000 0.69723  0.12047  0.44777  Biso   1.000  C
  C460     1.0000 0.70823  0.09547  0.46737  Biso   1.000  C
  H173     1.0000 0.71973  0.10147  0.49767  Biso   1.000  H
  C461     1.0000 0.70333  0.06107  0.44447  Biso   1.000  C
  C462     1.0000 0.68443  0.05137  0.40207  Biso   1.000  C
  H174     1.0000 0.68003  0.02777  0.38647  Biso   1.000  H
  C463     1.0000 0.70413  0.15757  0.46997  Biso   1.000  C
  C464     1.0000 0.71723  0.03447  0.46547  Biso   1.000  C
  C465     1.0000 0.47023  0.88407  0.21797  Biso   1.000  C
  C466     1.0000 0.46083  0.86657  0.25967  Biso   1.000  C
  H175     1.0000 0.47913  0.86047  0.27447  Biso   1.000  H
  C467     1.0000 0.42493  0.85687  0.28277  Biso   1.000  C
  C468     1.0000 0.39993  0.86887  0.26477  Biso   1.000  C
  H176     1.0000 0.37813  0.86697  0.28227  Biso   1.000  H
  C469     1.0000 0.40793  0.88467  0.21887  Biso   1.000  C
  C470     1.0000 0.44193  0.89177  0.19557  Biso   1.000  C
  H177     1.0000 0.44653  0.90187  0.16457  Biso   1.000  H
  C471     1.0000 0.50783  0.89377  0.19507  Biso   1.000  C
  C472     1.0000 0.37863  0.89467  0.19757  Biso   1.000  C
  C473     1.0000 0.44333  0.79327  0.40947  Biso   1.000  C
  H178     1.0000 0.46553  0.79467  0.39327  Biso   1.000  H
  C474     1.0000 0.43273  0.77517  0.45267  Biso   1.000  C
  C475     1.0000 0.39883  0.77307  0.47627  Biso   1.000  C
  H179     1.0000 0.39143  0.76127  0.50637  Biso   1.000  H
  C476     1.0000 0.37793  0.78757  0.45587  Biso   1.000  C
  C477     1.0000 0.38693  0.80527  0.41207  Biso   1.000  C
  H180     1.0000 0.37053  0.81417  0.39777  Biso   1.000  H
  C478     1.0000 0.42163  0.80977  0.38957  Biso   1.000  C
  C479     1.0000 0.45563  0.75727  0.47177  Biso   1.000  C
  C480     1.0000 0.33873  0.78327  0.47917  Biso   1.000  C
  N57      1.0000 0.64143  0.08387  0.32127  Biso   1.000  N
  N58      1.0000 0.65383  0.06217  0.33777  Biso   1.000  N
  N59      1.0000 0.41363  0.83907  0.32717  Biso   1.000  N
  N60      1.0000 0.43423  0.82637  0.34607  Biso   1.000  N
  O225     1.0000 0.58363  0.14073  0.21447  Biso   1.000  O
  O226     1.0000 0.56703  0.10619  0.14807  Biso   1.000  O
  O227     1.0000 0.59913  0.96664  0.21007  Biso   1.000  O
  O228     1.0000 0.58103  0.98375  0.14354  Biso   1.000  O
  O229     1.0000 0.69961  0.18171  0.44530  Biso   1.000  O
  O230     1.0000 0.71830  0.16443  0.51027  Biso   1.000  O
  O231     1.0000 0.73313  0.04496  0.50657  Biso   1.000  O
  O232     1.0000 0.71720  0.01009  0.44097  Biso   1.000  O
  O233     1.0000 0.53502  0.89139  0.21921  Biso   1.000  O
  O234     1.0000 0.51410  0.90926  0.15417  Biso   1.000  O
  O235     1.0000 0.38671  0.91005  0.15697  Biso   1.000  O
  O236     1.0000 0.35003  0.88821  0.22097  Biso   1.000  O
  O237     1.0000 0.48131  0.75689  0.44737  Biso   1.000  O
  O238     1.0000 0.44784  0.74393  0.51397  Biso   1.000  O
  O239     1.0000 0.33313  0.77038  0.51937  Biso   1.000  O
  O240     1.0000 0.31918  0.79270  0.45357  Biso   1.000  O
  Zn61     1.0000 0.47739  0.71944  0.54663  Biso   1.000  Zn
  Zn62     1.0000 0.52165  0.73865  0.45608  Biso   1.000  Zn
  Zn63     1.0000 0.73691  0.96966  0.45024  Biso   1.000  Zn
  Zn64     1.0000 0.75655  0.01533  0.53986  Biso   1.000  Zn
  C481     1.0000 0.58000  0.84180  0.54380  Biso   1.000  C
  C482     1.0000 0.57120  0.84980  0.58770  Biso   1.000  C
  H181     1.0000 0.54780  0.83040  0.60340  Biso   1.000  H
  C483     1.0000 0.59590  0.88530  0.60860  Biso   1.000  C
  C484     1.0000 0.63000  0.91420  0.58690  Biso   1.000  C
  H182     1.0000 0.64720  0.93870  0.60240  Biso   1.000  H
  C485     1.0000 0.63940  0.90740  0.54150  Biso   1.000  C
  C486     1.0000 0.61310  0.87010  0.52040  Biso   1.000  C
  H183     1.0000 0.61840  0.86460  0.48980  Biso   1.000  H
  C487     1.0000 0.55320  0.80230  0.52280  Biso   1.000  C
  C488     1.0000 0.67710  0.93670  0.51830  Biso   1.000  C
  C489     1.0000 0.59100  0.92930  0.71460  Biso   1.000  C
  C490     1.0000 0.55650  0.90140  0.73640  Biso   1.000  C
  H184     1.0000 0.53960  0.87640  0.72190  Biso   1.000  H
  C491     1.0000 0.54620  0.91010  0.78110  Biso   1.000  C
  C492     1.0000 0.57120  0.94610  0.80070  Biso   1.000  C
  H185     1.0000 0.56520  0.95160  0.83100  Biso   1.000  H
  C493     1.0000 0.60560  0.97560  0.77780  Biso   1.000  C
  C494     1.0000 0.61530  0.96640  0.73540  Biso   1.000  C
  H186     1.0000 0.63890  0.98560  0.71980  Biso   1.000  H
  C495     1.0000 0.50910  0.87990  0.80330  Biso   1.000  C
  C496     1.0000 0.63220  0.01610  0.79880  Biso   1.000  C
  C497     1.0000 0.78260  0.91950  0.55130  Biso   1.000  C
  C498     1.0000 0.80010  0.92760  0.59300  Biso   1.000  C
  H187     1.0000 0.80620  0.95200  0.60780  Biso   1.000  H
  C499     1.0000 0.80980  0.90140  0.61610  Biso   1.000  C
  C500     1.0000 0.79780  0.86440  0.59810  Biso   1.000  C
  H188     1.0000 0.79970  0.84450  0.61560  Biso   1.000  H
  C501     1.0000 0.78200  0.85660  0.55220  Biso   1.000  C
  C502     1.0000 0.77490  0.88350  0.52890  Biso   1.000  C
  H189     1.0000 0.76480  0.87800  0.49790  Biso   1.000  H
  C503     1.0000 0.77290  0.94740  0.52840  Biso   1.000  C
  C504     1.0000 0.77200  0.81730  0.53090  Biso   1.000  C
  C505     1.0000 0.87340  0.98340  0.74280  Biso   1.000  C
  H190     1.0000 0.87200  0.00420  0.72660  Biso   1.000  H
  C506     1.0000 0.89150  0.99090  0.78600  Biso   1.000  C
  C507     1.0000 0.89360  0.95910  0.80960  Biso   1.000  C
  H191     1.0000 0.90540  0.96350  0.83970  Biso   1.000  H
  C508     1.0000 0.87910  0.92370  0.78920  Biso   1.000  C
  C509     1.0000 0.86140  0.91500  0.74540  Biso   1.000  C
  H192     1.0000 0.85250  0.88970  0.73110  Biso   1.000  H
  C510     1.0000 0.85690  0.94520  0.72290  Biso   1.000  C
  C511     1.0000 0.90940  0.03170  0.80510  Biso   1.000  C
  C512     1.0000 0.88340  0.88880  0.81250  Biso   1.000  C
  N61      1.0000 0.58280  0.89090  0.65460  Biso   1.000  N
  N62      1.0000 0.60450  0.92500  0.67110  Biso   1.000  N
  N63      1.0000 0.82760  0.90790  0.66050  Biso   1.000  N
  N64      1.0000 0.84030  0.94120  0.67940  Biso   1.000  N
  O241     1.0000 0.52594  0.77624  0.54780  Biso   1.000  O
  O242     1.0000 0.56048  0.79418  0.48140  Biso   1.000  O
  O243     1.0000 0.70003  0.96583  0.54340  Biso   1.000  O
  O244     1.0000 0.68292  0.93062  0.47687  Biso   1.000  O
  O245     1.0000 0.48496  0.85124  0.77863  Biso   1.000  O
  O246     1.0000 0.50224  0.88721  0.84360  Biso   1.000  O
  O247     1.0000 0.62171  0.02151  0.83990  Biso   1.000  O
  O248     1.0000 0.65658  0.04045  0.77430  Biso   1.000  O
  O249     1.0000 0.77528  0.97697  0.55254  Biso   1.000  O
  O250     1.0000 0.75741  0.93818  0.48750  Biso   1.000  O
  O251     1.0000 0.75662  0.81000  0.49030  Biso   1.000  O
  O252     1.0000 0.77846  0.79516  0.55430  Biso   1.000  O
  O253     1.0000 0.90978  0.05776  0.78070  Biso   1.000  O
  O254     1.0000 0.92274  0.03725  0.84730  Biso   1.000  O
  O255     1.0000 0.89629  0.89609  0.85270  Biso   1.000  O
  O256     1.0000 0.87397  0.85982  0.78690  Biso   1.000  O
  Zn65     1.0000 0.14406  0.05277  0.87996  Biso   1.000  Zn
  Zn66     1.0000 0.18832  0.07198  0.78941  Biso   1.000  Zn
  Zn67     1.0000 0.40358  0.30299  0.78357  Biso   1.000  Zn
  Zn68     1.0000 0.42322  0.34866  0.87319  Biso   1.000  Zn
  C513     1.0000 0.24667  0.17513  0.87713  Biso   1.000  C
  C514     1.0000 0.23787  0.18313  0.92103  Biso   1.000  C
  H193     1.0000 0.21447  0.16373  0.93673  Biso   1.000  H
  C515     1.0000 0.26257  0.21863  0.94193  Biso   1.000  C
  C516     1.0000 0.29667  0.24753  0.92023  Biso   1.000  C
  H194     1.0000 0.31387  0.27203  0.93573  Biso   1.000  H
  C517     1.0000 0.30607  0.24073  0.87483  Biso   1.000  C
  C518     1.0000 0.27977  0.20343  0.85373  Biso   1.000  C
  H195     1.0000 0.28507  0.19793  0.82313  Biso   1.000  H
  C519     1.0000 0.21987  0.13563  0.85613  Biso   1.000  C
  C520     1.0000 0.34377  0.27003  0.85163  Biso   1.000  C
  C521     1.0000 0.25767  0.26263  0.04793  Biso   1.000  C
  C522     1.0000 0.22317  0.23473  0.06973  Biso   1.000  C
  H196     1.0000 0.20627  0.20973  0.05523  Biso   1.000  H
  C523     1.0000 0.21287  0.24343  0.11443  Biso   1.000  C
  C524     1.0000 0.23787  0.27943  0.13403  Biso   1.000  C
  H197     1.0000 0.23187  0.28493  0.16433  Biso   1.000  H
  C525     1.0000 0.27227  0.30893  0.11113  Biso   1.000  C
  C526     1.0000 0.28197  0.29973  0.06873  Biso   1.000  C
  H198     1.0000 0.30557  0.31893  0.05313  Biso   1.000  H
  C527     1.0000 0.17577  0.21323  0.13663  Biso   1.000  C
  C528     1.0000 0.29887  0.34943  0.13213  Biso   1.000  C
  C529     1.0000 0.44927  0.25283  0.88463  Biso   1.000  C
  C530     1.0000 0.46677  0.26093  0.92633  Biso   1.000  C
  H199     1.0000 0.47287  0.28533  0.94113  Biso   1.000  H
  C531     1.0000 0.47647  0.23473  0.94943  Biso   1.000  C
  C532     1.0000 0.46447  0.19773  0.93143  Biso   1.000  C
  H200     1.0000 0.46637  0.17783  0.94893  Biso   1.000  H
  C533     1.0000 0.44867  0.18993  0.88553  Biso   1.000  C
  C534     1.0000 0.44157  0.21683  0.86223  Biso   1.000  C
  H201     1.0000 0.43147  0.21133  0.83123  Biso   1.000  H
  C535     1.0000 0.43957  0.28073  0.86173  Biso   1.000  C
  C536     1.0000 0.43867  0.15063  0.86423  Biso   1.000  C
  C537     1.0000 0.54007  0.31673  0.07613  Biso   1.000  C
  H202     1.0000 0.53867  0.33753  0.05993  Biso   1.000  H
  C538     1.0000 0.55817  0.32423  0.11933  Biso   1.000  C
  C539     1.0000 0.56027  0.29243  0.14293  Biso   1.000  C
  H203     1.0000 0.57207  0.29683  0.17303  Biso   1.000  H
  C540     1.0000 0.54577  0.25703  0.12253  Biso   1.000  C
  C541     1.0000 0.52807  0.24833  0.07873  Biso   1.000  C
  H204     1.0000 0.51917  0.22303  0.06443  Biso   1.000  H
  C542     1.0000 0.52357  0.27853  0.05623  Biso   1.000  C
  C543     1.0000 0.57607  0.36503  0.13843  Biso   1.000  C
  C544     1.0000 0.55007  0.22213  0.14583  Biso   1.000  C
  N65      1.0000 0.24947  0.22423  0.98793  Biso   1.000  N
  N66      1.0000 0.27117  0.25833  0.00443  Biso   1.000  N
  N67      1.0000 0.49427  0.24123  0.99383  Biso   1.000  N
  N68      1.0000 0.50697  0.27453  0.01273  Biso   1.000  N
  O257     1.0000 0.19261  0.10957  0.88113  Biso   1.000  O
  O258     1.0000 0.22715  0.12751  0.81473  Biso   1.000  O
  O259     1.0000 0.36670  0.29916  0.87673  Biso   1.000  O
  O260     1.0000 0.34959  0.26395  0.81020  Biso   1.000  O
  O261     1.0000 0.15163  0.18457  0.11196  Biso   1.000  O
  O262     1.0000 0.16891  0.22054  0.17693  Biso   1.000  O
  O263     1.0000 0.28838  0.35484  0.17323  Biso   1.000  O
  O264     1.0000 0.32325  0.37378  0.10763  Biso   1.000  O
  O265     1.0000 0.44195  0.31030  0.88587  Biso   1.000  O
  O266     1.0000 0.42408  0.27151  0.82083  Biso   1.000  O
  O267     1.0000 0.42329  0.14333  0.82363  Biso   1.000  O
  O268     1.0000 0.44513  0.12849  0.88763  Biso   1.000  O
  O269     1.0000 0.57645  0.39109  0.11403  Biso   1.000  O
  O270     1.0000 0.58941  0.37058  0.18063  Biso   1.000  O
  O271     1.0000 0.56296  0.22942  0.18603  Biso   1.000  O
  O272     1.0000 0.54064  0.19315  0.12023  Biso   1.000  O
  Zn69     1.0000 0.81072  0.38611  0.21330  Biso   1.000  Zn
  Zn70     1.0000 0.85498  0.40532  0.12275  Biso   1.000  Zn
  Zn71     1.0000 0.07024  0.63633  0.11691  Biso   1.000  Zn
  Zn72     1.0000 0.08988  0.68200  0.20653  Biso   1.000  Zn
  C545     1.0000 0.91333  0.50847  0.21047  Biso   1.000  C
  C546     1.0000 0.90453  0.51647  0.25437  Biso   1.000  C
  H205     1.0000 0.88113  0.49707  0.27007  Biso   1.000  H
  C547     1.0000 0.92923  0.55197  0.27527  Biso   1.000  C
  C548     1.0000 0.96333  0.58087  0.25357  Biso   1.000  C
  H206     1.0000 0.98053  0.60537  0.26907  Biso   1.000  H
  C549     1.0000 0.97273  0.57407  0.20817  Biso   1.000  C
  C550     1.0000 0.94643  0.53677  0.18707  Biso   1.000  C
  H207     1.0000 0.95173  0.53127  0.15647  Biso   1.000  H
  C551     1.0000 0.88653  0.46897  0.18947  Biso   1.000  C
  C552     1.0000 0.01043  0.60337  0.18497  Biso   1.000  C
  C553     1.0000 0.92433  0.59597  0.38127  Biso   1.000  C
  C554     1.0000 0.88983  0.56807  0.40307  Biso   1.000  C
  H208     1.0000 0.87293  0.54307  0.38857  Biso   1.000  H
  C555     1.0000 0.87953  0.57677  0.44777  Biso   1.000  C
  C556     1.0000 0.90453  0.61277  0.46737  Biso   1.000  C
  H209     1.0000 0.89853  0.61827  0.49767  Biso   1.000  H
  C557     1.0000 0.93893  0.64227  0.44447  Biso   1.000  C
  C558     1.0000 0.94863  0.63307  0.40207  Biso   1.000  C
  H210     1.0000 0.97223  0.65227  0.38647  Biso   1.000  H
  C559     1.0000 0.84243  0.54657  0.46997  Biso   1.000  C
  C560     1.0000 0.96553  0.68277  0.46547  Biso   1.000  C
  C561     1.0000 0.11593  0.58617  0.21797  Biso   1.000  C
  C562     1.0000 0.13343  0.59427  0.25967  Biso   1.000  C
  H211     1.0000 0.13953  0.61867  0.27447  Biso   1.000  H
  C563     1.0000 0.14313  0.56807  0.28277  Biso   1.000  C
  C564     1.0000 0.13113  0.53107  0.26477  Biso   1.000  C
  H212     1.0000 0.13303  0.51117  0.28227  Biso   1.000  H
  C565     1.0000 0.11533  0.52327  0.21887  Biso   1.000  C
  C566     1.0000 0.10823  0.55017  0.19557  Biso   1.000  C
  H213     1.0000 0.09813  0.54467  0.16457  Biso   1.000  H
  C567     1.0000 0.10623  0.61407  0.19507  Biso   1.000  C
  C568     1.0000 0.10533  0.48397  0.19757  Biso   1.000  C
  C569     1.0000 0.20673  0.65007  0.40947  Biso   1.000  C
  H214     1.0000 0.20533  0.67087  0.39327  Biso   1.000  H
  C570     1.0000 0.22483  0.65757  0.45267  Biso   1.000  C
  C571     1.0000 0.22693  0.62577  0.47627  Biso   1.000  C
  H215     1.0000 0.23873  0.63017  0.50637  Biso   1.000  H
  C572     1.0000 0.21243  0.59037  0.45587  Biso   1.000  C
  C573     1.0000 0.19473  0.58167  0.41207  Biso   1.000  C
  H216     1.0000 0.18583  0.55637  0.39777  Biso   1.000  H
  C574     1.0000 0.19023  0.61187  0.38957  Biso   1.000  C
  C575     1.0000 0.24273  0.69837  0.47177  Biso   1.000  C
  C576     1.0000 0.21673  0.55547  0.47917  Biso   1.000  C
  N69      1.0000 0.91613  0.55757  0.32127  Biso   1.000  N
  N70      1.0000 0.93783  0.59167  0.33777  Biso   1.000  N
  N71      1.0000 0.16093  0.57457  0.32717  Biso   1.000  N
  N72      1.0000 0.17363  0.60787  0.34607  Biso   1.000  N
  O273     1.0000 0.85927  0.44291  0.21447  Biso   1.000  O
  O274     1.0000 0.89381  0.46085  0.14807  Biso   1.000  O
  O275     1.0000 0.03336  0.63250  0.21007  Biso   1.000  O
  O276     1.0000 0.01625  0.59729  0.14354  Biso   1.000  O
  O277     1.0000 0.81829  0.51791  0.44530  Biso   1.000  O
  O278     1.0000 0.83557  0.55388  0.51027  Biso   1.000  O
  O279     1.0000 0.95504  0.68818  0.50657  Biso   1.000  O
  O280     1.0000 0.98991  0.70712  0.44097  Biso   1.000  O
  O281     1.0000 0.10861  0.64364  0.21921  Biso   1.000  O
  O282     1.0000 0.09074  0.60485  0.15417  Biso   1.000  O
  O283     1.0000 0.08995  0.47667  0.15697  Biso   1.000  O
  O284     1.0000 0.11179  0.46183  0.22097  Biso   1.000  O
  O285     1.0000 0.24311  0.72443  0.44737  Biso   1.000  O
  O286     1.0000 0.25607  0.70392  0.51397  Biso   1.000  O
  O287     1.0000 0.22962  0.56276  0.51937  Biso   1.000  O
  O288     1.0000 0.20730  0.52649  0.45357  Biso   1.000  O
