data_image0
_cell_length_a       27.514
_cell_length_b       14.252
_cell_length_c       24.004
_cell_angle_alpha    90
_cell_angle_beta     113.521
_cell_angle_gamma    90

_symmetry_space_group_name_H-M    "P 1"
_symmetry_int_tables_number       1

loop_
  _symmetry_equiv_pos_as_xyz
  'x, y, z'

loop_
  _atom_site_label
  _atom_site_occupancy
  _atom_site_fract_x
  _atom_site_fract_y
  _atom_site_fract_z
  _atom_site_thermal_displace_type
  _atom_site_B_iso_or_equiv
  _atom_site_type_symbol
  Ag1      1.0000 0.25069  0.78135  0.21921  Biso   1.000  Ag
  P1       1.0000 0.25191  0.62858  0.17324  Biso   1.000  P
  P2       1.0000 0.24666  0.93949  0.17801  Biso   1.000  P
  N1       1.0000 0.33864  0.79160  0.29690  Biso   1.000  N
  N2       1.0000 0.42139  0.83690  0.34190  Biso   1.000  N
  N3       1.0000 0.16426  0.80080  0.34130  Biso   1.000  N
  N4       1.0000 0.19511  0.76980  0.27181  Biso   1.000  N
  C1       1.0000 0.27390  0.53600  0.23120  Biso   1.000  C
  H1       1.0000 0.27250  0.47560  0.21190  Biso   1.000  H
  H2       1.0000 0.31030  0.54750  0.25910  Biso   1.000  H
  C2       1.0000 0.26200  0.03500  0.23420  Biso   1.000  C
  H3       1.0000 0.29850  0.02870  0.26300  Biso   1.000  H
  H4       1.0000 0.25870  0.09450  0.21340  Biso   1.000  H
  C3       1.0000 0.18990  0.58620  0.11780  Biso   1.000  C
  C4       1.0000 0.14990  0.64880  0.08950  Biso   1.000  C
  H5       1.0000 0.15570  0.71220  0.09920  Biso   1.000  H
  C5       1.0000 0.10130  0.62050  0.04690  Biso   1.000  C
  H6       1.0000 0.07450  0.66380  0.02780  Biso   1.000  H
  C6       1.0000 0.09330  0.52400  0.03300  Biso   1.000  C
  H7       1.0000 0.06070  0.50290  0.00510  Biso   1.000  H
  C7       1.0000 0.13160  0.46430  0.05940  Biso   1.000  C
  H8       1.0000 0.12650  0.40100  0.04920  Biso   1.000  H
  C8       1.0000 0.17870  0.49400  0.10170  Biso   1.000  C
  H9       1.0000 0.20470  0.44940  0.12070  Biso   1.000  H
  C9       1.0000 0.29750  0.61800  0.13590  Biso   1.000  C
  C10      1.0000 0.28120  0.60850  0.07450  Biso   1.000  C
  H10      1.0000 0.24520  0.60280  0.05020  Biso   1.000  H
  C11      1.0000 0.31740  0.60730  0.04790  Biso   1.000  C
  H11      1.0000 0.30560  0.60100  0.00600  Biso   1.000  H
  C12      1.0000 0.37020  0.61510  0.08260  Biso   1.000  C
  H12      1.0000 0.39440  0.61360  0.06450  Biso   1.000  H
  C13      1.0000 0.38740  0.62510  0.14350  Biso   1.000  C
  H13      1.0000 0.42330  0.63010  0.16780  Biso   1.000  H
  C14      1.0000 0.35010  0.62770  0.16870  Biso   1.000  C
  H14      1.0000 0.36190  0.63650  0.21050  Biso   1.000  H
  C15      1.0000 0.18570  0.97700  0.11770  Biso   1.000  C
  C16      1.0000 0.13950  0.93010  0.10890  Biso   1.000  C
  H15      1.0000 0.14040  0.88040  0.13440  Biso   1.000  H
  C17      1.0000 0.09110  0.95560  0.06240  Biso   1.000  C
  H16      1.0000 0.06040  0.92200  0.05620  Biso   1.000  H
  C18      1.0000 0.08980  0.03020  0.02660  Biso   1.000  C
  H17      1.0000 0.05760  0.04880  0.99660  Biso   1.000  H
  C19      1.0000 0.13460  0.07810  0.03400  Biso   1.000  C
  H18      1.0000 0.13290  0.12920  0.00910  Biso   1.000  H
  C20      1.0000 0.18330  0.05070  0.07880  Biso   1.000  C
  H19      1.0000 0.21410  0.08200  0.08260  Biso   1.000  H
  C21      1.0000 0.29630  0.95410  0.14700  Biso   1.000  C
  C22      1.0000 0.33310  0.02790  0.16210  Biso   1.000  C
  H20      1.0000 0.33080  0.07590  0.18710  Biso   1.000  H
  C23      1.0000 0.37250  0.03040  0.14060  Biso   1.000  C
  H21      1.0000 0.39710  0.07910  0.15230  Biso   1.000  H
  C24      1.0000 0.37620  0.96280  0.10240  Biso   1.000  C
  H22      1.0000 0.40270  0.96550  0.08760  Biso   1.000  H
  C25      1.0000 0.33920  0.88840  0.08560  Biso   1.000  C
  H23      1.0000 0.34110  0.84190  0.05940  Biso   1.000  H
  C26      1.0000 0.30030  0.88470  0.10810  Biso   1.000  C
  H24      1.0000 0.27630  0.83510  0.09710  Biso   1.000  H
  C27      1.0000 0.37580  0.84650  0.29420  Biso   1.000  C
  H25      1.0000 0.37080  0.88760  0.26230  Biso   1.000  H
  C28      1.0000 0.36290  0.74690  0.35060  Biso   1.000  C
  H26      1.0000 0.34670  0.70320  0.36640  Biso   1.000  H
  C29      1.0000 0.41350  0.77410  0.37800  Biso   1.000  C
  H27      1.0000 0.43820  0.75290  0.41510  Biso   1.000  H
  C30      1.0000 0.46960  0.88870  0.35390  Biso   1.000  C
  H28      1.0000 0.49810  0.86120  0.38860  Biso   1.000  H
  H29      1.0000 0.46490  0.95290  0.36420  Biso   1.000  H
  C31      1.0000 0.48530  0.88880  0.29950  Biso   1.000  C
  C32      1.0000 0.49260  0.80740  0.27300  Biso   1.000  C
  H30      1.0000 0.48690  0.75020  0.28810  Biso   1.000  H
  C33      1.0000 0.49170  0.97040  0.27410  Biso   1.000  C
  H31      1.0000 0.48510  0.02710  0.28890  Biso   1.000  H
  C34      1.0000 0.20500  0.69830  0.47010  Biso   1.000  C
  H32      1.0000 0.17460  0.66310  0.45000  Biso   1.000  H
  C35      1.0000 0.25300  0.84080  0.48270  Biso   1.000  C
  H33      1.0000 0.25520  0.90240  0.47120  Biso   1.000  H
  C36      1.0000 0.20770  0.78980  0.45230  Biso   1.000  C
  C37      1.0000 0.16250  0.83320  0.39930  Biso   1.000  C
  H34      1.0000 0.12900  0.81540  0.40060  Biso   1.000  H
  H35      1.0000 0.16530  0.90110  0.40180  Biso   1.000  H
  C38      1.0000 0.20760  0.79360  0.32900  Biso   1.000  C
  H36      1.0000 0.24200  0.80420  0.35710  Biso   1.000  H
  C39      1.0000 0.12190  0.77850  0.28860  Biso   1.000  C
  H37      1.0000 0.08650  0.77650  0.28310  Biso   1.000  H
  C40      1.0000 0.14100  0.76050  0.24680  Biso   1.000  C
  H38      1.0000 0.12070  0.74410  0.20670  Biso   1.000  H
  Ag2      1.0000 0.75069  0.28135  0.21921  Biso   1.000  Ag
  P3       1.0000 0.75191  0.12858  0.17324  Biso   1.000  P
  P4       1.0000 0.74666  0.43949  0.17801  Biso   1.000  P
  N5       1.0000 0.83864  0.29160  0.29690  Biso   1.000  N
  N6       1.0000 0.92139  0.33690  0.34190  Biso   1.000  N
  N7       1.0000 0.66426  0.30080  0.34130  Biso   1.000  N
  N8       1.0000 0.69511  0.26980  0.27181  Biso   1.000  N
  C41      1.0000 0.77390  0.03600  0.23120  Biso   1.000  C
  H39      1.0000 0.77250  0.97560  0.21190  Biso   1.000  H
  H40      1.0000 0.81030  0.04750  0.25910  Biso   1.000  H
  C42      1.0000 0.76200  0.53500  0.23420  Biso   1.000  C
  H41      1.0000 0.79850  0.52870  0.26300  Biso   1.000  H
  H42      1.0000 0.75870  0.59450  0.21340  Biso   1.000  H
  C43      1.0000 0.68990  0.08620  0.11780  Biso   1.000  C
  C44      1.0000 0.64990  0.14880  0.08950  Biso   1.000  C
  H43      1.0000 0.65570  0.21220  0.09920  Biso   1.000  H
  C45      1.0000 0.60130  0.12050  0.04690  Biso   1.000  C
  H44      1.0000 0.57450  0.16380  0.02780  Biso   1.000  H
  C46      1.0000 0.59330  0.02400  0.03300  Biso   1.000  C
  H45      1.0000 0.56070  0.00290  0.00510  Biso   1.000  H
  C47      1.0000 0.63160  0.96430  0.05940  Biso   1.000  C
  H46      1.0000 0.62650  0.90100  0.04920  Biso   1.000  H
  C48      1.0000 0.67870  0.99400  0.10170  Biso   1.000  C
  H47      1.0000 0.70470  0.94940  0.12070  Biso   1.000  H
  C49      1.0000 0.79750  0.11800  0.13590  Biso   1.000  C
  C50      1.0000 0.78120  0.10850  0.07450  Biso   1.000  C
  H48      1.0000 0.74520  0.10280  0.05020  Biso   1.000  H
  C51      1.0000 0.81740  0.10730  0.04790  Biso   1.000  C
  H49      1.0000 0.80560  0.10100  0.00600  Biso   1.000  H
  C52      1.0000 0.87020  0.11510  0.08260  Biso   1.000  C
  H50      1.0000 0.89440  0.11360  0.06450  Biso   1.000  H
  C53      1.0000 0.88740  0.12510  0.14350  Biso   1.000  C
  H51      1.0000 0.92330  0.13010  0.16780  Biso   1.000  H
  C54      1.0000 0.85010  0.12770  0.16870  Biso   1.000  C
  H52      1.0000 0.86190  0.13650  0.21050  Biso   1.000  H
  C55      1.0000 0.68570  0.47700  0.11770  Biso   1.000  C
  C56      1.0000 0.63950  0.43010  0.10890  Biso   1.000  C
  H53      1.0000 0.64040  0.38040  0.13440  Biso   1.000  H
  C57      1.0000 0.59110  0.45560  0.06240  Biso   1.000  C
  H54      1.0000 0.56040  0.42200  0.05620  Biso   1.000  H
  C58      1.0000 0.58980  0.53020  0.02660  Biso   1.000  C
  H55      1.0000 0.55760  0.54880  0.99660  Biso   1.000  H
  C59      1.0000 0.63460  0.57810  0.03400  Biso   1.000  C
  H56      1.0000 0.63290  0.62920  0.00910  Biso   1.000  H
  C60      1.0000 0.68330  0.55070  0.07880  Biso   1.000  C
  H57      1.0000 0.71410  0.58200  0.08260  Biso   1.000  H
  C61      1.0000 0.79630  0.45410  0.14700  Biso   1.000  C
  C62      1.0000 0.83310  0.52790  0.16210  Biso   1.000  C
  H58      1.0000 0.83080  0.57590  0.18710  Biso   1.000  H
  C63      1.0000 0.87250  0.53040  0.14060  Biso   1.000  C
  H59      1.0000 0.89710  0.57910  0.15230  Biso   1.000  H
  C64      1.0000 0.87620  0.46280  0.10240  Biso   1.000  C
  H60      1.0000 0.90270  0.46550  0.08760  Biso   1.000  H
  C65      1.0000 0.83920  0.38840  0.08560  Biso   1.000  C
  H61      1.0000 0.84110  0.34190  0.05940  Biso   1.000  H
  C66      1.0000 0.80030  0.38470  0.10810  Biso   1.000  C
  H62      1.0000 0.77630  0.33510  0.09710  Biso   1.000  H
  C67      1.0000 0.87580  0.34650  0.29420  Biso   1.000  C
  H63      1.0000 0.87080  0.38760  0.26230  Biso   1.000  H
  C68      1.0000 0.86290  0.24690  0.35060  Biso   1.000  C
  H64      1.0000 0.84670  0.20320  0.36640  Biso   1.000  H
  C69      1.0000 0.91350  0.27410  0.37800  Biso   1.000  C
  H65      1.0000 0.93820  0.25290  0.41510  Biso   1.000  H
  C70      1.0000 0.96960  0.38870  0.35390  Biso   1.000  C
  H66      1.0000 0.99810  0.36120  0.38860  Biso   1.000  H
  H67      1.0000 0.96490  0.45290  0.36420  Biso   1.000  H
  C71      1.0000 0.98530  0.38880  0.29950  Biso   1.000  C
  C72      1.0000 0.99260  0.30740  0.27300  Biso   1.000  C
  H68      1.0000 0.98690  0.25020  0.28810  Biso   1.000  H
  C73      1.0000 0.99170  0.47040  0.27410  Biso   1.000  C
  H69      1.0000 0.98510  0.52710  0.28890  Biso   1.000  H
  C74      1.0000 0.70500  0.19830  0.47010  Biso   1.000  C
  H70      1.0000 0.67460  0.16310  0.45000  Biso   1.000  H
  C75      1.0000 0.75300  0.34080  0.48270  Biso   1.000  C
  H71      1.0000 0.75520  0.40240  0.47120  Biso   1.000  H
  C76      1.0000 0.70770  0.28980  0.45230  Biso   1.000  C
  C77      1.0000 0.66250  0.33320  0.39930  Biso   1.000  C
  H72      1.0000 0.62900  0.31540  0.40060  Biso   1.000  H
  H73      1.0000 0.66530  0.40110  0.40180  Biso   1.000  H
  C78      1.0000 0.70760  0.29360  0.32900  Biso   1.000  C
  H74      1.0000 0.74200  0.30420  0.35710  Biso   1.000  H
  C79      1.0000 0.62190  0.27850  0.28860  Biso   1.000  C
  H75      1.0000 0.58650  0.27650  0.28310  Biso   1.000  H
  C80      1.0000 0.64100  0.26050  0.24680  Biso   1.000  C
  H76      1.0000 0.62070  0.24410  0.20670  Biso   1.000  H
  Ag3      1.0000 0.74930  0.78135  0.28079  Biso   1.000  Ag
  P5       1.0000 0.74809  0.62858  0.32676  Biso   1.000  P
  P6       1.0000 0.75334  0.93949  0.32199  Biso   1.000  P
  N9       1.0000 0.66136  0.79160  0.20310  Biso   1.000  N
  N10      1.0000 0.57861  0.83690  0.15810  Biso   1.000  N
  N11      1.0000 0.83574  0.80080  0.15870  Biso   1.000  N
  N12      1.0000 0.80489  0.76980  0.22819  Biso   1.000  N
  C81      1.0000 0.72610  0.53600  0.26880  Biso   1.000  C
  H77      1.0000 0.72750  0.47560  0.28810  Biso   1.000  H
  H78      1.0000 0.68970  0.54750  0.24090  Biso   1.000  H
  C82      1.0000 0.73800  0.03500  0.26580  Biso   1.000  C
  H79      1.0000 0.70150  0.02870  0.23700  Biso   1.000  H
  H80      1.0000 0.74130  0.09450  0.28660  Biso   1.000  H
  C83      1.0000 0.81010  0.58620  0.38220  Biso   1.000  C
  C84      1.0000 0.85010  0.64880  0.41050  Biso   1.000  C
  H81      1.0000 0.84430  0.71220  0.40080  Biso   1.000  H
  C85      1.0000 0.89870  0.62050  0.45310  Biso   1.000  C
  H82      1.0000 0.92550  0.66380  0.47220  Biso   1.000  H
  C86      1.0000 0.90670  0.52400  0.46700  Biso   1.000  C
  H83      1.0000 0.93930  0.50290  0.49490  Biso   1.000  H
  C87      1.0000 0.86840  0.46430  0.44060  Biso   1.000  C
  H84      1.0000 0.87350  0.40100  0.45080  Biso   1.000  H
  C88      1.0000 0.82130  0.49400  0.39830  Biso   1.000  C
  H85      1.0000 0.79530  0.44940  0.37930  Biso   1.000  H
  C89      1.0000 0.70250  0.61800  0.36410  Biso   1.000  C
  C90      1.0000 0.71880  0.60850  0.42550  Biso   1.000  C
  H86      1.0000 0.75480  0.60280  0.44980  Biso   1.000  H
  C91      1.0000 0.68260  0.60730  0.45210  Biso   1.000  C
  H87      1.0000 0.69440  0.60100  0.49400  Biso   1.000  H
  C92      1.0000 0.62980  0.61510  0.41740  Biso   1.000  C
  H88      1.0000 0.60560  0.61360  0.43550  Biso   1.000  H
  C93      1.0000 0.61260  0.62510  0.35650  Biso   1.000  C
  H89      1.0000 0.57670  0.63010  0.33220  Biso   1.000  H
  C94      1.0000 0.64990  0.62770  0.33130  Biso   1.000  C
  H90      1.0000 0.63810  0.63650  0.28950  Biso   1.000  H
  C95      1.0000 0.81430  0.97700  0.38230  Biso   1.000  C
  C96      1.0000 0.86050  0.93010  0.39110  Biso   1.000  C
  H91      1.0000 0.85960  0.88040  0.36560  Biso   1.000  H
  C97      1.0000 0.90890  0.95560  0.43760  Biso   1.000  C
  H92      1.0000 0.93960  0.92200  0.44380  Biso   1.000  H
  C98      1.0000 0.91020  0.03020  0.47340  Biso   1.000  C
  H93      1.0000 0.94240  0.04880  0.50340  Biso   1.000  H
  C99      1.0000 0.86540  0.07810  0.46600  Biso   1.000  C
  H94      1.0000 0.86710  0.12920  0.49090  Biso   1.000  H
  C100     1.0000 0.81670  0.05070  0.42120  Biso   1.000  C
  H95      1.0000 0.78590  0.08200  0.41740  Biso   1.000  H
  C101     1.0000 0.70370  0.95410  0.35300  Biso   1.000  C
  C102     1.0000 0.66690  0.02790  0.33790  Biso   1.000  C
  H96      1.0000 0.66920  0.07590  0.31290  Biso   1.000  H
  C103     1.0000 0.62750  0.03040  0.35940  Biso   1.000  C
  H97      1.0000 0.60290  0.07910  0.34770  Biso   1.000  H
  C104     1.0000 0.62380  0.96280  0.39760  Biso   1.000  C
  H98      1.0000 0.59730  0.96550  0.41240  Biso   1.000  H
  C105     1.0000 0.66080  0.88840  0.41440  Biso   1.000  C
  H99      1.0000 0.65890  0.84190  0.44060  Biso   1.000  H
  C106     1.0000 0.69970  0.88470  0.39190  Biso   1.000  C
  H100     1.0000 0.72370  0.83510  0.40290  Biso   1.000  H
  C107     1.0000 0.62420  0.84650  0.20580  Biso   1.000  C
  H101     1.0000 0.62920  0.88760  0.23770  Biso   1.000  H
  C108     1.0000 0.63710  0.74690  0.14940  Biso   1.000  C
  H102     1.0000 0.65330  0.70320  0.13360  Biso   1.000  H
  C109     1.0000 0.58650  0.77410  0.12200  Biso   1.000  C
  H103     1.0000 0.56180  0.75290  0.08490  Biso   1.000  H
  C110     1.0000 0.53040  0.88870  0.14610  Biso   1.000  C
  H104     1.0000 0.50190  0.86120  0.11140  Biso   1.000  H
  H105     1.0000 0.53510  0.95290  0.13580  Biso   1.000  H
  C111     1.0000 0.51470  0.88880  0.20050  Biso   1.000  C
  C112     1.0000 0.50740  0.80740  0.22700  Biso   1.000  C
  H106     1.0000 0.51310  0.75020  0.21190  Biso   1.000  H
  C113     1.0000 0.50830  0.97040  0.22590  Biso   1.000  C
  H107     1.0000 0.51490  0.02710  0.21110  Biso   1.000  H
  C114     1.0000 0.79500  0.69830  0.02990  Biso   1.000  C
  H108     1.0000 0.82540  0.66310  0.05000  Biso   1.000  H
  C115     1.0000 0.74700  0.84080  0.01730  Biso   1.000  C
  H109     1.0000 0.74480  0.90240  0.02880  Biso   1.000  H
  C116     1.0000 0.79230  0.78980  0.04770  Biso   1.000  C
  C117     1.0000 0.83750  0.83320  0.10070  Biso   1.000  C
  H110     1.0000 0.87100  0.81540  0.09940  Biso   1.000  H
  H111     1.0000 0.83470  0.90110  0.09820  Biso   1.000  H
  C118     1.0000 0.79240  0.79360  0.17100  Biso   1.000  C
  H112     1.0000 0.75800  0.80420  0.14290  Biso   1.000  H
  C119     1.0000 0.87810  0.77850  0.21140  Biso   1.000  C
  H113     1.0000 0.91350  0.77650  0.21690  Biso   1.000  H
  C120     1.0000 0.85900  0.76050  0.25320  Biso   1.000  C
  H114     1.0000 0.87930  0.74410  0.29330  Biso   1.000  H
  Ag4      1.0000 0.24930  0.28135  0.28079  Biso   1.000  Ag
  P7       1.0000 0.24809  0.12858  0.32676  Biso   1.000  P
  P8       1.0000 0.25334  0.43949  0.32199  Biso   1.000  P
  N13      1.0000 0.16136  0.29160  0.20310  Biso   1.000  N
  N14      1.0000 0.07861  0.33690  0.15810  Biso   1.000  N
  N15      1.0000 0.33574  0.30080  0.15870  Biso   1.000  N
  N16      1.0000 0.30489  0.26980  0.22819  Biso   1.000  N
  C121     1.0000 0.22610  0.03600  0.26880  Biso   1.000  C
  H115     1.0000 0.22750  0.97560  0.28810  Biso   1.000  H
  H116     1.0000 0.18970  0.04750  0.24090  Biso   1.000  H
  C122     1.0000 0.23800  0.53500  0.26580  Biso   1.000  C
  H117     1.0000 0.20150  0.52870  0.23700  Biso   1.000  H
  H118     1.0000 0.24130  0.59450  0.28660  Biso   1.000  H
  C123     1.0000 0.31010  0.08620  0.38220  Biso   1.000  C
  C124     1.0000 0.35010  0.14880  0.41050  Biso   1.000  C
  H119     1.0000 0.34430  0.21220  0.40080  Biso   1.000  H
  C125     1.0000 0.39870  0.12050  0.45310  Biso   1.000  C
  H120     1.0000 0.42550  0.16380  0.47220  Biso   1.000  H
  C126     1.0000 0.40670  0.02400  0.46700  Biso   1.000  C
  H121     1.0000 0.43930  0.00290  0.49490  Biso   1.000  H
  C127     1.0000 0.36840  0.96430  0.44060  Biso   1.000  C
  H122     1.0000 0.37350  0.90100  0.45080  Biso   1.000  H
  C128     1.0000 0.32130  0.99400  0.39830  Biso   1.000  C
  H123     1.0000 0.29530  0.94940  0.37930  Biso   1.000  H
  C129     1.0000 0.20250  0.11800  0.36410  Biso   1.000  C
  C130     1.0000 0.21880  0.10850  0.42550  Biso   1.000  C
  H124     1.0000 0.25480  0.10280  0.44980  Biso   1.000  H
  C131     1.0000 0.18260  0.10730  0.45210  Biso   1.000  C
  H125     1.0000 0.19440  0.10100  0.49400  Biso   1.000  H
  C132     1.0000 0.12980  0.11510  0.41740  Biso   1.000  C
  H126     1.0000 0.10560  0.11360  0.43550  Biso   1.000  H
  C133     1.0000 0.11260  0.12510  0.35650  Biso   1.000  C
  H127     1.0000 0.07670  0.13010  0.33220  Biso   1.000  H
  C134     1.0000 0.14990  0.12770  0.33130  Biso   1.000  C
  H128     1.0000 0.13810  0.13650  0.28950  Biso   1.000  H
  C135     1.0000 0.31430  0.47700  0.38230  Biso   1.000  C
  C136     1.0000 0.36050  0.43010  0.39110  Biso   1.000  C
  H129     1.0000 0.35960  0.38040  0.36560  Biso   1.000  H
  C137     1.0000 0.40890  0.45560  0.43760  Biso   1.000  C
  H130     1.0000 0.43960  0.42200  0.44380  Biso   1.000  H
  C138     1.0000 0.41020  0.53020  0.47340  Biso   1.000  C
  H131     1.0000 0.44240  0.54880  0.50340  Biso   1.000  H
  C139     1.0000 0.36540  0.57810  0.46600  Biso   1.000  C
  H132     1.0000 0.36710  0.62920  0.49090  Biso   1.000  H
  C140     1.0000 0.31670  0.55070  0.42120  Biso   1.000  C
  H133     1.0000 0.28590  0.58200  0.41740  Biso   1.000  H
  C141     1.0000 0.20370  0.45410  0.35300  Biso   1.000  C
  C142     1.0000 0.16690  0.52790  0.33790  Biso   1.000  C
  H134     1.0000 0.16920  0.57590  0.31290  Biso   1.000  H
  C143     1.0000 0.12750  0.53040  0.35940  Biso   1.000  C
  H135     1.0000 0.10290  0.57910  0.34770  Biso   1.000  H
  C144     1.0000 0.12380  0.46280  0.39760  Biso   1.000  C
  H136     1.0000 0.09730  0.46550  0.41240  Biso   1.000  H
  C145     1.0000 0.16080  0.38840  0.41440  Biso   1.000  C
  H137     1.0000 0.15890  0.34190  0.44060  Biso   1.000  H
  C146     1.0000 0.19970  0.38470  0.39190  Biso   1.000  C
  H138     1.0000 0.22370  0.33510  0.40290  Biso   1.000  H
  C147     1.0000 0.12420  0.34650  0.20580  Biso   1.000  C
  H139     1.0000 0.12920  0.38760  0.23770  Biso   1.000  H
  C148     1.0000 0.13710  0.24690  0.14940  Biso   1.000  C
  H140     1.0000 0.15330  0.20320  0.13360  Biso   1.000  H
  C149     1.0000 0.08650  0.27410  0.12200  Biso   1.000  C
  H141     1.0000 0.06180  0.25290  0.08490  Biso   1.000  H
  C150     1.0000 0.03040  0.38870  0.14610  Biso   1.000  C
  H142     1.0000 0.00190  0.36120  0.11140  Biso   1.000  H
  H143     1.0000 0.03510  0.45290  0.13580  Biso   1.000  H
  C151     1.0000 0.01470  0.38880  0.20050  Biso   1.000  C
  C152     1.0000 0.00740  0.30740  0.22700  Biso   1.000  C
  H144     1.0000 0.01310  0.25020  0.21190  Biso   1.000  H
  C153     1.0000 0.00830  0.47040  0.22590  Biso   1.000  C
  H145     1.0000 0.01490  0.52710  0.21110  Biso   1.000  H
  C154     1.0000 0.29500  0.19830  0.02990  Biso   1.000  C
  H146     1.0000 0.32540  0.16310  0.05000  Biso   1.000  H
  C155     1.0000 0.24700  0.34080  0.01730  Biso   1.000  C
  H147     1.0000 0.24480  0.40240  0.02880  Biso   1.000  H
  C156     1.0000 0.29230  0.28980  0.04770  Biso   1.000  C
  C157     1.0000 0.33750  0.33320  0.10070  Biso   1.000  C
  H148     1.0000 0.37100  0.31540  0.09940  Biso   1.000  H
  H149     1.0000 0.33470  0.40110  0.09820  Biso   1.000  H
  C158     1.0000 0.29240  0.29360  0.17100  Biso   1.000  C
  H150     1.0000 0.25800  0.30420  0.14290  Biso   1.000  H
  C159     1.0000 0.37810  0.27850  0.21140  Biso   1.000  C
  H151     1.0000 0.41350  0.27650  0.21690  Biso   1.000  H
  C160     1.0000 0.35900  0.26050  0.25320  Biso   1.000  C
  H152     1.0000 0.37930  0.24410  0.29330  Biso   1.000  H
  Ag5      1.0000 0.74930  0.21865  0.78079  Biso   1.000  Ag
  P9       1.0000 0.74809  0.37142  0.82676  Biso   1.000  P
  P10      1.0000 0.75334  0.06051  0.82199  Biso   1.000  P
  N17      1.0000 0.66136  0.20840  0.70310  Biso   1.000  N
  N18      1.0000 0.57861  0.16310  0.65810  Biso   1.000  N
  N19      1.0000 0.83574  0.19920  0.65870  Biso   1.000  N
  N20      1.0000 0.80489  0.23020  0.72819  Biso   1.000  N
  C161     1.0000 0.72610  0.46400  0.76880  Biso   1.000  C
  H153     1.0000 0.72750  0.52440  0.78810  Biso   1.000  H
  H154     1.0000 0.68970  0.45250  0.74090  Biso   1.000  H
  C162     1.0000 0.73800  0.96500  0.76580  Biso   1.000  C
  H155     1.0000 0.70150  0.97130  0.73700  Biso   1.000  H
  H156     1.0000 0.74130  0.90550  0.78660  Biso   1.000  H
  C163     1.0000 0.81010  0.41380  0.88220  Biso   1.000  C
  C164     1.0000 0.85010  0.35120  0.91050  Biso   1.000  C
  H157     1.0000 0.84430  0.28780  0.90080  Biso   1.000  H
  C165     1.0000 0.89870  0.37950  0.95310  Biso   1.000  C
  H158     1.0000 0.92550  0.33620  0.97220  Biso   1.000  H
  C166     1.0000 0.90670  0.47600  0.96700  Biso   1.000  C
  H159     1.0000 0.93930  0.49710  0.99490  Biso   1.000  H
  C167     1.0000 0.86840  0.53570  0.94060  Biso   1.000  C
  H160     1.0000 0.87350  0.59900  0.95080  Biso   1.000  H
  C168     1.0000 0.82130  0.50600  0.89830  Biso   1.000  C
  H161     1.0000 0.79530  0.55060  0.87930  Biso   1.000  H
  C169     1.0000 0.70250  0.38200  0.86410  Biso   1.000  C
  C170     1.0000 0.71880  0.39150  0.92550  Biso   1.000  C
  H162     1.0000 0.75480  0.39720  0.94980  Biso   1.000  H
  C171     1.0000 0.68260  0.39270  0.95210  Biso   1.000  C
  H163     1.0000 0.69440  0.39900  0.99400  Biso   1.000  H
  C172     1.0000 0.62980  0.38490  0.91740  Biso   1.000  C
  H164     1.0000 0.60560  0.38640  0.93550  Biso   1.000  H
  C173     1.0000 0.61260  0.37490  0.85650  Biso   1.000  C
  H165     1.0000 0.57670  0.36990  0.83220  Biso   1.000  H
  C174     1.0000 0.64990  0.37230  0.83130  Biso   1.000  C
  H166     1.0000 0.63810  0.36350  0.78950  Biso   1.000  H
  C175     1.0000 0.81430  0.02300  0.88230  Biso   1.000  C
  C176     1.0000 0.86050  0.06990  0.89110  Biso   1.000  C
  H167     1.0000 0.85960  0.11960  0.86560  Biso   1.000  H
  C177     1.0000 0.90890  0.04440  0.93760  Biso   1.000  C
  H168     1.0000 0.93960  0.07800  0.94380  Biso   1.000  H
  C178     1.0000 0.91020  0.96980  0.97340  Biso   1.000  C
  H169     1.0000 0.94240  0.95120  0.00340  Biso   1.000  H
  C179     1.0000 0.86540  0.92190  0.96600  Biso   1.000  C
  H170     1.0000 0.86710  0.87080  0.99090  Biso   1.000  H
  C180     1.0000 0.81670  0.94930  0.92120  Biso   1.000  C
  H171     1.0000 0.78590  0.91800  0.91740  Biso   1.000  H
  C181     1.0000 0.70370  0.04590  0.85300  Biso   1.000  C
  C182     1.0000 0.66690  0.97210  0.83790  Biso   1.000  C
  H172     1.0000 0.66920  0.92410  0.81290  Biso   1.000  H
  C183     1.0000 0.62750  0.96960  0.85940  Biso   1.000  C
  H173     1.0000 0.60290  0.92090  0.84770  Biso   1.000  H
  C184     1.0000 0.62380  0.03720  0.89760  Biso   1.000  C
  H174     1.0000 0.59730  0.03450  0.91240  Biso   1.000  H
  C185     1.0000 0.66080  0.11160  0.91440  Biso   1.000  C
  H175     1.0000 0.65890  0.15810  0.94060  Biso   1.000  H
  C186     1.0000 0.69970  0.11530  0.89190  Biso   1.000  C
  H176     1.0000 0.72370  0.16490  0.90290  Biso   1.000  H
  C187     1.0000 0.62420  0.15350  0.70580  Biso   1.000  C
  H177     1.0000 0.62920  0.11240  0.73770  Biso   1.000  H
  C188     1.0000 0.63710  0.25310  0.64940  Biso   1.000  C
  H178     1.0000 0.65330  0.29680  0.63360  Biso   1.000  H
  C189     1.0000 0.58650  0.22590  0.62200  Biso   1.000  C
  H179     1.0000 0.56180  0.24710  0.58490  Biso   1.000  H
  C190     1.0000 0.53040  0.11130  0.64610  Biso   1.000  C
  H180     1.0000 0.50190  0.13880  0.61140  Biso   1.000  H
  H181     1.0000 0.53510  0.04710  0.63580  Biso   1.000  H
  C191     1.0000 0.51470  0.11120  0.70050  Biso   1.000  C
  C192     1.0000 0.50740  0.19260  0.72700  Biso   1.000  C
  H182     1.0000 0.51310  0.24980  0.71190  Biso   1.000  H
  C193     1.0000 0.50830  0.02960  0.72590  Biso   1.000  C
  H183     1.0000 0.51490  0.97290  0.71110  Biso   1.000  H
  C194     1.0000 0.79500  0.30170  0.52990  Biso   1.000  C
  H184     1.0000 0.82540  0.33690  0.55000  Biso   1.000  H
  C195     1.0000 0.74700  0.15920  0.51730  Biso   1.000  C
  H185     1.0000 0.74480  0.09760  0.52880  Biso   1.000  H
  C196     1.0000 0.79230  0.21020  0.54770  Biso   1.000  C
  C197     1.0000 0.83750  0.16680  0.60070  Biso   1.000  C
  H186     1.0000 0.87100  0.18460  0.59940  Biso   1.000  H
  H187     1.0000 0.83470  0.09890  0.59820  Biso   1.000  H
  C198     1.0000 0.79240  0.20640  0.67100  Biso   1.000  C
  H188     1.0000 0.75800  0.19580  0.64290  Biso   1.000  H
  C199     1.0000 0.87810  0.22150  0.71140  Biso   1.000  C
  H189     1.0000 0.91350  0.22350  0.71690  Biso   1.000  H
  C200     1.0000 0.85900  0.23950  0.75320  Biso   1.000  C
  H190     1.0000 0.87930  0.25590  0.79330  Biso   1.000  H
  Ag6      1.0000 0.24930  0.71865  0.78079  Biso   1.000  Ag
  P11      1.0000 0.24809  0.87142  0.82676  Biso   1.000  P
  P12      1.0000 0.25334  0.56051  0.82199  Biso   1.000  P
  N21      1.0000 0.16136  0.70840  0.70310  Biso   1.000  N
  N22      1.0000 0.07861  0.66310  0.65810  Biso   1.000  N
  N23      1.0000 0.33574  0.69920  0.65870  Biso   1.000  N
  N24      1.0000 0.30489  0.73020  0.72819  Biso   1.000  N
  C201     1.0000 0.22610  0.96400  0.76880  Biso   1.000  C
  H191     1.0000 0.22750  0.02440  0.78810  Biso   1.000  H
  H192     1.0000 0.18970  0.95250  0.74090  Biso   1.000  H
  C202     1.0000 0.23800  0.46500  0.76580  Biso   1.000  C
  H193     1.0000 0.20150  0.47130  0.73700  Biso   1.000  H
  H194     1.0000 0.24130  0.40550  0.78660  Biso   1.000  H
  C203     1.0000 0.31010  0.91380  0.88220  Biso   1.000  C
  C204     1.0000 0.35010  0.85120  0.91050  Biso   1.000  C
  H195     1.0000 0.34430  0.78780  0.90080  Biso   1.000  H
  C205     1.0000 0.39870  0.87950  0.95310  Biso   1.000  C
  H196     1.0000 0.42550  0.83620  0.97220  Biso   1.000  H
  C206     1.0000 0.40670  0.97600  0.96700  Biso   1.000  C
  H197     1.0000 0.43930  0.99710  0.99490  Biso   1.000  H
  C207     1.0000 0.36840  0.03570  0.94060  Biso   1.000  C
  H198     1.0000 0.37350  0.09900  0.95080  Biso   1.000  H
  C208     1.0000 0.32130  0.00600  0.89830  Biso   1.000  C
  H199     1.0000 0.29530  0.05060  0.87930  Biso   1.000  H
  C209     1.0000 0.20250  0.88200  0.86410  Biso   1.000  C
  C210     1.0000 0.21880  0.89150  0.92550  Biso   1.000  C
  H200     1.0000 0.25480  0.89720  0.94980  Biso   1.000  H
  C211     1.0000 0.18260  0.89270  0.95210  Biso   1.000  C
  H201     1.0000 0.19440  0.89900  0.99400  Biso   1.000  H
  C212     1.0000 0.12980  0.88490  0.91740  Biso   1.000  C
  H202     1.0000 0.10560  0.88640  0.93550  Biso   1.000  H
  C213     1.0000 0.11260  0.87490  0.85650  Biso   1.000  C
  H203     1.0000 0.07670  0.86990  0.83220  Biso   1.000  H
  C214     1.0000 0.14990  0.87230  0.83130  Biso   1.000  C
  H204     1.0000 0.13810  0.86350  0.78950  Biso   1.000  H
  C215     1.0000 0.31430  0.52300  0.88230  Biso   1.000  C
  C216     1.0000 0.36050  0.56990  0.89110  Biso   1.000  C
  H205     1.0000 0.35960  0.61960  0.86560  Biso   1.000  H
  C217     1.0000 0.40890  0.54440  0.93760  Biso   1.000  C
  H206     1.0000 0.43960  0.57800  0.94380  Biso   1.000  H
  C218     1.0000 0.41020  0.46980  0.97340  Biso   1.000  C
  H207     1.0000 0.44240  0.45120  0.00340  Biso   1.000  H
  C219     1.0000 0.36540  0.42190  0.96600  Biso   1.000  C
  H208     1.0000 0.36710  0.37080  0.99090  Biso   1.000  H
  C220     1.0000 0.31670  0.44930  0.92120  Biso   1.000  C
  H209     1.0000 0.28590  0.41800  0.91740  Biso   1.000  H
  C221     1.0000 0.20370  0.54590  0.85300  Biso   1.000  C
  C222     1.0000 0.16690  0.47210  0.83790  Biso   1.000  C
  H210     1.0000 0.16920  0.42410  0.81290  Biso   1.000  H
  C223     1.0000 0.12750  0.46960  0.85940  Biso   1.000  C
  H211     1.0000 0.10290  0.42090  0.84770  Biso   1.000  H
  C224     1.0000 0.12380  0.53720  0.89760  Biso   1.000  C
  H212     1.0000 0.09730  0.53450  0.91240  Biso   1.000  H
  C225     1.0000 0.16080  0.61160  0.91440  Biso   1.000  C
  H213     1.0000 0.15890  0.65810  0.94060  Biso   1.000  H
  C226     1.0000 0.19970  0.61530  0.89190  Biso   1.000  C
  H214     1.0000 0.22370  0.66490  0.90290  Biso   1.000  H
  C227     1.0000 0.12420  0.65350  0.70580  Biso   1.000  C
  H215     1.0000 0.12920  0.61240  0.73770  Biso   1.000  H
  C228     1.0000 0.13710  0.75310  0.64940  Biso   1.000  C
  H216     1.0000 0.15330  0.79680  0.63360  Biso   1.000  H
  C229     1.0000 0.08650  0.72590  0.62200  Biso   1.000  C
  H217     1.0000 0.06180  0.74710  0.58490  Biso   1.000  H
  C230     1.0000 0.03040  0.61130  0.64610  Biso   1.000  C
  H218     1.0000 0.00190  0.63880  0.61140  Biso   1.000  H
  H219     1.0000 0.03510  0.54710  0.63580  Biso   1.000  H
  C231     1.0000 0.01470  0.61120  0.70050  Biso   1.000  C
  C232     1.0000 0.00740  0.69260  0.72700  Biso   1.000  C
  H220     1.0000 0.01310  0.74980  0.71190  Biso   1.000  H
  C233     1.0000 0.00830  0.52960  0.72590  Biso   1.000  C
  H221     1.0000 0.01490  0.47290  0.71110  Biso   1.000  H
  C234     1.0000 0.29500  0.80170  0.52990  Biso   1.000  C
  H222     1.0000 0.32540  0.83690  0.55000  Biso   1.000  H
  C235     1.0000 0.24700  0.65920  0.51730  Biso   1.000  C
  H223     1.0000 0.24480  0.59760  0.52880  Biso   1.000  H
  C236     1.0000 0.29230  0.71020  0.54770  Biso   1.000  C
  C237     1.0000 0.33750  0.66680  0.60070  Biso   1.000  C
  H224     1.0000 0.37100  0.68460  0.59940  Biso   1.000  H
  H225     1.0000 0.33470  0.59890  0.59820  Biso   1.000  H
  C238     1.0000 0.29240  0.70640  0.67100  Biso   1.000  C
  H226     1.0000 0.25800  0.69580  0.64290  Biso   1.000  H
  C239     1.0000 0.37810  0.72150  0.71140  Biso   1.000  C
  H227     1.0000 0.41350  0.72350  0.71690  Biso   1.000  H
  C240     1.0000 0.35900  0.73950  0.75320  Biso   1.000  C
  H228     1.0000 0.37930  0.75590  0.79330  Biso   1.000  H
  Ag7      1.0000 0.25069  0.21865  0.71921  Biso   1.000  Ag
  P13      1.0000 0.25191  0.37142  0.67324  Biso   1.000  P
  P14      1.0000 0.24666  0.06051  0.67801  Biso   1.000  P
  N25      1.0000 0.33864  0.20840  0.79690  Biso   1.000  N
  N26      1.0000 0.42139  0.16310  0.84190  Biso   1.000  N
  N27      1.0000 0.16426  0.19920  0.84130  Biso   1.000  N
  N28      1.0000 0.19511  0.23020  0.77181  Biso   1.000  N
  C241     1.0000 0.27390  0.46400  0.73120  Biso   1.000  C
  H229     1.0000 0.27250  0.52440  0.71190  Biso   1.000  H
  H230     1.0000 0.31030  0.45250  0.75910  Biso   1.000  H
  C242     1.0000 0.26200  0.96500  0.73420  Biso   1.000  C
  H231     1.0000 0.29850  0.97130  0.76300  Biso   1.000  H
  H232     1.0000 0.25870  0.90550  0.71340  Biso   1.000  H
  C243     1.0000 0.18990  0.41380  0.61780  Biso   1.000  C
  C244     1.0000 0.14990  0.35120  0.58950  Biso   1.000  C
  H233     1.0000 0.15570  0.28780  0.59920  Biso   1.000  H
  C245     1.0000 0.10130  0.37950  0.54690  Biso   1.000  C
  H234     1.0000 0.07450  0.33620  0.52780  Biso   1.000  H
  C246     1.0000 0.09330  0.47600  0.53300  Biso   1.000  C
  H235     1.0000 0.06070  0.49710  0.50510  Biso   1.000  H
  C247     1.0000 0.13160  0.53570  0.55940  Biso   1.000  C
  H236     1.0000 0.12650  0.59900  0.54920  Biso   1.000  H
  C248     1.0000 0.17870  0.50600  0.60170  Biso   1.000  C
  H237     1.0000 0.20470  0.55060  0.62070  Biso   1.000  H
  C249     1.0000 0.29750  0.38200  0.63590  Biso   1.000  C
  C250     1.0000 0.28120  0.39150  0.57450  Biso   1.000  C
  H238     1.0000 0.24520  0.39720  0.55020  Biso   1.000  H
  C251     1.0000 0.31740  0.39270  0.54790  Biso   1.000  C
  H239     1.0000 0.30560  0.39900  0.50600  Biso   1.000  H
  C252     1.0000 0.37020  0.38490  0.58260  Biso   1.000  C
  H240     1.0000 0.39440  0.38640  0.56450  Biso   1.000  H
  C253     1.0000 0.38740  0.37490  0.64350  Biso   1.000  C
  H241     1.0000 0.42330  0.36990  0.66780  Biso   1.000  H
  C254     1.0000 0.35010  0.37230  0.66870  Biso   1.000  C
  H242     1.0000 0.36190  0.36350  0.71050  Biso   1.000  H
  C255     1.0000 0.18570  0.02300  0.61770  Biso   1.000  C
  C256     1.0000 0.13950  0.06990  0.60890  Biso   1.000  C
  H243     1.0000 0.14040  0.11960  0.63440  Biso   1.000  H
  C257     1.0000 0.09110  0.04440  0.56240  Biso   1.000  C
  H244     1.0000 0.06040  0.07800  0.55620  Biso   1.000  H
  C258     1.0000 0.08980  0.96980  0.52660  Biso   1.000  C
  H245     1.0000 0.05760  0.95120  0.49660  Biso   1.000  H
  C259     1.0000 0.13460  0.92190  0.53400  Biso   1.000  C
  H246     1.0000 0.13290  0.87080  0.50910  Biso   1.000  H
  C260     1.0000 0.18330  0.94930  0.57880  Biso   1.000  C
  H247     1.0000 0.21410  0.91800  0.58260  Biso   1.000  H
  C261     1.0000 0.29630  0.04590  0.64700  Biso   1.000  C
  C262     1.0000 0.33310  0.97210  0.66210  Biso   1.000  C
  H248     1.0000 0.33080  0.92410  0.68710  Biso   1.000  H
  C263     1.0000 0.37250  0.96960  0.64060  Biso   1.000  C
  H249     1.0000 0.39710  0.92090  0.65230  Biso   1.000  H
  C264     1.0000 0.37620  0.03720  0.60240  Biso   1.000  C
  H250     1.0000 0.40270  0.03450  0.58760  Biso   1.000  H
  C265     1.0000 0.33920  0.11160  0.58560  Biso   1.000  C
  H251     1.0000 0.34110  0.15810  0.55940  Biso   1.000  H
  C266     1.0000 0.30030  0.11530  0.60810  Biso   1.000  C
  H252     1.0000 0.27630  0.16490  0.59710  Biso   1.000  H
  C267     1.0000 0.37580  0.15350  0.79420  Biso   1.000  C
  H253     1.0000 0.37080  0.11240  0.76230  Biso   1.000  H
  C268     1.0000 0.36290  0.25310  0.85060  Biso   1.000  C
  H254     1.0000 0.34670  0.29680  0.86640  Biso   1.000  H
  C269     1.0000 0.41350  0.22590  0.87800  Biso   1.000  C
  H255     1.0000 0.43820  0.24710  0.91510  Biso   1.000  H
  C270     1.0000 0.46960  0.11130  0.85390  Biso   1.000  C
  H256     1.0000 0.49810  0.13880  0.88860  Biso   1.000  H
  H257     1.0000 0.46490  0.04710  0.86420  Biso   1.000  H
  C271     1.0000 0.48530  0.11120  0.79950  Biso   1.000  C
  C272     1.0000 0.49260  0.19260  0.77300  Biso   1.000  C
  H258     1.0000 0.48690  0.24980  0.78810  Biso   1.000  H
  C273     1.0000 0.49170  0.02960  0.77410  Biso   1.000  C
  H259     1.0000 0.48510  0.97290  0.78890  Biso   1.000  H
  C274     1.0000 0.20500  0.30170  0.97010  Biso   1.000  C
  H260     1.0000 0.17460  0.33690  0.95000  Biso   1.000  H
  C275     1.0000 0.25300  0.15920  0.98270  Biso   1.000  C
  H261     1.0000 0.25520  0.09760  0.97120  Biso   1.000  H
  C276     1.0000 0.20770  0.21020  0.95230  Biso   1.000  C
  C277     1.0000 0.16250  0.16680  0.89930  Biso   1.000  C
  H262     1.0000 0.12900  0.18460  0.90060  Biso   1.000  H
  H263     1.0000 0.16530  0.09890  0.90180  Biso   1.000  H
  C278     1.0000 0.20760  0.20640  0.82900  Biso   1.000  C
  H264     1.0000 0.24200  0.19580  0.85710  Biso   1.000  H
  C279     1.0000 0.12190  0.22150  0.78860  Biso   1.000  C
  H265     1.0000 0.08650  0.22350  0.78310  Biso   1.000  H
  C280     1.0000 0.14100  0.23950  0.74680  Biso   1.000  C
  H266     1.0000 0.12070  0.25590  0.70670  Biso   1.000  H
  Ag8      1.0000 0.75069  0.71865  0.71921  Biso   1.000  Ag
  P15      1.0000 0.75191  0.87142  0.67324  Biso   1.000  P
  P16      1.0000 0.74666  0.56051  0.67801  Biso   1.000  P
  N29      1.0000 0.83864  0.70840  0.79690  Biso   1.000  N
  N30      1.0000 0.92139  0.66310  0.84190  Biso   1.000  N
  N31      1.0000 0.66426  0.69920  0.84130  Biso   1.000  N
  N32      1.0000 0.69511  0.73020  0.77181  Biso   1.000  N
  C281     1.0000 0.77390  0.96400  0.73120  Biso   1.000  C
  H267     1.0000 0.77250  0.02440  0.71190  Biso   1.000  H
  H268     1.0000 0.81030  0.95250  0.75910  Biso   1.000  H
  C282     1.0000 0.76200  0.46500  0.73420  Biso   1.000  C
  H269     1.0000 0.79850  0.47130  0.76300  Biso   1.000  H
  H270     1.0000 0.75870  0.40550  0.71340  Biso   1.000  H
  C283     1.0000 0.68990  0.91380  0.61780  Biso   1.000  C
  C284     1.0000 0.64990  0.85120  0.58950  Biso   1.000  C
  H271     1.0000 0.65570  0.78780  0.59920  Biso   1.000  H
  C285     1.0000 0.60130  0.87950  0.54690  Biso   1.000  C
  H272     1.0000 0.57450  0.83620  0.52780  Biso   1.000  H
  C286     1.0000 0.59330  0.97600  0.53300  Biso   1.000  C
  H273     1.0000 0.56070  0.99710  0.50510  Biso   1.000  H
  C287     1.0000 0.63160  0.03570  0.55940  Biso   1.000  C
  H274     1.0000 0.62650  0.09900  0.54920  Biso   1.000  H
  C288     1.0000 0.67870  0.00600  0.60170  Biso   1.000  C
  H275     1.0000 0.70470  0.05060  0.62070  Biso   1.000  H
  C289     1.0000 0.79750  0.88200  0.63590  Biso   1.000  C
  C290     1.0000 0.78120  0.89150  0.57450  Biso   1.000  C
  H276     1.0000 0.74520  0.89720  0.55020  Biso   1.000  H
  C291     1.0000 0.81740  0.89270  0.54790  Biso   1.000  C
  H277     1.0000 0.80560  0.89900  0.50600  Biso   1.000  H
  C292     1.0000 0.87020  0.88490  0.58260  Biso   1.000  C
  H278     1.0000 0.89440  0.88640  0.56450  Biso   1.000  H
  C293     1.0000 0.88740  0.87490  0.64350  Biso   1.000  C
  H279     1.0000 0.92330  0.86990  0.66780  Biso   1.000  H
  C294     1.0000 0.85010  0.87230  0.66870  Biso   1.000  C
  H280     1.0000 0.86190  0.86350  0.71050  Biso   1.000  H
  C295     1.0000 0.68570  0.52300  0.61770  Biso   1.000  C
  C296     1.0000 0.63950  0.56990  0.60890  Biso   1.000  C
  H281     1.0000 0.64040  0.61960  0.63440  Biso   1.000  H
  C297     1.0000 0.59110  0.54440  0.56240  Biso   1.000  C
  H282     1.0000 0.56040  0.57800  0.55620  Biso   1.000  H
  C298     1.0000 0.58980  0.46980  0.52660  Biso   1.000  C
  H283     1.0000 0.55760  0.45120  0.49660  Biso   1.000  H
  C299     1.0000 0.63460  0.42190  0.53400  Biso   1.000  C
  H284     1.0000 0.63290  0.37080  0.50910  Biso   1.000  H
  C300     1.0000 0.68330  0.44930  0.57880  Biso   1.000  C
  H285     1.0000 0.71410  0.41800  0.58260  Biso   1.000  H
  C301     1.0000 0.79630  0.54590  0.64700  Biso   1.000  C
  C302     1.0000 0.83310  0.47210  0.66210  Biso   1.000  C
  H286     1.0000 0.83080  0.42410  0.68710  Biso   1.000  H
  C303     1.0000 0.87250  0.46960  0.64060  Biso   1.000  C
  H287     1.0000 0.89710  0.42090  0.65230  Biso   1.000  H
  C304     1.0000 0.87620  0.53720  0.60240  Biso   1.000  C
  H288     1.0000 0.90270  0.53450  0.58760  Biso   1.000  H
  C305     1.0000 0.83920  0.61160  0.58560  Biso   1.000  C
  H289     1.0000 0.84110  0.65810  0.55940  Biso   1.000  H
  C306     1.0000 0.80030  0.61530  0.60810  Biso   1.000  C
  H290     1.0000 0.77630  0.66490  0.59710  Biso   1.000  H
  C307     1.0000 0.87580  0.65350  0.79420  Biso   1.000  C
  H291     1.0000 0.87080  0.61240  0.76230  Biso   1.000  H
  C308     1.0000 0.86290  0.75310  0.85060  Biso   1.000  C
  H292     1.0000 0.84670  0.79680  0.86640  Biso   1.000  H
  C309     1.0000 0.91350  0.72590  0.87800  Biso   1.000  C
  H293     1.0000 0.93820  0.74710  0.91510  Biso   1.000  H
  C310     1.0000 0.96960  0.61130  0.85390  Biso   1.000  C
  H294     1.0000 0.99810  0.63880  0.88860  Biso   1.000  H
  H295     1.0000 0.96490  0.54710  0.86420  Biso   1.000  H
  C311     1.0000 0.98530  0.61120  0.79950  Biso   1.000  C
  C312     1.0000 0.99260  0.69260  0.77300  Biso   1.000  C
  H296     1.0000 0.98690  0.74980  0.78810  Biso   1.000  H
  C313     1.0000 0.99170  0.52960  0.77410  Biso   1.000  C
  H297     1.0000 0.98510  0.47290  0.78890  Biso   1.000  H
  C314     1.0000 0.70500  0.80170  0.97010  Biso   1.000  C
  H298     1.0000 0.67460  0.83690  0.95000  Biso   1.000  H
  C315     1.0000 0.75300  0.65920  0.98270  Biso   1.000  C
  H299     1.0000 0.75520  0.59760  0.97120  Biso   1.000  H
  C316     1.0000 0.70770  0.71020  0.95230  Biso   1.000  C
  C317     1.0000 0.66250  0.66680  0.89930  Biso   1.000  C
  H300     1.0000 0.62900  0.68460  0.90060  Biso   1.000  H
  H301     1.0000 0.66530  0.59890  0.90180  Biso   1.000  H
  C318     1.0000 0.70760  0.70640  0.82900  Biso   1.000  C
  H302     1.0000 0.74200  0.69580  0.85710  Biso   1.000  H
  C319     1.0000 0.62190  0.72150  0.78860  Biso   1.000  C
  H303     1.0000 0.58650  0.72350  0.78310  Biso   1.000  H
  C320     1.0000 0.64100  0.73950  0.74680  Biso   1.000  C
  H304     1.0000 0.62070  0.75590  0.70670  Biso   1.000  H
