data_image0
_cell_length_a       27.881
_cell_length_b       14.252
_cell_length_c       24.059
_cell_angle_alpha    90
_cell_angle_beta     111.799
_cell_angle_gamma    90

_symmetry_space_group_name_H-M    "P 1"
_symmetry_int_tables_number       1

loop_
  _symmetry_equiv_pos_as_xyz
  'x, y, z'

loop_
  _atom_site_label
  _atom_site_occupancy
  _atom_site_fract_x
  _atom_site_fract_y
  _atom_site_fract_z
  _atom_site_thermal_displace_type
  _atom_site_B_iso_or_equiv
  _atom_site_type_symbol
  Ag1      1.0000 0.25384  0.71701  0.22063  Biso   1.000  Ag
  P1       1.0000 0.24917  0.55883  0.17985  Biso   1.000  P
  P2       1.0000 0.24557  0.36946  0.32564  Biso   1.000  P
  N1       1.0000 0.33826  0.70840  0.29636  Biso   1.000  N
  N2       1.0000 0.41923  0.66590  0.34000  Biso   1.000  N
  N3       1.0000 0.16750  0.69890  0.34376  Biso   1.000  N
  N4       1.0000 0.19953  0.72820  0.27488  Biso   1.000  N
  C1       1.0000 0.26287  0.46440  0.23554  Biso   1.000  C
  H1       1.0000 0.26060  0.40460  0.21540  Biso   1.000  H
  H2       1.0000 0.29800  0.47130  0.26400  Biso   1.000  H
  C2       1.0000 0.22672  0.46290  0.26936  Biso   1.000  C
  H3       1.0000 0.19160  0.45240  0.24160  Biso   1.000  H
  H4       1.0000 0.22790  0.52290  0.28880  Biso   1.000  H
  C3       1.0000 0.29870  0.54220  0.14815  Biso   1.000  C
  C4       1.0000 0.33480  0.47090  0.16480  Biso   1.000  C
  H5       1.0000 0.33280  0.42440  0.19100  Biso   1.000  H
  C5       1.0000 0.37370  0.46880  0.14230  Biso   1.000  C
  H6       1.0000 0.39870  0.42200  0.15480  Biso   1.000  H
  C6       1.0000 0.37620  0.53450  0.10210  Biso   1.000  C
  H7       1.0000 0.40160  0.53060  0.08580  Biso   1.000  H
  C7       1.0000 0.34130  0.60510  0.08620  Biso   1.000  C
  H8       1.0000 0.34340  0.65070  0.05950  Biso   1.000  H
  C8       1.0000 0.30260  0.61040  0.10910  Biso   1.000  C
  H9       1.0000 0.27930  0.65990  0.09820  Biso   1.000  H
  C9       1.0000 0.18966  0.52260  0.12047  Biso   1.000  C
  C10      1.0000 0.14540  0.56950  0.11350  Biso   1.000  C
  H10      1.0000 0.14640  0.61940  0.13880  Biso   1.000  H
  C11      1.0000 0.09880  0.54440  0.06940  Biso   1.000  C
  H11      1.0000 0.06890  0.57790  0.06450  Biso   1.000  H
  C12      1.0000 0.09740  0.46930  0.03290  Biso   1.000  C
  H12      1.0000 0.06610  0.45110  0.00380  Biso   1.000  H
  C13      1.0000 0.14090  0.42180  0.03890  Biso   1.000  C
  H13      1.0000 0.13970  0.37140  0.01390  Biso   1.000  H
  C14      1.0000 0.18710  0.44850  0.08240  Biso   1.000  C
  H14      1.0000 0.21710  0.41610  0.08620  Biso   1.000  H
  C15      1.0000 0.20030  0.38030  0.36360  Biso   1.000  C
  C16      1.0000 0.14860  0.37270  0.33070  Biso   1.000  C
  H15      1.0000 0.13760  0.36600  0.28930  Biso   1.000  H
  C17      1.0000 0.11240  0.37460  0.35670  Biso   1.000  C
  H16      1.0000 0.07740  0.36870  0.33350  Biso   1.000  H
  C18      1.0000 0.12850  0.38520  0.41700  Biso   1.000  C
  H17      1.0000 0.10430  0.38800  0.43510  Biso   1.000  H
  C19      1.0000 0.18070  0.39180  0.45160  Biso   1.000  C
  H18      1.0000 0.19140  0.39760  0.49300  Biso   1.000  H
  C20      1.0000 0.21640  0.39000  0.42520  Biso   1.000  C
  H19      1.0000 0.25130  0.39510  0.44850  Biso   1.000  H
  C21      1.0000 0.30570  0.40870  0.38000  Biso   1.000  C
  C22      1.0000 0.34210  0.34260  0.40970  Biso   1.000  C
  H20      1.0000 0.33460  0.27940  0.40130  Biso   1.000  H
  C23      1.0000 0.38990  0.36790  0.45180  Biso   1.000  C
  H21      1.0000 0.41420  0.32240  0.47140  Biso   1.000  H
  C24      1.0000 0.40070  0.46260  0.46420  Biso   1.000  C
  H22      1.0000 0.43240  0.48020  0.49260  Biso   1.000  H
  C25      1.0000 0.36640  0.52810  0.43630  Biso   1.000  C
  H23      1.0000 0.37420  0.59120  0.44490  Biso   1.000  H
  C26      1.0000 0.31890  0.50180  0.39390  Biso   1.000  C
  H24      1.0000 0.29530  0.54830  0.37430  Biso   1.000  H
  C27      1.0000 0.37570  0.65450  0.29380  Biso   1.000  C
  H25      1.0000 0.37190  0.61290  0.26260  Biso   1.000  H
  C28      1.0000 0.35990  0.75650  0.34740  Biso   1.000  C
  H26      1.0000 0.34290  0.80090  0.36160  Biso   1.000  H
  C29      1.0000 0.40960  0.73210  0.37520  Biso   1.000  C
  H27      1.0000 0.43270  0.75570  0.41130  Biso   1.000  H
  C30      1.0000 0.46750  0.61590  0.35240  Biso   1.000  C
  H28      1.0000 0.46360  0.55180  0.36360  Biso   1.000  H
  H29      1.0000 0.49440  0.64530  0.38590  Biso   1.000  H
  C31      1.0000 0.48380  0.61490  0.29820  Biso   1.000  C
  C32      1.0000 0.49290  0.69830  0.27370  Biso   1.000  C
  H30      1.0000 0.48910  0.75510  0.29060  Biso   1.000  H
  C33      1.0000 0.49250  0.53480  0.27380  Biso   1.000  C
  H31      1.0000 0.48820  0.47770  0.29000  Biso   1.000  H
  C34      1.0000 0.20700  0.80160  0.46970  Biso   1.000  C
  H32      1.0000 0.17810  0.83800  0.44940  Biso   1.000  H
  C35      1.0000 0.25180  0.65910  0.48310  Biso   1.000  C
  H33      1.0000 0.25380  0.59720  0.47190  Biso   1.000  H
  C36      1.0000 0.20850  0.71090  0.45320  Biso   1.000  C
  C37      1.0000 0.16520  0.66890  0.40190  Biso   1.000  C
  H34      1.0000 0.16720  0.60100  0.40470  Biso   1.000  H
  H35      1.0000 0.13250  0.68820  0.40380  Biso   1.000  H
  C38      1.0000 0.21045  0.70710  0.33160  Biso   1.000  C
  H36      1.0000 0.24370  0.69890  0.35960  Biso   1.000  H
  C39      1.0000 0.12675  0.71770  0.29200  Biso   1.000  C
  H37      1.0000 0.09190  0.71800  0.28660  Biso   1.000  H
  C40      1.0000 0.14670  0.73560  0.25090  Biso   1.000  C
  H38      1.0000 0.12750  0.75100  0.21130  Biso   1.000  H
  Ag2      1.0000 0.75384  0.21701  0.22063  Biso   1.000  Ag
  P3       1.0000 0.74917  0.05883  0.17985  Biso   1.000  P
  P4       1.0000 0.74557  0.86946  0.32564  Biso   1.000  P
  N5       1.0000 0.83826  0.20840  0.29636  Biso   1.000  N
  N6       1.0000 0.91923  0.16590  0.34000  Biso   1.000  N
  N7       1.0000 0.66750  0.19890  0.34376  Biso   1.000  N
  N8       1.0000 0.69953  0.22820  0.27488  Biso   1.000  N
  C41      1.0000 0.76287  0.96440  0.23554  Biso   1.000  C
  H39      1.0000 0.76060  0.90460  0.21540  Biso   1.000  H
  H40      1.0000 0.79800  0.97130  0.26400  Biso   1.000  H
  C42      1.0000 0.72672  0.96290  0.26936  Biso   1.000  C
  H41      1.0000 0.69160  0.95240  0.24160  Biso   1.000  H
  H42      1.0000 0.72790  0.02290  0.28880  Biso   1.000  H
  C43      1.0000 0.79870  0.04220  0.14815  Biso   1.000  C
  C44      1.0000 0.83480  0.97090  0.16480  Biso   1.000  C
  H43      1.0000 0.83280  0.92440  0.19100  Biso   1.000  H
  C45      1.0000 0.87370  0.96880  0.14230  Biso   1.000  C
  H44      1.0000 0.89870  0.92200  0.15480  Biso   1.000  H
  C46      1.0000 0.87620  0.03450  0.10210  Biso   1.000  C
  H45      1.0000 0.90160  0.03060  0.08580  Biso   1.000  H
  C47      1.0000 0.84130  0.10510  0.08620  Biso   1.000  C
  H46      1.0000 0.84340  0.15070  0.05950  Biso   1.000  H
  C48      1.0000 0.80260  0.11040  0.10910  Biso   1.000  C
  H47      1.0000 0.77930  0.15990  0.09820  Biso   1.000  H
  C49      1.0000 0.68966  0.02260  0.12047  Biso   1.000  C
  C50      1.0000 0.64540  0.06950  0.11350  Biso   1.000  C
  H48      1.0000 0.64640  0.11940  0.13880  Biso   1.000  H
  C51      1.0000 0.59880  0.04440  0.06940  Biso   1.000  C
  H49      1.0000 0.56890  0.07790  0.06450  Biso   1.000  H
  C52      1.0000 0.59740  0.96930  0.03290  Biso   1.000  C
  H50      1.0000 0.56610  0.95110  0.00380  Biso   1.000  H
  C53      1.0000 0.64090  0.92180  0.03890  Biso   1.000  C
  H51      1.0000 0.63970  0.87140  0.01390  Biso   1.000  H
  C54      1.0000 0.68710  0.94850  0.08240  Biso   1.000  C
  H52      1.0000 0.71710  0.91610  0.08620  Biso   1.000  H
  C55      1.0000 0.70030  0.88030  0.36360  Biso   1.000  C
  C56      1.0000 0.64860  0.87270  0.33070  Biso   1.000  C
  H53      1.0000 0.63760  0.86600  0.28930  Biso   1.000  H
  C57      1.0000 0.61240  0.87460  0.35670  Biso   1.000  C
  H54      1.0000 0.57740  0.86870  0.33350  Biso   1.000  H
  C58      1.0000 0.62850  0.88520  0.41700  Biso   1.000  C
  H55      1.0000 0.60430  0.88800  0.43510  Biso   1.000  H
  C59      1.0000 0.68070  0.89180  0.45160  Biso   1.000  C
  H56      1.0000 0.69140  0.89760  0.49300  Biso   1.000  H
  C60      1.0000 0.71640  0.89000  0.42520  Biso   1.000  C
  H57      1.0000 0.75130  0.89510  0.44850  Biso   1.000  H
  C61      1.0000 0.80570  0.90870  0.38000  Biso   1.000  C
  C62      1.0000 0.84210  0.84260  0.40970  Biso   1.000  C
  H58      1.0000 0.83460  0.77940  0.40130  Biso   1.000  H
  C63      1.0000 0.88990  0.86790  0.45180  Biso   1.000  C
  H59      1.0000 0.91420  0.82240  0.47140  Biso   1.000  H
  C64      1.0000 0.90070  0.96260  0.46420  Biso   1.000  C
  H60      1.0000 0.93240  0.98020  0.49260  Biso   1.000  H
  C65      1.0000 0.86640  0.02810  0.43630  Biso   1.000  C
  H61      1.0000 0.87420  0.09120  0.44490  Biso   1.000  H
  C66      1.0000 0.81890  0.00180  0.39390  Biso   1.000  C
  H62      1.0000 0.79530  0.04830  0.37430  Biso   1.000  H
  C67      1.0000 0.87570  0.15450  0.29380  Biso   1.000  C
  H63      1.0000 0.87190  0.11290  0.26260  Biso   1.000  H
  C68      1.0000 0.85990  0.25650  0.34740  Biso   1.000  C
  H64      1.0000 0.84290  0.30090  0.36160  Biso   1.000  H
  C69      1.0000 0.90960  0.23210  0.37520  Biso   1.000  C
  H65      1.0000 0.93270  0.25570  0.41130  Biso   1.000  H
  C70      1.0000 0.96750  0.11590  0.35240  Biso   1.000  C
  H66      1.0000 0.96360  0.05180  0.36360  Biso   1.000  H
  H67      1.0000 0.99440  0.14530  0.38590  Biso   1.000  H
  C71      1.0000 0.98380  0.11490  0.29820  Biso   1.000  C
  C72      1.0000 0.99290  0.19830  0.27370  Biso   1.000  C
  H68      1.0000 0.98910  0.25510  0.29060  Biso   1.000  H
  C73      1.0000 0.99250  0.03480  0.27380  Biso   1.000  C
  H69      1.0000 0.98820  0.97770  0.29000  Biso   1.000  H
  C74      1.0000 0.70700  0.30160  0.46970  Biso   1.000  C
  H70      1.0000 0.67810  0.33800  0.44940  Biso   1.000  H
  C75      1.0000 0.75180  0.15910  0.48310  Biso   1.000  C
  H71      1.0000 0.75380  0.09720  0.47190  Biso   1.000  H
  C76      1.0000 0.70850  0.21090  0.45320  Biso   1.000  C
  C77      1.0000 0.66520  0.16890  0.40190  Biso   1.000  C
  H72      1.0000 0.66720  0.10100  0.40470  Biso   1.000  H
  H73      1.0000 0.63250  0.18820  0.40380  Biso   1.000  H
  C78      1.0000 0.71045  0.20710  0.33160  Biso   1.000  C
  H74      1.0000 0.74370  0.19890  0.35960  Biso   1.000  H
  C79      1.0000 0.62675  0.21770  0.29200  Biso   1.000  C
  H75      1.0000 0.59190  0.21800  0.28660  Biso   1.000  H
  C80      1.0000 0.64670  0.23560  0.25090  Biso   1.000  C
  H76      1.0000 0.62750  0.25100  0.21130  Biso   1.000  H
  Ag3      1.0000 0.74615  0.71701  0.27937  Biso   1.000  Ag
  P5       1.0000 0.75083  0.55883  0.32015  Biso   1.000  P
  P6       1.0000 0.75443  0.36946  0.17436  Biso   1.000  P
  N9       1.0000 0.66174  0.70840  0.20364  Biso   1.000  N
  N10      1.0000 0.58077  0.66590  0.16000  Biso   1.000  N
  N11      1.0000 0.83250  0.69890  0.15624  Biso   1.000  N
  N12      1.0000 0.80047  0.72820  0.22512  Biso   1.000  N
  C81      1.0000 0.73713  0.46440  0.26446  Biso   1.000  C
  H77      1.0000 0.73940  0.40460  0.28460  Biso   1.000  H
  H78      1.0000 0.70200  0.47130  0.23600  Biso   1.000  H
  C82      1.0000 0.77328  0.46290  0.23064  Biso   1.000  C
  H79      1.0000 0.80840  0.45240  0.25840  Biso   1.000  H
  H80      1.0000 0.77210  0.52290  0.21120  Biso   1.000  H
  C83      1.0000 0.70130  0.54220  0.35185  Biso   1.000  C
  C84      1.0000 0.66520  0.47090  0.33520  Biso   1.000  C
  H81      1.0000 0.66720  0.42440  0.30900  Biso   1.000  H
  C85      1.0000 0.62630  0.46880  0.35770  Biso   1.000  C
  H82      1.0000 0.60130  0.42200  0.34520  Biso   1.000  H
  C86      1.0000 0.62380  0.53450  0.39790  Biso   1.000  C
  H83      1.0000 0.59840  0.53060  0.41420  Biso   1.000  H
  C87      1.0000 0.65870  0.60510  0.41380  Biso   1.000  C
  H84      1.0000 0.65660  0.65070  0.44050  Biso   1.000  H
  C88      1.0000 0.69740  0.61040  0.39090  Biso   1.000  C
  H85      1.0000 0.72070  0.65990  0.40180  Biso   1.000  H
  C89      1.0000 0.81034  0.52260  0.37953  Biso   1.000  C
  C90      1.0000 0.85460  0.56950  0.38650  Biso   1.000  C
  H86      1.0000 0.85360  0.61940  0.36120  Biso   1.000  H
  C91      1.0000 0.90120  0.54440  0.43060  Biso   1.000  C
  H87      1.0000 0.93110  0.57790  0.43550  Biso   1.000  H
  C92      1.0000 0.90260  0.46930  0.46710  Biso   1.000  C
  H88      1.0000 0.93390  0.45110  0.49620  Biso   1.000  H
  C93      1.0000 0.85910  0.42180  0.46110  Biso   1.000  C
  H89      1.0000 0.86030  0.37140  0.48610  Biso   1.000  H
  C94      1.0000 0.81290  0.44850  0.41760  Biso   1.000  C
  H90      1.0000 0.78290  0.41610  0.41380  Biso   1.000  H
  C95      1.0000 0.79970  0.38030  0.13640  Biso   1.000  C
  C96      1.0000 0.85140  0.37270  0.16930  Biso   1.000  C
  H91      1.0000 0.86240  0.36600  0.21070  Biso   1.000  H
  C97      1.0000 0.88760  0.37460  0.14330  Biso   1.000  C
  H92      1.0000 0.92260  0.36870  0.16650  Biso   1.000  H
  C98      1.0000 0.87150  0.38520  0.08300  Biso   1.000  C
  H93      1.0000 0.89570  0.38800  0.06490  Biso   1.000  H
  C99      1.0000 0.81930  0.39180  0.04840  Biso   1.000  C
  H94      1.0000 0.80860  0.39760  0.00700  Biso   1.000  H
  C100     1.0000 0.78360  0.39000  0.07480  Biso   1.000  C
  H95      1.0000 0.74870  0.39510  0.05150  Biso   1.000  H
  C101     1.0000 0.69430  0.40870  0.12000  Biso   1.000  C
  C102     1.0000 0.65790  0.34260  0.09030  Biso   1.000  C
  H96      1.0000 0.66540  0.27940  0.09870  Biso   1.000  H
  C103     1.0000 0.61010  0.36790  0.04820  Biso   1.000  C
  H97      1.0000 0.58580  0.32240  0.02860  Biso   1.000  H
  C104     1.0000 0.59930  0.46260  0.03580  Biso   1.000  C
  H98      1.0000 0.56760  0.48020  0.00740  Biso   1.000  H
  C105     1.0000 0.63360  0.52810  0.06370  Biso   1.000  C
  H99      1.0000 0.62580  0.59120  0.05510  Biso   1.000  H
  C106     1.0000 0.68110  0.50180  0.10610  Biso   1.000  C
  H100     1.0000 0.70470  0.54830  0.12570  Biso   1.000  H
  C107     1.0000 0.62430  0.65450  0.20620  Biso   1.000  C
  H101     1.0000 0.62810  0.61290  0.23740  Biso   1.000  H
  C108     1.0000 0.64010  0.75650  0.15260  Biso   1.000  C
  H102     1.0000 0.65710  0.80090  0.13840  Biso   1.000  H
  C109     1.0000 0.59040  0.73210  0.12480  Biso   1.000  C
  H103     1.0000 0.56730  0.75570  0.08870  Biso   1.000  H
  C110     1.0000 0.53250  0.61590  0.14760  Biso   1.000  C
  H104     1.0000 0.53640  0.55180  0.13640  Biso   1.000  H
  H105     1.0000 0.50560  0.64530  0.11410  Biso   1.000  H
  C111     1.0000 0.51620  0.61490  0.20180  Biso   1.000  C
  C112     1.0000 0.50710  0.69830  0.22630  Biso   1.000  C
  H106     1.0000 0.51090  0.75510  0.20940  Biso   1.000  H
  C113     1.0000 0.50750  0.53480  0.22620  Biso   1.000  C
  H107     1.0000 0.51180  0.47770  0.21000  Biso   1.000  H
  C114     1.0000 0.79300  0.80160  0.03030  Biso   1.000  C
  H108     1.0000 0.82190  0.83800  0.05060  Biso   1.000  H
  C115     1.0000 0.74820  0.65910  0.01690  Biso   1.000  C
  H109     1.0000 0.74620  0.59720  0.02810  Biso   1.000  H
  C116     1.0000 0.79150  0.71090  0.04680  Biso   1.000  C
  C117     1.0000 0.83480  0.66890  0.09810  Biso   1.000  C
  H110     1.0000 0.83280  0.60100  0.09530  Biso   1.000  H
  H111     1.0000 0.86750  0.68820  0.09620  Biso   1.000  H
  C118     1.0000 0.78955  0.70710  0.16840  Biso   1.000  C
  H112     1.0000 0.75630  0.69890  0.14040  Biso   1.000  H
  C119     1.0000 0.87325  0.71770  0.20800  Biso   1.000  C
  H113     1.0000 0.90810  0.71800  0.21340  Biso   1.000  H
  C120     1.0000 0.85330  0.73560  0.24910  Biso   1.000  C
  H114     1.0000 0.87250  0.75100  0.28870  Biso   1.000  H
  Ag4      1.0000 0.24616  0.21701  0.27937  Biso   1.000  Ag
  P7       1.0000 0.25083  0.05883  0.32015  Biso   1.000  P
  P8       1.0000 0.25443  0.86946  0.17436  Biso   1.000  P
  N13      1.0000 0.16174  0.20840  0.20364  Biso   1.000  N
  N14      1.0000 0.08077  0.16590  0.16000  Biso   1.000  N
  N15      1.0000 0.33250  0.19890  0.15624  Biso   1.000  N
  N16      1.0000 0.30047  0.22820  0.22512  Biso   1.000  N
  C121     1.0000 0.23713  0.96440  0.26446  Biso   1.000  C
  H115     1.0000 0.23940  0.90460  0.28460  Biso   1.000  H
  H116     1.0000 0.20200  0.97130  0.23600  Biso   1.000  H
  C122     1.0000 0.27328  0.96290  0.23064  Biso   1.000  C
  H117     1.0000 0.30840  0.95240  0.25840  Biso   1.000  H
  H118     1.0000 0.27210  0.02290  0.21120  Biso   1.000  H
  C123     1.0000 0.20130  0.04220  0.35185  Biso   1.000  C
  C124     1.0000 0.16520  0.97090  0.33520  Biso   1.000  C
  H119     1.0000 0.16720  0.92440  0.30900  Biso   1.000  H
  C125     1.0000 0.12630  0.96880  0.35770  Biso   1.000  C
  H120     1.0000 0.10130  0.92200  0.34520  Biso   1.000  H
  C126     1.0000 0.12380  0.03450  0.39790  Biso   1.000  C
  H121     1.0000 0.09840  0.03060  0.41420  Biso   1.000  H
  C127     1.0000 0.15870  0.10510  0.41380  Biso   1.000  C
  H122     1.0000 0.15660  0.15070  0.44050  Biso   1.000  H
  C128     1.0000 0.19740  0.11040  0.39090  Biso   1.000  C
  H123     1.0000 0.22070  0.15990  0.40180  Biso   1.000  H
  C129     1.0000 0.31034  0.02260  0.37953  Biso   1.000  C
  C130     1.0000 0.35460  0.06950  0.38650  Biso   1.000  C
  H124     1.0000 0.35360  0.11940  0.36120  Biso   1.000  H
  C131     1.0000 0.40120  0.04440  0.43060  Biso   1.000  C
  H125     1.0000 0.43110  0.07790  0.43550  Biso   1.000  H
  C132     1.0000 0.40260  0.96930  0.46710  Biso   1.000  C
  H126     1.0000 0.43390  0.95110  0.49620  Biso   1.000  H
  C133     1.0000 0.35910  0.92180  0.46110  Biso   1.000  C
  H127     1.0000 0.36030  0.87140  0.48610  Biso   1.000  H
  C134     1.0000 0.31290  0.94850  0.41760  Biso   1.000  C
  H128     1.0000 0.28290  0.91610  0.41380  Biso   1.000  H
  C135     1.0000 0.29970  0.88030  0.13640  Biso   1.000  C
  C136     1.0000 0.35140  0.87270  0.16930  Biso   1.000  C
  H129     1.0000 0.36240  0.86600  0.21070  Biso   1.000  H
  C137     1.0000 0.38760  0.87460  0.14330  Biso   1.000  C
  H130     1.0000 0.42260  0.86870  0.16650  Biso   1.000  H
  C138     1.0000 0.37150  0.88520  0.08300  Biso   1.000  C
  H131     1.0000 0.39570  0.88800  0.06490  Biso   1.000  H
  C139     1.0000 0.31930  0.89180  0.04840  Biso   1.000  C
  H132     1.0000 0.30860  0.89760  0.00700  Biso   1.000  H
  C140     1.0000 0.28360  0.89000  0.07480  Biso   1.000  C
  H133     1.0000 0.24870  0.89510  0.05150  Biso   1.000  H
  C141     1.0000 0.19430  0.90870  0.12000  Biso   1.000  C
  C142     1.0000 0.15790  0.84260  0.09030  Biso   1.000  C
  H134     1.0000 0.16540  0.77940  0.09870  Biso   1.000  H
  C143     1.0000 0.11010  0.86790  0.04820  Biso   1.000  C
  H135     1.0000 0.08580  0.82240  0.02860  Biso   1.000  H
  C144     1.0000 0.09930  0.96260  0.03580  Biso   1.000  C
  H136     1.0000 0.06760  0.98020  0.00740  Biso   1.000  H
  C145     1.0000 0.13360  0.02810  0.06370  Biso   1.000  C
  H137     1.0000 0.12580  0.09120  0.05510  Biso   1.000  H
  C146     1.0000 0.18110  0.00180  0.10610  Biso   1.000  C
  H138     1.0000 0.20470  0.04830  0.12570  Biso   1.000  H
  C147     1.0000 0.12430  0.15450  0.20620  Biso   1.000  C
  H139     1.0000 0.12810  0.11290  0.23740  Biso   1.000  H
  C148     1.0000 0.14010  0.25650  0.15260  Biso   1.000  C
  H140     1.0000 0.15710  0.30090  0.13840  Biso   1.000  H
  C149     1.0000 0.09040  0.23210  0.12480  Biso   1.000  C
  H141     1.0000 0.06730  0.25570  0.08870  Biso   1.000  H
  C150     1.0000 0.03250  0.11590  0.14760  Biso   1.000  C
  H142     1.0000 0.03640  0.05180  0.13640  Biso   1.000  H
  H143     1.0000 0.00560  0.14530  0.11410  Biso   1.000  H
  C151     1.0000 0.01620  0.11490  0.20180  Biso   1.000  C
  C152     1.0000 0.00710  0.19830  0.22630  Biso   1.000  C
  H144     1.0000 0.01090  0.25510  0.20940  Biso   1.000  H
  C153     1.0000 0.00750  0.03480  0.22620  Biso   1.000  C
  H145     1.0000 0.01180  0.97770  0.21000  Biso   1.000  H
  C154     1.0000 0.29300  0.30160  0.03030  Biso   1.000  C
  H146     1.0000 0.32190  0.33800  0.05060  Biso   1.000  H
  C155     1.0000 0.24820  0.15910  0.01690  Biso   1.000  C
  H147     1.0000 0.24620  0.09720  0.02810  Biso   1.000  H
  C156     1.0000 0.29150  0.21090  0.04680  Biso   1.000  C
  C157     1.0000 0.33480  0.16890  0.09810  Biso   1.000  C
  H148     1.0000 0.33280  0.10100  0.09530  Biso   1.000  H
  H149     1.0000 0.36750  0.18820  0.09620  Biso   1.000  H
  C158     1.0000 0.28955  0.20710  0.16840  Biso   1.000  C
  H150     1.0000 0.25630  0.19890  0.14040  Biso   1.000  H
  C159     1.0000 0.37325  0.21770  0.20800  Biso   1.000  C
  H151     1.0000 0.40810  0.21800  0.21340  Biso   1.000  H
  C160     1.0000 0.35330  0.23560  0.24910  Biso   1.000  C
  H152     1.0000 0.37250  0.25100  0.28870  Biso   1.000  H
  Ag5      1.0000 0.74615  0.28299  0.77937  Biso   1.000  Ag
  P9       1.0000 0.75083  0.44117  0.82015  Biso   1.000  P
  P10      1.0000 0.75443  0.63054  0.67436  Biso   1.000  P
  N17      1.0000 0.66174  0.29160  0.70364  Biso   1.000  N
  N18      1.0000 0.58077  0.33410  0.66000  Biso   1.000  N
  N19      1.0000 0.83250  0.30110  0.65624  Biso   1.000  N
  N20      1.0000 0.80047  0.27180  0.72512  Biso   1.000  N
  C161     1.0000 0.73713  0.53560  0.76446  Biso   1.000  C
  H153     1.0000 0.73940  0.59540  0.78460  Biso   1.000  H
  H154     1.0000 0.70200  0.52870  0.73600  Biso   1.000  H
  C162     1.0000 0.77328  0.53710  0.73064  Biso   1.000  C
  H155     1.0000 0.80840  0.54760  0.75840  Biso   1.000  H
  H156     1.0000 0.77210  0.47710  0.71120  Biso   1.000  H
  C163     1.0000 0.70130  0.45780  0.85185  Biso   1.000  C
  C164     1.0000 0.66520  0.52910  0.83520  Biso   1.000  C
  H157     1.0000 0.66720  0.57560  0.80900  Biso   1.000  H
  C165     1.0000 0.62630  0.53120  0.85770  Biso   1.000  C
  H158     1.0000 0.60130  0.57800  0.84520  Biso   1.000  H
  C166     1.0000 0.62380  0.46550  0.89790  Biso   1.000  C
  H159     1.0000 0.59840  0.46940  0.91420  Biso   1.000  H
  C167     1.0000 0.65870  0.39490  0.91380  Biso   1.000  C
  H160     1.0000 0.65660  0.34930  0.94050  Biso   1.000  H
  C168     1.0000 0.69740  0.38960  0.89090  Biso   1.000  C
  H161     1.0000 0.72070  0.34010  0.90180  Biso   1.000  H
  C169     1.0000 0.81034  0.47740  0.87953  Biso   1.000  C
  C170     1.0000 0.85460  0.43050  0.88650  Biso   1.000  C
  H162     1.0000 0.85360  0.38060  0.86120  Biso   1.000  H
  C171     1.0000 0.90120  0.45560  0.93060  Biso   1.000  C
  H163     1.0000 0.93110  0.42210  0.93550  Biso   1.000  H
  C172     1.0000 0.90260  0.53070  0.96710  Biso   1.000  C
  H164     1.0000 0.93390  0.54890  0.99620  Biso   1.000  H
  C173     1.0000 0.85910  0.57820  0.96110  Biso   1.000  C
  H165     1.0000 0.86030  0.62860  0.98610  Biso   1.000  H
  C174     1.0000 0.81290  0.55150  0.91760  Biso   1.000  C
  H166     1.0000 0.78290  0.58390  0.91380  Biso   1.000  H
  C175     1.0000 0.79970  0.61970  0.63640  Biso   1.000  C
  C176     1.0000 0.85140  0.62730  0.66930  Biso   1.000  C
  H167     1.0000 0.86240  0.63400  0.71070  Biso   1.000  H
  C177     1.0000 0.88760  0.62540  0.64330  Biso   1.000  C
  H168     1.0000 0.92260  0.63130  0.66650  Biso   1.000  H
  C178     1.0000 0.87150  0.61480  0.58300  Biso   1.000  C
  H169     1.0000 0.89570  0.61200  0.56490  Biso   1.000  H
  C179     1.0000 0.81930  0.60820  0.54840  Biso   1.000  C
  H170     1.0000 0.80860  0.60240  0.50700  Biso   1.000  H
  C180     1.0000 0.78360  0.61000  0.57480  Biso   1.000  C
  H171     1.0000 0.74870  0.60490  0.55150  Biso   1.000  H
  C181     1.0000 0.69430  0.59130  0.62000  Biso   1.000  C
  C182     1.0000 0.65790  0.65740  0.59030  Biso   1.000  C
  H172     1.0000 0.66540  0.72060  0.59870  Biso   1.000  H
  C183     1.0000 0.61010  0.63210  0.54820  Biso   1.000  C
  H173     1.0000 0.58580  0.67760  0.52860  Biso   1.000  H
  C184     1.0000 0.59930  0.53740  0.53580  Biso   1.000  C
  H174     1.0000 0.56760  0.51980  0.50740  Biso   1.000  H
  C185     1.0000 0.63360  0.47190  0.56370  Biso   1.000  C
  H175     1.0000 0.62580  0.40880  0.55510  Biso   1.000  H
  C186     1.0000 0.68110  0.49820  0.60610  Biso   1.000  C
  H176     1.0000 0.70470  0.45170  0.62570  Biso   1.000  H
  C187     1.0000 0.62430  0.34550  0.70620  Biso   1.000  C
  H177     1.0000 0.62810  0.38710  0.73740  Biso   1.000  H
  C188     1.0000 0.64010  0.24350  0.65260  Biso   1.000  C
  H178     1.0000 0.65710  0.19910  0.63840  Biso   1.000  H
  C189     1.0000 0.59040  0.26790  0.62480  Biso   1.000  C
  H179     1.0000 0.56730  0.24430  0.58870  Biso   1.000  H
  C190     1.0000 0.53250  0.38410  0.64760  Biso   1.000  C
  H180     1.0000 0.53640  0.44820  0.63640  Biso   1.000  H
  H181     1.0000 0.50560  0.35470  0.61410  Biso   1.000  H
  C191     1.0000 0.51620  0.38510  0.70180  Biso   1.000  C
  C192     1.0000 0.50710  0.30170  0.72630  Biso   1.000  C
  H182     1.0000 0.51090  0.24490  0.70940  Biso   1.000  H
  C193     1.0000 0.50750  0.46520  0.72620  Biso   1.000  C
  H183     1.0000 0.51180  0.52230  0.71000  Biso   1.000  H
  C194     1.0000 0.79300  0.19840  0.53030  Biso   1.000  C
  H184     1.0000 0.82190  0.16200  0.55060  Biso   1.000  H
  C195     1.0000 0.74820  0.34090  0.51690  Biso   1.000  C
  H185     1.0000 0.74620  0.40280  0.52810  Biso   1.000  H
  C196     1.0000 0.79150  0.28910  0.54680  Biso   1.000  C
  C197     1.0000 0.83480  0.33110  0.59810  Biso   1.000  C
  H186     1.0000 0.83280  0.39900  0.59530  Biso   1.000  H
  H187     1.0000 0.86750  0.31180  0.59620  Biso   1.000  H
  C198     1.0000 0.78955  0.29290  0.66840  Biso   1.000  C
  H188     1.0000 0.75630  0.30110  0.64040  Biso   1.000  H
  C199     1.0000 0.87325  0.28230  0.70800  Biso   1.000  C
  H189     1.0000 0.90810  0.28200  0.71340  Biso   1.000  H
  C200     1.0000 0.85330  0.26440  0.74910  Biso   1.000  C
  H190     1.0000 0.87250  0.24900  0.78870  Biso   1.000  H
  Ag6      1.0000 0.24616  0.78299  0.77937  Biso   1.000  Ag
  P11      1.0000 0.25083  0.94117  0.82015  Biso   1.000  P
  P12      1.0000 0.25443  0.13054  0.67436  Biso   1.000  P
  N21      1.0000 0.16174  0.79160  0.70364  Biso   1.000  N
  N22      1.0000 0.08077  0.83410  0.66000  Biso   1.000  N
  N23      1.0000 0.33250  0.80110  0.65624  Biso   1.000  N
  N24      1.0000 0.30047  0.77180  0.72512  Biso   1.000  N
  C201     1.0000 0.23713  0.03560  0.76446  Biso   1.000  C
  H191     1.0000 0.23940  0.09540  0.78460  Biso   1.000  H
  H192     1.0000 0.20200  0.02870  0.73600  Biso   1.000  H
  C202     1.0000 0.27328  0.03710  0.73064  Biso   1.000  C
  H193     1.0000 0.30840  0.04760  0.75840  Biso   1.000  H
  H194     1.0000 0.27210  0.97710  0.71120  Biso   1.000  H
  C203     1.0000 0.20130  0.95780  0.85185  Biso   1.000  C
  C204     1.0000 0.16520  0.02910  0.83520  Biso   1.000  C
  H195     1.0000 0.16720  0.07560  0.80900  Biso   1.000  H
  C205     1.0000 0.12630  0.03120  0.85770  Biso   1.000  C
  H196     1.0000 0.10130  0.07800  0.84520  Biso   1.000  H
  C206     1.0000 0.12380  0.96550  0.89790  Biso   1.000  C
  H197     1.0000 0.09840  0.96940  0.91420  Biso   1.000  H
  C207     1.0000 0.15870  0.89490  0.91380  Biso   1.000  C
  H198     1.0000 0.15660  0.84930  0.94050  Biso   1.000  H
  C208     1.0000 0.19740  0.88960  0.89090  Biso   1.000  C
  H199     1.0000 0.22070  0.84010  0.90180  Biso   1.000  H
  C209     1.0000 0.31034  0.97740  0.87953  Biso   1.000  C
  C210     1.0000 0.35460  0.93050  0.88650  Biso   1.000  C
  H200     1.0000 0.35360  0.88060  0.86120  Biso   1.000  H
  C211     1.0000 0.40120  0.95560  0.93060  Biso   1.000  C
  H201     1.0000 0.43110  0.92210  0.93550  Biso   1.000  H
  C212     1.0000 0.40260  0.03070  0.96710  Biso   1.000  C
  H202     1.0000 0.43390  0.04890  0.99620  Biso   1.000  H
  C213     1.0000 0.35910  0.07820  0.96110  Biso   1.000  C
  H203     1.0000 0.36030  0.12860  0.98610  Biso   1.000  H
  C214     1.0000 0.31290  0.05150  0.91760  Biso   1.000  C
  H204     1.0000 0.28290  0.08390  0.91380  Biso   1.000  H
  C215     1.0000 0.29970  0.11970  0.63640  Biso   1.000  C
  C216     1.0000 0.35140  0.12730  0.66930  Biso   1.000  C
  H205     1.0000 0.36240  0.13400  0.71070  Biso   1.000  H
  C217     1.0000 0.38760  0.12540  0.64330  Biso   1.000  C
  H206     1.0000 0.42260  0.13130  0.66650  Biso   1.000  H
  C218     1.0000 0.37150  0.11480  0.58300  Biso   1.000  C
  H207     1.0000 0.39570  0.11200  0.56490  Biso   1.000  H
  C219     1.0000 0.31930  0.10820  0.54840  Biso   1.000  C
  H208     1.0000 0.30860  0.10240  0.50700  Biso   1.000  H
  C220     1.0000 0.28360  0.11000  0.57480  Biso   1.000  C
  H209     1.0000 0.24870  0.10490  0.55150  Biso   1.000  H
  C221     1.0000 0.19430  0.09130  0.62000  Biso   1.000  C
  C222     1.0000 0.15790  0.15740  0.59030  Biso   1.000  C
  H210     1.0000 0.16540  0.22060  0.59870  Biso   1.000  H
  C223     1.0000 0.11010  0.13210  0.54820  Biso   1.000  C
  H211     1.0000 0.08580  0.17760  0.52860  Biso   1.000  H
  C224     1.0000 0.09930  0.03740  0.53580  Biso   1.000  C
  H212     1.0000 0.06760  0.01980  0.50740  Biso   1.000  H
  C225     1.0000 0.13360  0.97190  0.56370  Biso   1.000  C
  H213     1.0000 0.12580  0.90880  0.55510  Biso   1.000  H
  C226     1.0000 0.18110  0.99820  0.60610  Biso   1.000  C
  H214     1.0000 0.20470  0.95170  0.62570  Biso   1.000  H
  C227     1.0000 0.12430  0.84550  0.70620  Biso   1.000  C
  H215     1.0000 0.12810  0.88710  0.73740  Biso   1.000  H
  C228     1.0000 0.14010  0.74350  0.65260  Biso   1.000  C
  H216     1.0000 0.15710  0.69910  0.63840  Biso   1.000  H
  C229     1.0000 0.09040  0.76790  0.62480  Biso   1.000  C
  H217     1.0000 0.06730  0.74430  0.58870  Biso   1.000  H
  C230     1.0000 0.03250  0.88410  0.64760  Biso   1.000  C
  H218     1.0000 0.03640  0.94820  0.63640  Biso   1.000  H
  H219     1.0000 0.00560  0.85470  0.61410  Biso   1.000  H
  C231     1.0000 0.01620  0.88510  0.70180  Biso   1.000  C
  C232     1.0000 0.00710  0.80170  0.72630  Biso   1.000  C
  H220     1.0000 0.01090  0.74490  0.70940  Biso   1.000  H
  C233     1.0000 0.00750  0.96520  0.72620  Biso   1.000  C
  H221     1.0000 0.01180  0.02230  0.71000  Biso   1.000  H
  C234     1.0000 0.29300  0.69840  0.53030  Biso   1.000  C
  H222     1.0000 0.32190  0.66200  0.55060  Biso   1.000  H
  C235     1.0000 0.24820  0.84090  0.51690  Biso   1.000  C
  H223     1.0000 0.24620  0.90280  0.52810  Biso   1.000  H
  C236     1.0000 0.29150  0.78910  0.54680  Biso   1.000  C
  C237     1.0000 0.33480  0.83110  0.59810  Biso   1.000  C
  H224     1.0000 0.33280  0.89900  0.59530  Biso   1.000  H
  H225     1.0000 0.36750  0.81180  0.59620  Biso   1.000  H
  C238     1.0000 0.28955  0.79290  0.66840  Biso   1.000  C
  H226     1.0000 0.25630  0.80110  0.64040  Biso   1.000  H
  C239     1.0000 0.37325  0.78230  0.70800  Biso   1.000  C
  H227     1.0000 0.40810  0.78200  0.71340  Biso   1.000  H
  C240     1.0000 0.35330  0.76440  0.74910  Biso   1.000  C
  H228     1.0000 0.37250  0.74900  0.78870  Biso   1.000  H
  Ag7      1.0000 0.25384  0.28299  0.72063  Biso   1.000  Ag
  P13      1.0000 0.24917  0.44117  0.67985  Biso   1.000  P
  P14      1.0000 0.24557  0.63054  0.82564  Biso   1.000  P
  N25      1.0000 0.33826  0.29160  0.79636  Biso   1.000  N
  N26      1.0000 0.41923  0.33410  0.84000  Biso   1.000  N
  N27      1.0000 0.16750  0.30110  0.84376  Biso   1.000  N
  N28      1.0000 0.19953  0.27180  0.77488  Biso   1.000  N
  C241     1.0000 0.26287  0.53560  0.73554  Biso   1.000  C
  H229     1.0000 0.26060  0.59540  0.71540  Biso   1.000  H
  H230     1.0000 0.29800  0.52870  0.76400  Biso   1.000  H
  C242     1.0000 0.22672  0.53710  0.76936  Biso   1.000  C
  H231     1.0000 0.19160  0.54760  0.74160  Biso   1.000  H
  H232     1.0000 0.22790  0.47710  0.78880  Biso   1.000  H
  C243     1.0000 0.29870  0.45780  0.64815  Biso   1.000  C
  C244     1.0000 0.33480  0.52910  0.66480  Biso   1.000  C
  H233     1.0000 0.33280  0.57560  0.69100  Biso   1.000  H
  C245     1.0000 0.37370  0.53120  0.64230  Biso   1.000  C
  H234     1.0000 0.39870  0.57800  0.65480  Biso   1.000  H
  C246     1.0000 0.37620  0.46550  0.60210  Biso   1.000  C
  H235     1.0000 0.40160  0.46940  0.58580  Biso   1.000  H
  C247     1.0000 0.34130  0.39490  0.58620  Biso   1.000  C
  H236     1.0000 0.34340  0.34930  0.55950  Biso   1.000  H
  C248     1.0000 0.30260  0.38960  0.60910  Biso   1.000  C
  H237     1.0000 0.27930  0.34010  0.59820  Biso   1.000  H
  C249     1.0000 0.18966  0.47740  0.62047  Biso   1.000  C
  C250     1.0000 0.14540  0.43050  0.61350  Biso   1.000  C
  H238     1.0000 0.14640  0.38060  0.63880  Biso   1.000  H
  C251     1.0000 0.09880  0.45560  0.56940  Biso   1.000  C
  H239     1.0000 0.06890  0.42210  0.56450  Biso   1.000  H
  C252     1.0000 0.09740  0.53070  0.53290  Biso   1.000  C
  H240     1.0000 0.06610  0.54890  0.50380  Biso   1.000  H
  C253     1.0000 0.14090  0.57820  0.53890  Biso   1.000  C
  H241     1.0000 0.13970  0.62860  0.51390  Biso   1.000  H
  C254     1.0000 0.18710  0.55150  0.58240  Biso   1.000  C
  H242     1.0000 0.21710  0.58390  0.58620  Biso   1.000  H
  C255     1.0000 0.20030  0.61970  0.86360  Biso   1.000  C
  C256     1.0000 0.14860  0.62730  0.83070  Biso   1.000  C
  H243     1.0000 0.13760  0.63400  0.78930  Biso   1.000  H
  C257     1.0000 0.11240  0.62540  0.85670  Biso   1.000  C
  H244     1.0000 0.07740  0.63130  0.83350  Biso   1.000  H
  C258     1.0000 0.12850  0.61480  0.91700  Biso   1.000  C
  H245     1.0000 0.10430  0.61200  0.93510  Biso   1.000  H
  C259     1.0000 0.18070  0.60820  0.95160  Biso   1.000  C
  H246     1.0000 0.19140  0.60240  0.99300  Biso   1.000  H
  C260     1.0000 0.21640  0.61000  0.92520  Biso   1.000  C
  H247     1.0000 0.25130  0.60490  0.94850  Biso   1.000  H
  C261     1.0000 0.30570  0.59130  0.88000  Biso   1.000  C
  C262     1.0000 0.34210  0.65740  0.90970  Biso   1.000  C
  H248     1.0000 0.33460  0.72060  0.90130  Biso   1.000  H
  C263     1.0000 0.38990  0.63210  0.95180  Biso   1.000  C
  H249     1.0000 0.41420  0.67760  0.97140  Biso   1.000  H
  C264     1.0000 0.40070  0.53740  0.96420  Biso   1.000  C
  H250     1.0000 0.43240  0.51980  0.99260  Biso   1.000  H
  C265     1.0000 0.36640  0.47190  0.93630  Biso   1.000  C
  H251     1.0000 0.37420  0.40880  0.94490  Biso   1.000  H
  C266     1.0000 0.31890  0.49820  0.89390  Biso   1.000  C
  H252     1.0000 0.29530  0.45170  0.87430  Biso   1.000  H
  C267     1.0000 0.37570  0.34550  0.79380  Biso   1.000  C
  H253     1.0000 0.37190  0.38710  0.76260  Biso   1.000  H
  C268     1.0000 0.35990  0.24350  0.84740  Biso   1.000  C
  H254     1.0000 0.34290  0.19910  0.86160  Biso   1.000  H
  C269     1.0000 0.40960  0.26790  0.87520  Biso   1.000  C
  H255     1.0000 0.43270  0.24430  0.91130  Biso   1.000  H
  C270     1.0000 0.46750  0.38410  0.85240  Biso   1.000  C
  H256     1.0000 0.46360  0.44820  0.86360  Biso   1.000  H
  H257     1.0000 0.49440  0.35470  0.88590  Biso   1.000  H
  C271     1.0000 0.48380  0.38510  0.79820  Biso   1.000  C
  C272     1.0000 0.49290  0.30170  0.77370  Biso   1.000  C
  H258     1.0000 0.48910  0.24490  0.79060  Biso   1.000  H
  C273     1.0000 0.49250  0.46520  0.77380  Biso   1.000  C
  H259     1.0000 0.48820  0.52230  0.79000  Biso   1.000  H
  C274     1.0000 0.20700  0.19840  0.96970  Biso   1.000  C
  H260     1.0000 0.17810  0.16200  0.94940  Biso   1.000  H
  C275     1.0000 0.25180  0.34090  0.98310  Biso   1.000  C
  H261     1.0000 0.25380  0.40280  0.97190  Biso   1.000  H
  C276     1.0000 0.20850  0.28910  0.95320  Biso   1.000  C
  C277     1.0000 0.16520  0.33110  0.90190  Biso   1.000  C
  H262     1.0000 0.16720  0.39900  0.90470  Biso   1.000  H
  H263     1.0000 0.13250  0.31180  0.90380  Biso   1.000  H
  C278     1.0000 0.21045  0.29290  0.83160  Biso   1.000  C
  H264     1.0000 0.24370  0.30110  0.85960  Biso   1.000  H
  C279     1.0000 0.12675  0.28230  0.79200  Biso   1.000  C
  H265     1.0000 0.09190  0.28200  0.78660  Biso   1.000  H
  C280     1.0000 0.14670  0.26440  0.75090  Biso   1.000  C
  H266     1.0000 0.12750  0.24900  0.71130  Biso   1.000  H
  Ag8      1.0000 0.75384  0.78299  0.72063  Biso   1.000  Ag
  P15      1.0000 0.74917  0.94117  0.67985  Biso   1.000  P
  P16      1.0000 0.74557  0.13054  0.82564  Biso   1.000  P
  N29      1.0000 0.83826  0.79160  0.79636  Biso   1.000  N
  N30      1.0000 0.91923  0.83410  0.84000  Biso   1.000  N
  N31      1.0000 0.66750  0.80110  0.84376  Biso   1.000  N
  N32      1.0000 0.69953  0.77180  0.77488  Biso   1.000  N
  C281     1.0000 0.76287  0.03560  0.73554  Biso   1.000  C
  H267     1.0000 0.76060  0.09540  0.71540  Biso   1.000  H
  H268     1.0000 0.79800  0.02870  0.76400  Biso   1.000  H
  C282     1.0000 0.72672  0.03710  0.76936  Biso   1.000  C
  H269     1.0000 0.69160  0.04760  0.74160  Biso   1.000  H
  H270     1.0000 0.72790  0.97710  0.78880  Biso   1.000  H
  C283     1.0000 0.79870  0.95780  0.64815  Biso   1.000  C
  C284     1.0000 0.83480  0.02910  0.66480  Biso   1.000  C
  H271     1.0000 0.83280  0.07560  0.69100  Biso   1.000  H
  C285     1.0000 0.87370  0.03120  0.64230  Biso   1.000  C
  H272     1.0000 0.89870  0.07800  0.65480  Biso   1.000  H
  C286     1.0000 0.87620  0.96550  0.60210  Biso   1.000  C
  H273     1.0000 0.90160  0.96940  0.58580  Biso   1.000  H
  C287     1.0000 0.84130  0.89490  0.58620  Biso   1.000  C
  H274     1.0000 0.84340  0.84930  0.55950  Biso   1.000  H
  C288     1.0000 0.80260  0.88960  0.60910  Biso   1.000  C
  H275     1.0000 0.77930  0.84010  0.59820  Biso   1.000  H
  C289     1.0000 0.68966  0.97740  0.62047  Biso   1.000  C
  C290     1.0000 0.64540  0.93050  0.61350  Biso   1.000  C
  H276     1.0000 0.64640  0.88060  0.63880  Biso   1.000  H
  C291     1.0000 0.59880  0.95560  0.56940  Biso   1.000  C
  H277     1.0000 0.56890  0.92210  0.56450  Biso   1.000  H
  C292     1.0000 0.59740  0.03070  0.53290  Biso   1.000  C
  H278     1.0000 0.56610  0.04890  0.50380  Biso   1.000  H
  C293     1.0000 0.64090  0.07820  0.53890  Biso   1.000  C
  H279     1.0000 0.63970  0.12860  0.51390  Biso   1.000  H
  C294     1.0000 0.68710  0.05150  0.58240  Biso   1.000  C
  H280     1.0000 0.71710  0.08390  0.58620  Biso   1.000  H
  C295     1.0000 0.70030  0.11970  0.86360  Biso   1.000  C
  C296     1.0000 0.64860  0.12730  0.83070  Biso   1.000  C
  H281     1.0000 0.63760  0.13400  0.78930  Biso   1.000  H
  C297     1.0000 0.61240  0.12540  0.85670  Biso   1.000  C
  H282     1.0000 0.57740  0.13130  0.83350  Biso   1.000  H
  C298     1.0000 0.62850  0.11480  0.91700  Biso   1.000  C
  H283     1.0000 0.60430  0.11200  0.93510  Biso   1.000  H
  C299     1.0000 0.68070  0.10820  0.95160  Biso   1.000  C
  H284     1.0000 0.69140  0.10240  0.99300  Biso   1.000  H
  C300     1.0000 0.71640  0.11000  0.92520  Biso   1.000  C
  H285     1.0000 0.75130  0.10490  0.94850  Biso   1.000  H
  C301     1.0000 0.80570  0.09130  0.88000  Biso   1.000  C
  C302     1.0000 0.84210  0.15740  0.90970  Biso   1.000  C
  H286     1.0000 0.83460  0.22060  0.90130  Biso   1.000  H
  C303     1.0000 0.88990  0.13210  0.95180  Biso   1.000  C
  H287     1.0000 0.91420  0.17760  0.97140  Biso   1.000  H
  C304     1.0000 0.90070  0.03740  0.96420  Biso   1.000  C
  H288     1.0000 0.93240  0.01980  0.99260  Biso   1.000  H
  C305     1.0000 0.86640  0.97190  0.93630  Biso   1.000  C
  H289     1.0000 0.87420  0.90880  0.94490  Biso   1.000  H
  C306     1.0000 0.81890  0.99820  0.89390  Biso   1.000  C
  H290     1.0000 0.79530  0.95170  0.87430  Biso   1.000  H
  C307     1.0000 0.87570  0.84550  0.79380  Biso   1.000  C
  H291     1.0000 0.87190  0.88710  0.76260  Biso   1.000  H
  C308     1.0000 0.85990  0.74350  0.84740  Biso   1.000  C
  H292     1.0000 0.84290  0.69910  0.86160  Biso   1.000  H
  C309     1.0000 0.90960  0.76790  0.87520  Biso   1.000  C
  H293     1.0000 0.93270  0.74430  0.91130  Biso   1.000  H
  C310     1.0000 0.96750  0.88410  0.85240  Biso   1.000  C
  H294     1.0000 0.96360  0.94820  0.86360  Biso   1.000  H
  H295     1.0000 0.99440  0.85470  0.88590  Biso   1.000  H
  C311     1.0000 0.98380  0.88510  0.79820  Biso   1.000  C
  C312     1.0000 0.99290  0.80170  0.77370  Biso   1.000  C
  H296     1.0000 0.98910  0.74490  0.79060  Biso   1.000  H
  C313     1.0000 0.99250  0.96520  0.77380  Biso   1.000  C
  H297     1.0000 0.98820  0.02230  0.79000  Biso   1.000  H
  C314     1.0000 0.70700  0.69840  0.96970  Biso   1.000  C
  H298     1.0000 0.67810  0.66200  0.94940  Biso   1.000  H
  C315     1.0000 0.75180  0.84090  0.98310  Biso   1.000  C
  H299     1.0000 0.75380  0.90280  0.97190  Biso   1.000  H
  C316     1.0000 0.70850  0.78910  0.95320  Biso   1.000  C
  C317     1.0000 0.66520  0.83110  0.90190  Biso   1.000  C
  H300     1.0000 0.66720  0.89900  0.90470  Biso   1.000  H
  H301     1.0000 0.63250  0.81180  0.90380  Biso   1.000  H
  C318     1.0000 0.71045  0.79290  0.83160  Biso   1.000  C
  H302     1.0000 0.74370  0.80110  0.85960  Biso   1.000  H
  C319     1.0000 0.62675  0.78230  0.79200  Biso   1.000  C
  H303     1.0000 0.59190  0.78200  0.78660  Biso   1.000  H
  C320     1.0000 0.64670  0.76440  0.75090  Biso   1.000  C
  H304     1.0000 0.62750  0.74900  0.71130  Biso   1.000  H
