data_image0
_cell_length_a       12.8387
_cell_length_b       12.8387
_cell_length_c       64.3824
_cell_angle_alpha    90
_cell_angle_beta     90
_cell_angle_gamma    120

_symmetry_space_group_name_H-M    "P 1"
_symmetry_int_tables_number       1

loop_
  _symmetry_equiv_pos_as_xyz
  'x, y, z'

loop_
  _atom_site_label
  _atom_site_occupancy
  _atom_site_fract_x
  _atom_site_fract_y
  _atom_site_fract_z
  _atom_site_thermal_displace_type
  _atom_site_B_iso_or_equiv
  _atom_site_type_symbol
  Ag1      1.0000 0.96984  0.65218  0.07818  Biso   1.000  Ag
  Ag2      1.0000 0.62473  0.50863  0.16428  Biso   1.000  Ag
  Si1      1.0000 0.97870  0.11940  0.09675  Biso   1.000  Si
  Si2      1.0000 0.42650  0.65350  0.07594  Biso   1.000  Si
  Si3      1.0000 0.51950  0.19230  0.07218  Biso   1.000  Si
  N1       1.0000 0.98310  0.48230  0.08450  Biso   1.000  N
  N2       1.0000 0.89330  0.91930  0.03245  Biso   1.000  N
  N3       1.0000 0.79380  0.65400  0.07945  Biso   1.000  N
  N4       1.0000 0.22760  0.55030  0.14034  Biso   1.000  N
  N5       1.0000 0.14980  0.83070  0.07697  Biso   1.000  N
  N6       1.0000 0.59220  0.41940  0.13331  Biso   1.000  N
  N7       1.0000 0.58460  0.66130  0.16439  Biso   1.000  N
  C1       1.0000 0.98650  0.41530  0.06868  Biso   1.000  C
  H1       1.0000 0.99100  0.44270  0.05510  Biso   1.000  H
  C2       1.0000 0.98350  0.30800  0.07182  Biso   1.000  C
  H2       1.0000 0.98380  0.26420  0.06030  Biso   1.000  H
  C3       1.0000 0.98020  0.26410  0.09096  Biso   1.000  C
  C4       1.0000 0.97940  0.33580  0.10785  Biso   1.000  C
  H3       1.0000 0.97790  0.31140  0.12150  Biso   1.000  H
  C5       1.0000 0.98100  0.44150  0.10357  Biso   1.000  C
  H4       1.0000 0.98050  0.48740  0.11470  Biso   1.000  H
  C6       1.0000 0.11850  0.14230  0.10995  Biso   1.000  C
  H5       1.0000 0.14990  0.09580  0.10330  Biso   1.000  H
  H6       1.0000 0.18030  0.22660  0.11010  Biso   1.000  H
  C7       1.0000 0.07260  0.09640  0.13180  Biso   1.000  C
  H7       1.0000 0.11770  0.06050  0.13730  Biso   1.000  H
  H8       1.0000 0.08980  0.16480  0.14050  Biso   1.000  H
  C8       1.0000 0.95030  0.01250  0.13350  Biso   1.000  C
  H9       1.0000 0.92400  0.01550  0.14750  Biso   1.000  H
  H10      1.0000 0.93890  0.93260  0.13140  Biso   1.000  H
  C9       1.0000 0.87230  0.03150  0.11838  Biso   1.000  C
  H11      1.0000 0.83860  0.07670  0.12470  Biso   1.000  H
  H12      1.0000 0.80730  0.95530  0.11340  Biso   1.000  H
  C10      1.0000 0.94320  0.03160  0.07162  Biso   1.000  C
  C11      1.0000 0.83000  0.98010  0.06223  Biso   1.000  C
  H13      1.0000 0.76780  0.98370  0.06900  Biso   1.000  H
  C12      1.0000 0.80940  0.92570  0.04370  Biso   1.000  C
  H14      1.0000 0.73180  0.89020  0.03840  Biso   1.000  H
  C13      1.0000 0.00120  0.96490  0.04106  Biso   1.000  C
  H15      1.0000 0.06110  0.95840  0.03410  Biso   1.000  H
  C14      1.0000 0.02790  0.02380  0.06075  Biso   1.000  C
  H16      1.0000 0.10540  0.05710  0.06610  Biso   1.000  H
  C15      1.0000 0.75030  0.68540  0.09588  Biso   1.000  C
  H17      1.0000 0.79680  0.71160  0.10790  Biso   1.000  H
  C16      1.0000 0.64140  0.68070  0.09585  Biso   1.000  C
  H18      1.0000 0.61450  0.69970  0.10790  Biso   1.000  H
  C17      1.0000 0.57170  0.64840  0.07835  Biso   1.000  C
  C18      1.0000 0.61690  0.61690  0.06146  Biso   1.000  C
  H19      1.0000 0.57300  0.59330  0.04920  Biso   1.000  H
  C19      1.0000 0.72440  0.61990  0.06247  Biso   1.000  C
  H20      1.0000 0.75080  0.59720  0.05080  Biso   1.000  H
  C20      1.0000 0.45760  0.80340  0.06572  Biso   1.000  C
  H21      1.0000 0.41420  0.83410  0.07360  Biso   1.000  H
  H22      1.0000 0.54290  0.86180  0.06610  Biso   1.000  H
  C21      1.0000 0.41100  0.77310  0.04320  Biso   1.000  C
  H23      1.0000 0.39390  0.83360  0.03780  Biso   1.000  H
  H24      1.0000 0.47100  0.77080  0.03430  Biso   1.000  H
  C22      1.0000 0.29920  0.65320  0.04350  Biso   1.000  C
  H25      1.0000 0.27220  0.62710  0.02940  Biso   1.000  H
  H26      1.0000 0.23610  0.65870  0.05080  Biso   1.000  H
  C23      1.0000 0.32440  0.56300  0.05420  Biso   1.000  C
  H27      1.0000 0.36380  0.53400  0.04490  Biso   1.000  H
  H28      1.0000 0.25100  0.49510  0.05940  Biso   1.000  H
  C24      1.0000 0.35150  0.61610  0.10194  Biso   1.000  C
  C25      1.0000 0.30390  0.67990  0.11120  Biso   1.000  C
  H29      1.0000 0.31210  0.74790  0.10460  Biso   1.000  H
  C26      1.0000 0.24390  0.64600  0.13017  Biso   1.000  C
  H30      1.0000 0.21430  0.69270  0.13580  Biso   1.000  H
  C27      1.0000 0.27330  0.48510  0.13181  Biso   1.000  C
  H31      1.0000 0.26310  0.41720  0.13880  Biso   1.000  H
  C28      1.0000 0.33370  0.51540  0.11337  Biso   1.000  C
  H32      1.0000 0.36390  0.46810  0.10820  Biso   1.000  H
  C29      1.0000 0.20740  0.89070  0.09381  Biso   1.000  C
  H33      1.0000 0.17390  0.85870  0.10670  Biso   1.000  H
  C30      1.0000 0.31490  0.99880  0.09329  Biso   1.000  C
  H34      1.0000 0.35170  0.03750  0.10560  Biso   1.000  H
  C31      1.0000 0.36730  0.04920  0.07444  Biso   1.000  C
  C32      1.0000 0.30520  0.98670  0.05659  Biso   1.000  C
  H35      1.0000 0.33490  0.01770  0.04350  Biso   1.000  H
  C33      1.0000 0.19980  0.87870  0.05866  Biso   1.000  C
  H36      1.0000 0.16130  0.83690  0.04670  Biso   1.000  H
  C34      1.0000 0.64170  0.15450  0.06910  Biso   1.000  C
  H37      1.0000 0.71220  0.20870  0.07710  Biso   1.000  H
  H38      1.0000 0.61460  0.07250  0.07340  Biso   1.000  H
  C35      1.0000 0.66700  0.16900  0.04740  Biso   1.000  C
  H39      1.0000 0.60660  0.09860  0.04010  Biso   1.000  H
  H40      1.0000 0.74470  0.17590  0.04490  Biso   1.000  H
  C36      1.0000 0.54490  0.26870  0.04688  Biso   1.000  C
  H41      1.0000 0.48000  0.22130  0.03730  Biso   1.000  H
  H42      1.0000 0.55280  0.34750  0.04840  Biso   1.000  H
  C37      1.0000 0.66770  0.27900  0.03940  Biso   1.000  C
  H43      1.0000 0.67260  0.28180  0.02430  Biso   1.000  H
  H44      1.0000 0.73580  0.35120  0.04490  Biso   1.000  H
  C38      1.0000 0.54540  0.28660  0.09586  Biso   1.000  C
  C39      1.0000 0.65980  0.36520  0.10229  Biso   1.000  C
  H45      1.0000 0.72490  0.37500  0.09440  Biso   1.000  H
  C40      1.0000 0.67970  0.43060  0.12052  Biso   1.000  C
  H46      1.0000 0.75870  0.48580  0.12410  Biso   1.000  H
  C41      1.0000 0.48230  0.34400  0.12692  Biso   1.000  C
  H47      1.0000 0.41880  0.33320  0.13530  Biso   1.000  H
  C42      1.0000 0.45470  0.27970  0.10861  Biso   1.000  C
  H48      1.0000 0.37470  0.23140  0.10480  Biso   1.000  H
  C43      1.0000 0.66220  0.76510  0.15616  Biso   1.000  C
  H49      1.0000 0.73110  0.77130  0.15020  Biso   1.000  H
  C44      1.0000 0.64950  0.86700  0.15562  Biso   1.000  C
  H50      1.0000 0.70550  0.93560  0.14860  Biso   1.000  H
  C45      1.0000 0.55280  0.86540  0.16568  Biso   1.000  C
  C46      1.0000 0.47320  0.75660  0.17461  Biso   1.000  C
  H51      1.0000 0.40610  0.74870  0.18150  Biso   1.000  H
  C47      1.0000 0.49080  0.65820  0.17353  Biso   1.000  C
  H52      1.0000 0.43340  0.58630  0.17960  Biso   1.000  H
  C48      1.0000 0.44190  0.00720  0.14490  Biso   1.000  C
  H53      1.0000 0.49100  0.07110  0.13520  Biso   1.000  H
  H54      1.0000 0.40080  0.93150  0.13740  Biso   1.000  H
  C49      1.0000 0.35330  0.03290  0.15606  Biso   1.000  C
  H55      1.0000 0.28130  0.00520  0.14770  Biso   1.000  H
  H56      1.0000 0.38870  0.11880  0.15820  Biso   1.000  H
  Ag3      1.0000 0.34782  0.31766  0.74485  Biso   1.000  Ag
  Ag4      1.0000 0.49137  0.11610  0.83095  Biso   1.000  Ag
  Si4      1.0000 0.88060  0.85930  0.76342  Biso   1.000  Si
  Si5      1.0000 0.34650  0.77300  0.74261  Biso   1.000  Si
  Si6      1.0000 0.80770  0.32720  0.73885  Biso   1.000  Si
  N8       1.0000 0.51770  0.50080  0.75117  Biso   1.000  N
  N9       1.0000 0.08070  0.97400  0.69912  Biso   1.000  N
  N10      1.0000 0.34600  0.13980  0.74612  Biso   1.000  N
  N11      1.0000 0.44970  0.67730  0.80701  Biso   1.000  N
  N12      1.0000 0.16930  0.31910  0.74364  Biso   1.000  N
  N13      1.0000 0.58060  0.17280  0.79998  Biso   1.000  N
  N14      1.0000 0.33870  0.92330  0.83106  Biso   1.000  N
  C50      1.0000 0.58470  0.57120  0.73535  Biso   1.000  C
  H57      1.0000 0.55730  0.54830  0.72177  Biso   1.000  H
  C51      1.0000 0.69200  0.67550  0.73849  Biso   1.000  C
  H58      1.0000 0.73580  0.71960  0.72697  Biso   1.000  H
  C52      1.0000 0.73590  0.71610  0.75763  Biso   1.000  C
  C53      1.0000 0.66420  0.64360  0.77452  Biso   1.000  C
  H59      1.0000 0.68860  0.66650  0.78817  Biso   1.000  H
  C54      1.0000 0.55850  0.53950  0.77024  Biso   1.000  C
  H60      1.0000 0.51260  0.49310  0.78137  Biso   1.000  H
  C55      1.0000 0.85770  0.97620  0.77662  Biso   1.000  C
  H61      1.0000 0.90420  0.05410  0.76997  Biso   1.000  H
  H62      1.0000 0.77340  0.95370  0.77677  Biso   1.000  H
  C56      1.0000 0.90360  0.97620  0.79847  Biso   1.000  C
  H63      1.0000 0.93950  0.05720  0.80397  Biso   1.000  H
  H64      1.0000 0.83520  0.92500  0.80717  Biso   1.000  H
  C57      1.0000 0.98750  0.93780  0.80017  Biso   1.000  C
  H65      1.0000 0.98450  0.90850  0.81417  Biso   1.000  H
  H66      1.0000 0.06740  0.00630  0.79807  Biso   1.000  H
  C58      1.0000 0.96850  0.84080  0.78505  Biso   1.000  C
  H67      1.0000 0.92330  0.76190  0.79137  Biso   1.000  H
  H68      1.0000 0.04470  0.85200  0.78007  Biso   1.000  H
  C59      1.0000 0.96840  0.91160  0.73829  Biso   1.000  C
  C60      1.0000 0.01990  0.84990  0.72890  Biso   1.000  C
  H69      1.0000 0.01630  0.78410  0.73567  Biso   1.000  H
  C61      1.0000 0.07430  0.88370  0.71037  Biso   1.000  C
  H70      1.0000 0.10980  0.84160  0.70507  Biso   1.000  H
  C62      1.0000 0.03510  0.03630  0.70773  Biso   1.000  C
  H71      1.0000 0.04160  0.10270  0.70077  Biso   1.000  H
  C63      1.0000 0.97620  0.00410  0.72742  Biso   1.000  C
  H72      1.0000 0.94290  0.04830  0.73277  Biso   1.000  H
  C64      1.0000 0.31460  0.06490  0.76255  Biso   1.000  C
  H73      1.0000 0.28840  0.08520  0.77457  Biso   1.000  H
  C65      1.0000 0.31930  0.96070  0.76252  Biso   1.000  C
  H74      1.0000 0.30030  0.91480  0.77457  Biso   1.000  H
  C66      1.0000 0.35160  0.92330  0.74502  Biso   1.000  C
  C67      1.0000 0.38310  0.00000  0.72813  Biso   1.000  C
  H75      1.0000 0.40670  0.97970  0.71587  Biso   1.000  H
  C68      1.0000 0.38010  0.10450  0.72914  Biso   1.000  C
  H76      1.0000 0.40280  0.15360  0.71747  Biso   1.000  H
  C69      1.0000 0.19660  0.65420  0.73239  Biso   1.000  C
  H77      1.0000 0.16590  0.58010  0.74027  Biso   1.000  H
  H78      1.0000 0.13820  0.68110  0.73277  Biso   1.000  H
  C70      1.0000 0.22690  0.63790  0.70987  Biso   1.000  C
  H79      1.0000 0.16640  0.56030  0.70447  Biso   1.000  H
  H80      1.0000 0.22920  0.70020  0.70097  Biso   1.000  H
  C71      1.0000 0.34680  0.64600  0.71017  Biso   1.000  C
  H81      1.0000 0.37290  0.64510  0.69607  Biso   1.000  H
  H82      1.0000 0.34130  0.57740  0.71747  Biso   1.000  H
  C72      1.0000 0.43700  0.76140  0.72087  Biso   1.000  C
  H83      1.0000 0.46600  0.82980  0.71157  Biso   1.000  H
  H84      1.0000 0.50490  0.75590  0.72607  Biso   1.000  H
  C73      1.0000 0.38390  0.73540  0.76861  Biso   1.000  C
  C74      1.0000 0.32010  0.62400  0.77787  Biso   1.000  C
  H85      1.0000 0.25210  0.56420  0.77127  Biso   1.000  H
  C75      1.0000 0.35400  0.59790  0.79684  Biso   1.000  C
  H86      1.0000 0.30730  0.52160  0.80247  Biso   1.000  H
  C76      1.0000 0.51490  0.78820  0.79848  Biso   1.000  C
  H87      1.0000 0.58280  0.84590  0.80547  Biso   1.000  H
  C77      1.0000 0.48460  0.81830  0.78004  Biso   1.000  C
  H88      1.0000 0.53190  0.89580  0.77487  Biso   1.000  H
  C78      1.0000 0.10930  0.31670  0.76048  Biso   1.000  C
  H89      1.0000 0.14130  0.31520  0.77337  Biso   1.000  H
  C79      1.0000 0.00120  0.31610  0.75996  Biso   1.000  C
  H90      1.0000 0.96250  0.31420  0.77227  Biso   1.000  H
  C80      1.0000 0.95080  0.31810  0.74111  Biso   1.000  C
  C81      1.0000 0.01330  0.31850  0.72326  Biso   1.000  C
  H91      1.0000 0.98230  0.31720  0.71017  Biso   1.000  H
  C82      1.0000 0.12130  0.32110  0.72533  Biso   1.000  C
  H92      1.0000 0.16310  0.32440  0.71337  Biso   1.000  H
  C83      1.0000 0.84550  0.48720  0.73577  Biso   1.000  C
  H93      1.0000 0.79130  0.50350  0.74377  Biso   1.000  H
  H94      1.0000 0.92750  0.54210  0.74007  Biso   1.000  H
  C84      1.0000 0.83100  0.49800  0.71407  Biso   1.000  C
  H95      1.0000 0.90140  0.50800  0.70677  Biso   1.000  H
  H96      1.0000 0.82410  0.56880  0.71157  Biso   1.000  H
  C85      1.0000 0.73130  0.27620  0.71355  Biso   1.000  C
  H97      1.0000 0.77870  0.25870  0.70397  Biso   1.000  H
  H98      1.0000 0.65250  0.20530  0.71507  Biso   1.000  H
  C86      1.0000 0.72100  0.38870  0.70607  Biso   1.000  C
  H99      1.0000 0.71820  0.39080  0.69097  Biso   1.000  H
  H100     1.0000 0.64880  0.38460  0.71157  Biso   1.000  H
  C87      1.0000 0.71340  0.25880  0.76253  Biso   1.000  C
  C88      1.0000 0.63480  0.29460  0.76896  Biso   1.000  C
  H101     1.0000 0.62500  0.34990  0.76107  Biso   1.000  H
  C89      1.0000 0.56940  0.24910  0.78719  Biso   1.000  C
  H102     1.0000 0.51420  0.27290  0.79077  Biso   1.000  H
  C90      1.0000 0.65600  0.13830  0.79359  Biso   1.000  C
  H103     1.0000 0.66680  0.08560  0.80197  Biso   1.000  H
  C91      1.0000 0.72030  0.17500  0.77528  Biso   1.000  C
  H104     1.0000 0.76860  0.14330  0.77147  Biso   1.000  H
  C92      1.0000 0.23490  0.89710  0.82283  Biso   1.000  C
  H105     1.0000 0.22870  0.95980  0.81687  Biso   1.000  H
  C93      1.0000 0.13300  0.78250  0.82229  Biso   1.000  C
  H106     1.0000 0.06440  0.76990  0.81527  Biso   1.000  H
  C94      1.0000 0.13460  0.68740  0.83235  Biso   1.000  C
  C95      1.0000 0.24340  0.71660  0.84128  Biso   1.000  C
  H107     1.0000 0.25130  0.65740  0.84817  Biso   1.000  H
  C96      1.0000 0.34180  0.83260  0.84020  Biso   1.000  C
  H108     1.0000 0.41370  0.84710  0.84627  Biso   1.000  H
  C97      1.0000 0.99280  0.43470  0.81157  Biso   1.000  C
  H109     1.0000 0.92890  0.41990  0.80187  Biso   1.000  H
  H110     1.0000 0.06850  0.46930  0.80407  Biso   1.000  H
  C98      1.0000 0.96710  0.32040  0.82273  Biso   1.000  C
  H111     1.0000 0.99480  0.27610  0.81437  Biso   1.000  H
  H112     1.0000 0.88120  0.26990  0.82487  Biso   1.000  H
  Ag5      1.0000 0.68234  0.03016  0.41151  Biso   1.000  Ag
  Ag6      1.0000 0.88390  0.37527  0.49761  Biso   1.000  Ag
  Si7      1.0000 0.14070  0.02130  0.43008  Biso   1.000  Si
  Si8      1.0000 0.22700  0.57350  0.40927  Biso   1.000  Si
  Si9      1.0000 0.67280  0.48050  0.40551  Biso   1.000  Si
  N15      1.0000 0.49920  0.01690  0.41783  Biso   1.000  N
  N16      1.0000 0.02600  0.10670  0.36578  Biso   1.000  N
  N17      1.0000 0.86020  0.20620  0.41278  Biso   1.000  N
  N18      1.0000 0.32270  0.77240  0.47367  Biso   1.000  N
  N19      1.0000 0.68090  0.85020  0.41030  Biso   1.000  N
  N20      1.0000 0.82720  0.40780  0.46664  Biso   1.000  N
  N21      1.0000 0.07670  0.41540  0.49772  Biso   1.000  N
  C99      1.0000 0.42880  0.01350  0.40201  Biso   1.000  C
  H113     1.0000 0.45170  0.00900  0.38843  Biso   1.000  H
  C100     1.0000 0.32450  0.01650  0.40515  Biso   1.000  C
  H114     1.0000 0.28040  0.01620  0.39363  Biso   1.000  H
  C101     1.0000 0.28390  0.01980  0.42429  Biso   1.000  C
  C102     1.0000 0.35640  0.02060  0.44118  Biso   1.000  C
  H115     1.0000 0.33350  0.02210  0.45483  Biso   1.000  H
  C103     1.0000 0.46050  0.01900  0.43690  Biso   1.000  C
  H116     1.0000 0.50690  0.01950  0.44803  Biso   1.000  H
  C104     1.0000 0.02380  0.88150  0.44328  Biso   1.000  C
  H117     1.0000 0.94590  0.85010  0.43663  Biso   1.000  H
  H118     1.0000 0.04630  0.81970  0.44343  Biso   1.000  H
  C105     1.0000 0.02380  0.92740  0.46513  Biso   1.000  C
  H119     1.0000 0.94280  0.88230  0.47063  Biso   1.000  H
  H120     1.0000 0.07500  0.91020  0.47383  Biso   1.000  H
  C106     1.0000 0.06220  0.04970  0.46683  Biso   1.000  C
  H121     1.0000 0.09150  0.07600  0.48083  Biso   1.000  H
  H122     1.0000 0.99370  0.06110  0.46473  Biso   1.000  H
  C107     1.0000 0.15920  0.12770  0.45171  Biso   1.000  C
  H123     1.0000 0.23810  0.16140  0.45803  Biso   1.000  H
  H124     1.0000 0.14800  0.19270  0.44673  Biso   1.000  H
  C108     1.0000 0.08840  0.05680  0.40495  Biso   1.000  C
  C109     1.0000 0.15010  0.17000  0.39556  Biso   1.000  C
  H125     1.0000 0.21590  0.23220  0.40233  Biso   1.000  H
  C110     1.0000 0.11630  0.19060  0.37703  Biso   1.000  C
  H126     1.0000 0.15840  0.26820  0.37173  Biso   1.000  H
  C111     1.0000 0.96370  0.99880  0.37439  Biso   1.000  C
  H127     1.0000 0.89730  0.93890  0.36743  Biso   1.000  H
  C112     1.0000 0.99590  0.97210  0.39408  Biso   1.000  C
  H128     1.0000 0.95170  0.89460  0.39943  Biso   1.000  H
  C113     1.0000 0.93510  0.24970  0.42921  Biso   1.000  C
  H129     1.0000 0.91480  0.20320  0.44123  Biso   1.000  H
  C114     1.0000 0.03930  0.35860  0.42918  Biso   1.000  C
  H130     1.0000 0.08520  0.38550  0.44123  Biso   1.000  H
  C115     1.0000 0.07670  0.42830  0.41168  Biso   1.000  C
  C116     1.0000 0.00000  0.38310  0.39479  Biso   1.000  C
  H131     1.0000 0.02030  0.42700  0.38253  Biso   1.000  H
  C117     1.0000 0.89550  0.27560  0.39580  Biso   1.000  C
  H132     1.0000 0.84640  0.24920  0.38413  Biso   1.000  H
  C118     1.0000 0.34580  0.54240  0.39905  Biso   1.000  C
  H133     1.0000 0.41990  0.58580  0.40693  Biso   1.000  H
  H134     1.0000 0.31890  0.45710  0.39943  Biso   1.000  H
  C119     1.0000 0.36210  0.58900  0.37653  Biso   1.000  C
  H135     1.0000 0.43970  0.60610  0.37113  Biso   1.000  H
  H136     1.0000 0.29980  0.52900  0.36763  Biso   1.000  H
  C120     1.0000 0.35400  0.70080  0.37683  Biso   1.000  C
  H137     1.0000 0.35490  0.72780  0.36273  Biso   1.000  H
  H138     1.0000 0.42260  0.76390  0.38413  Biso   1.000  H
  C121     1.0000 0.23860  0.67560  0.38753  Biso   1.000  C
  H139     1.0000 0.17020  0.63620  0.37823  Biso   1.000  H
  H140     1.0000 0.24410  0.74900  0.39273  Biso   1.000  H
  C122     1.0000 0.26460  0.64850  0.43527  Biso   1.000  C
  C123     1.0000 0.37600  0.69610  0.44453  Biso   1.000  C
  H141     1.0000 0.43580  0.68790  0.43793  Biso   1.000  H
  C124     1.0000 0.40210  0.75610  0.46350  Biso   1.000  C
  H142     1.0000 0.47840  0.78570  0.46913  Biso   1.000  H
  C125     1.0000 0.21180  0.72670  0.46514  Biso   1.000  C
  H143     1.0000 0.15410  0.73690  0.47213  Biso   1.000  H
  C126     1.0000 0.18170  0.66630  0.44670  Biso   1.000  C
  H144     1.0000 0.10420  0.63610  0.44153  Biso   1.000  H
  C127     1.0000 0.68330  0.79260  0.42714  Biso   1.000  C
  H145     1.0000 0.68480  0.82610  0.44003  Biso   1.000  H
  C128     1.0000 0.68390  0.68510  0.42662  Biso   1.000  C
  H146     1.0000 0.68580  0.64830  0.43893  Biso   1.000  H
  C129     1.0000 0.68190  0.63270  0.40777  Biso   1.000  C
  C130     1.0000 0.68150  0.69480  0.38992  Biso   1.000  C
  H147     1.0000 0.68280  0.66510  0.37683  Biso   1.000  H
  C131     1.0000 0.67890  0.80020  0.39199  Biso   1.000  C
  H148     1.0000 0.67560  0.83870  0.38003  Biso   1.000  H
  C132     1.0000 0.51280  0.35830  0.40243  Biso   1.000  C
  H149     1.0000 0.49650  0.28780  0.41043  Biso   1.000  H
  H150     1.0000 0.45790  0.38540  0.40673  Biso   1.000  H
  C133     1.0000 0.50200  0.33300  0.38073  Biso   1.000  C
  H151     1.0000 0.49200  0.39340  0.37343  Biso   1.000  H
  H152     1.0000 0.43120  0.25530  0.37823  Biso   1.000  H
  C134     1.0000 0.72380  0.45510  0.38021  Biso   1.000  C
  H153     1.0000 0.74130  0.52000  0.37063  Biso   1.000  H
  H154     1.0000 0.79470  0.44720  0.38173  Biso   1.000  H
  C135     1.0000 0.61130  0.33230  0.37273  Biso   1.000  C
  H155     1.0000 0.60920  0.32740  0.35763  Biso   1.000  H
  H156     1.0000 0.61540  0.26420  0.37823  Biso   1.000  H
  C136     1.0000 0.74120  0.45460  0.42919  Biso   1.000  C
  C137     1.0000 0.70540  0.34020  0.43562  Biso   1.000  C
  H157     1.0000 0.65010  0.27510  0.42773  Biso   1.000  H
  C138     1.0000 0.75090  0.32030  0.45385  Biso   1.000  C
  H158     1.0000 0.72710  0.24130  0.45743  Biso   1.000  H
  C139     1.0000 0.86170  0.51770  0.46025  Biso   1.000  C
  H159     1.0000 0.91440  0.58120  0.46863  Biso   1.000  H
  C140     1.0000 0.82500  0.54530  0.44194  Biso   1.000  C
  H160     1.0000 0.85670  0.62530  0.43813  Biso   1.000  H
  C141     1.0000 0.10290  0.33780  0.48949  Biso   1.000  C
  H161     1.0000 0.04020  0.26890  0.48353  Biso   1.000  H
  C142     1.0000 0.21750  0.35050  0.48895  Biso   1.000  C
  H162     1.0000 0.23010  0.29450  0.48193  Biso   1.000  H
  C143     1.0000 0.31260  0.44720  0.49901  Biso   1.000  C
  C144     1.0000 0.28340  0.52680  0.50794  Biso   1.000  C
  H163     1.0000 0.34260  0.59390  0.51483  Biso   1.000  H
  C145     1.0000 0.16740  0.50920  0.50686  Biso   1.000  C
  H164     1.0000 0.15290  0.56660  0.51293  Biso   1.000  H
  C146     1.0000 0.56530  0.55810  0.47823  Biso   1.000  C
  H165     1.0000 0.58010  0.50900  0.46853  Biso   1.000  H
  H166     1.0000 0.53070  0.59920  0.47073  Biso   1.000  H
  C147     1.0000 0.67960  0.64670  0.48939  Biso   1.000  C
  H167     1.0000 0.72390  0.71870  0.48103  Biso   1.000  H
  H168     1.0000 0.73010  0.61130  0.49153  Biso   1.000  H
  Ag7      1.0000 0.65218  0.96984  0.92182  Biso   1.000  Ag
  Ag8      1.0000 0.50863  0.62473  0.83572  Biso   1.000  Ag
  Si10     1.0000 0.11940  0.97870  0.90325  Biso   1.000  Si
  Si11     1.0000 0.65350  0.42650  0.92406  Biso   1.000  Si
  Si12     1.0000 0.19230  0.51950  0.92782  Biso   1.000  Si
  N22      1.0000 0.48230  0.98310  0.91550  Biso   1.000  N
  N23      1.0000 0.91930  0.89330  0.96755  Biso   1.000  N
  N24      1.0000 0.65400  0.79380  0.92055  Biso   1.000  N
  N25      1.0000 0.55030  0.22760  0.85966  Biso   1.000  N
  N26      1.0000 0.83070  0.14980  0.92303  Biso   1.000  N
  N27      1.0000 0.41940  0.59220  0.86669  Biso   1.000  N
  N28      1.0000 0.66130  0.58460  0.83561  Biso   1.000  N
  C148     1.0000 0.41530  0.98650  0.93132  Biso   1.000  C
  H169     1.0000 0.44270  0.99100  0.94490  Biso   1.000  H
  C149     1.0000 0.30800  0.98350  0.92818  Biso   1.000  C
  H170     1.0000 0.26420  0.98380  0.93970  Biso   1.000  H
  C150     1.0000 0.26410  0.98020  0.90904  Biso   1.000  C
  C151     1.0000 0.33580  0.97940  0.89215  Biso   1.000  C
  H171     1.0000 0.31140  0.97790  0.87850  Biso   1.000  H
  C152     1.0000 0.44150  0.98100  0.89643  Biso   1.000  C
  H172     1.0000 0.48740  0.98050  0.88530  Biso   1.000  H
  C153     1.0000 0.14230  0.11850  0.89005  Biso   1.000  C
  H173     1.0000 0.09580  0.14990  0.89670  Biso   1.000  H
  H174     1.0000 0.22660  0.18030  0.88990  Biso   1.000  H
  C154     1.0000 0.09640  0.07260  0.86820  Biso   1.000  C
  H175     1.0000 0.06050  0.11770  0.86270  Biso   1.000  H
  H176     1.0000 0.16480  0.08980  0.85950  Biso   1.000  H
  C155     1.0000 0.01250  0.95030  0.86650  Biso   1.000  C
  H177     1.0000 0.01550  0.92400  0.85250  Biso   1.000  H
  H178     1.0000 0.93260  0.93890  0.86860  Biso   1.000  H
  C156     1.0000 0.03150  0.87230  0.88162  Biso   1.000  C
  H179     1.0000 0.07670  0.83860  0.87530  Biso   1.000  H
  H180     1.0000 0.95530  0.80730  0.88660  Biso   1.000  H
  C157     1.0000 0.03160  0.94320  0.92838  Biso   1.000  C
  C158     1.0000 0.98010  0.83000  0.93777  Biso   1.000  C
  H181     1.0000 0.98370  0.76780  0.93100  Biso   1.000  H
  C159     1.0000 0.92570  0.80940  0.95630  Biso   1.000  C
  H182     1.0000 0.89020  0.73180  0.96160  Biso   1.000  H
  C160     1.0000 0.96490  0.00120  0.95894  Biso   1.000  C
  H183     1.0000 0.95840  0.06110  0.96590  Biso   1.000  H
  C161     1.0000 0.02380  0.02790  0.93925  Biso   1.000  C
  H184     1.0000 0.05710  0.10540  0.93390  Biso   1.000  H
  C162     1.0000 0.68540  0.75030  0.90412  Biso   1.000  C
  H185     1.0000 0.71160  0.79680  0.89210  Biso   1.000  H
  C163     1.0000 0.68070  0.64140  0.90415  Biso   1.000  C
  H186     1.0000 0.69970  0.61450  0.89210  Biso   1.000  H
  C164     1.0000 0.64840  0.57170  0.92165  Biso   1.000  C
  C165     1.0000 0.61690  0.61690  0.93854  Biso   1.000  C
  H187     1.0000 0.59330  0.57300  0.95080  Biso   1.000  H
  C166     1.0000 0.61990  0.72440  0.93753  Biso   1.000  C
  H188     1.0000 0.59720  0.75080  0.94920  Biso   1.000  H
  C167     1.0000 0.80340  0.45760  0.93428  Biso   1.000  C
  H189     1.0000 0.83410  0.41420  0.92640  Biso   1.000  H
  H190     1.0000 0.86180  0.54290  0.93390  Biso   1.000  H
  C168     1.0000 0.77310  0.41100  0.95680  Biso   1.000  C
  H191     1.0000 0.83360  0.39390  0.96220  Biso   1.000  H
  H192     1.0000 0.77080  0.47100  0.96570  Biso   1.000  H
  C169     1.0000 0.65320  0.29920  0.95650  Biso   1.000  C
  H193     1.0000 0.62710  0.27220  0.97060  Biso   1.000  H
  H194     1.0000 0.65870  0.23610  0.94920  Biso   1.000  H
  C170     1.0000 0.56300  0.32440  0.94580  Biso   1.000  C
  H195     1.0000 0.53400  0.36380  0.95510  Biso   1.000  H
  H196     1.0000 0.49510  0.25100  0.94060  Biso   1.000  H
  C171     1.0000 0.61610  0.35150  0.89806  Biso   1.000  C
  C172     1.0000 0.67990  0.30390  0.88880  Biso   1.000  C
  H197     1.0000 0.74790  0.31210  0.89540  Biso   1.000  H
  C173     1.0000 0.64600  0.24390  0.86983  Biso   1.000  C
  H198     1.0000 0.69270  0.21430  0.86420  Biso   1.000  H
  C174     1.0000 0.48510  0.27330  0.86819  Biso   1.000  C
  H199     1.0000 0.41720  0.26310  0.86120  Biso   1.000  H
  C175     1.0000 0.51540  0.33370  0.88663  Biso   1.000  C
  H200     1.0000 0.46810  0.36390  0.89180  Biso   1.000  H
  C176     1.0000 0.89070  0.20740  0.90619  Biso   1.000  C
  H201     1.0000 0.85870  0.17390  0.89330  Biso   1.000  H
  C177     1.0000 0.99880  0.31490  0.90671  Biso   1.000  C
  H202     1.0000 0.03750  0.35170  0.89440  Biso   1.000  H
  C178     1.0000 0.04920  0.36730  0.92556  Biso   1.000  C
  C179     1.0000 0.98670  0.30520  0.94341  Biso   1.000  C
  H203     1.0000 0.01770  0.33490  0.95650  Biso   1.000  H
  C180     1.0000 0.87870  0.19980  0.94134  Biso   1.000  C
  H204     1.0000 0.83690  0.16130  0.95330  Biso   1.000  H
  C181     1.0000 0.15450  0.64170  0.93090  Biso   1.000  C
  H205     1.0000 0.20870  0.71220  0.92290  Biso   1.000  H
  H206     1.0000 0.07250  0.61460  0.92660  Biso   1.000  H
  C182     1.0000 0.16900  0.66700  0.95260  Biso   1.000  C
  H207     1.0000 0.09860  0.60660  0.95990  Biso   1.000  H
  H208     1.0000 0.17590  0.74470  0.95510  Biso   1.000  H
  C183     1.0000 0.26870  0.54490  0.95312  Biso   1.000  C
  H209     1.0000 0.22130  0.48000  0.96270  Biso   1.000  H
  H210     1.0000 0.34750  0.55280  0.95160  Biso   1.000  H
  C184     1.0000 0.27900  0.66770  0.96060  Biso   1.000  C
  H211     1.0000 0.28180  0.67260  0.97570  Biso   1.000  H
  H212     1.0000 0.35120  0.73580  0.95510  Biso   1.000  H
  C185     1.0000 0.28660  0.54540  0.90414  Biso   1.000  C
  C186     1.0000 0.36520  0.65980  0.89771  Biso   1.000  C
  H213     1.0000 0.37500  0.72490  0.90560  Biso   1.000  H
  C187     1.0000 0.43060  0.67970  0.87948  Biso   1.000  C
  H214     1.0000 0.48580  0.75870  0.87590  Biso   1.000  H
  C188     1.0000 0.34400  0.48230  0.87308  Biso   1.000  C
  H215     1.0000 0.33320  0.41880  0.86470  Biso   1.000  H
  C189     1.0000 0.27970  0.45470  0.89139  Biso   1.000  C
  H216     1.0000 0.23140  0.37470  0.89520  Biso   1.000  H
  C190     1.0000 0.76510  0.66220  0.84384  Biso   1.000  C
  H217     1.0000 0.77130  0.73110  0.84980  Biso   1.000  H
  C191     1.0000 0.86700  0.64950  0.84438  Biso   1.000  C
  H218     1.0000 0.93560  0.70550  0.85140  Biso   1.000  H
  C192     1.0000 0.86540  0.55280  0.83432  Biso   1.000  C
  C193     1.0000 0.75660  0.47320  0.82539  Biso   1.000  C
  H219     1.0000 0.74870  0.40610  0.81850  Biso   1.000  H
  C194     1.0000 0.65820  0.49080  0.82647  Biso   1.000  C
  H220     1.0000 0.58630  0.43340  0.82040  Biso   1.000  H
  C195     1.0000 0.00720  0.44190  0.85510  Biso   1.000  C
  H221     1.0000 0.07110  0.49100  0.86480  Biso   1.000  H
  H222     1.0000 0.93150  0.40080  0.86260  Biso   1.000  H
  C196     1.0000 0.03290  0.35330  0.84394  Biso   1.000  C
  H223     1.0000 0.00520  0.28130  0.85230  Biso   1.000  H
  H224     1.0000 0.11880  0.38870  0.84180  Biso   1.000  H
  Ag9      1.0000 0.31766  0.34782  0.25515  Biso   1.000  Ag
  Ag10     1.0000 0.11610  0.49137  0.16905  Biso   1.000  Ag
  Si13     1.0000 0.85930  0.88060  0.23658  Biso   1.000  Si
  Si14     1.0000 0.77300  0.34650  0.25739  Biso   1.000  Si
  Si15     1.0000 0.32720  0.80770  0.26115  Biso   1.000  Si
  N29      1.0000 0.50080  0.51770  0.24883  Biso   1.000  N
  N30      1.0000 0.97400  0.08070  0.30088  Biso   1.000  N
  N31      1.0000 0.13980  0.34600  0.25388  Biso   1.000  N
  N32      1.0000 0.67730  0.44970  0.19299  Biso   1.000  N
  N33      1.0000 0.31910  0.16930  0.25636  Biso   1.000  N
  N34      1.0000 0.17280  0.58060  0.20002  Biso   1.000  N
  N35      1.0000 0.92330  0.33870  0.16894  Biso   1.000  N
  C197     1.0000 0.57120  0.58470  0.26465  Biso   1.000  C
  H225     1.0000 0.54830  0.55730  0.27823  Biso   1.000  H
  C198     1.0000 0.67550  0.69200  0.26151  Biso   1.000  C
  H226     1.0000 0.71960  0.73580  0.27303  Biso   1.000  H
  C199     1.0000 0.71610  0.73590  0.24237  Biso   1.000  C
  C200     1.0000 0.64360  0.66420  0.22548  Biso   1.000  C
  H227     1.0000 0.66650  0.68860  0.21183  Biso   1.000  H
  C201     1.0000 0.53950  0.55850  0.22976  Biso   1.000  C
  H228     1.0000 0.49310  0.51260  0.21863  Biso   1.000  H
  C202     1.0000 0.97620  0.85770  0.22338  Biso   1.000  C
  H229     1.0000 0.05410  0.90420  0.23003  Biso   1.000  H
  H230     1.0000 0.95370  0.77340  0.22323  Biso   1.000  H
  C203     1.0000 0.97620  0.90360  0.20153  Biso   1.000  C
  H231     1.0000 0.05720  0.93950  0.19603  Biso   1.000  H
  H232     1.0000 0.92500  0.83520  0.19283  Biso   1.000  H
  C204     1.0000 0.93780  0.98750  0.19983  Biso   1.000  C
  H233     1.0000 0.90850  0.98450  0.18583  Biso   1.000  H
  H234     1.0000 0.00630  0.06740  0.20193  Biso   1.000  H
  C205     1.0000 0.84080  0.96850  0.21495  Biso   1.000  C
  H235     1.0000 0.76190  0.92330  0.20863  Biso   1.000  H
  H236     1.0000 0.85200  0.04470  0.21993  Biso   1.000  H
  C206     1.0000 0.91160  0.96840  0.26171  Biso   1.000  C
  C207     1.0000 0.84990  0.01990  0.27110  Biso   1.000  C
  H237     1.0000 0.78410  0.01630  0.26433  Biso   1.000  H
  C208     1.0000 0.88370  0.07430  0.28963  Biso   1.000  C
  H238     1.0000 0.84160  0.10980  0.29493  Biso   1.000  H
  C209     1.0000 0.03630  0.03510  0.29227  Biso   1.000  C
  H239     1.0000 0.10270  0.04160  0.29923  Biso   1.000  H
  C210     1.0000 0.00410  0.97620  0.27258  Biso   1.000  C
  H240     1.0000 0.04830  0.94290  0.26723  Biso   1.000  H
  C211     1.0000 0.06490  0.31460  0.23745  Biso   1.000  C
  H241     1.0000 0.08520  0.28840  0.22543  Biso   1.000  H
  C212     1.0000 0.96070  0.31930  0.23748  Biso   1.000  C
  H242     1.0000 0.91480  0.30030  0.22543  Biso   1.000  H
  C213     1.0000 0.92330  0.35160  0.25498  Biso   1.000  C
  C214     1.0000 0.00000  0.38310  0.27187  Biso   1.000  C
  H243     1.0000 0.97970  0.40670  0.28413  Biso   1.000  H
  C215     1.0000 0.10450  0.38010  0.27086  Biso   1.000  C
  H244     1.0000 0.15360  0.40280  0.28253  Biso   1.000  H
  C216     1.0000 0.65420  0.19660  0.26761  Biso   1.000  C
  H245     1.0000 0.58010  0.16590  0.25973  Biso   1.000  H
  H246     1.0000 0.68110  0.13820  0.26723  Biso   1.000  H
  C217     1.0000 0.63790  0.22690  0.29013  Biso   1.000  C
  H247     1.0000 0.56030  0.16640  0.29553  Biso   1.000  H
  H248     1.0000 0.70020  0.22920  0.29903  Biso   1.000  H
  C218     1.0000 0.64600  0.34680  0.28983  Biso   1.000  C
  H249     1.0000 0.64510  0.37290  0.30393  Biso   1.000  H
  H250     1.0000 0.57740  0.34130  0.28253  Biso   1.000  H
  C219     1.0000 0.76140  0.43700  0.27913  Biso   1.000  C
  H251     1.0000 0.82980  0.46600  0.28843  Biso   1.000  H
  H252     1.0000 0.75590  0.50490  0.27393  Biso   1.000  H
  C220     1.0000 0.73540  0.38390  0.23139  Biso   1.000  C
  C221     1.0000 0.62400  0.32010  0.22213  Biso   1.000  C
  H253     1.0000 0.56420  0.25210  0.22873  Biso   1.000  H
  C222     1.0000 0.59790  0.35400  0.20316  Biso   1.000  C
  H254     1.0000 0.52160  0.30730  0.19753  Biso   1.000  H
  C223     1.0000 0.78820  0.51490  0.20152  Biso   1.000  C
  H255     1.0000 0.84590  0.58280  0.19453  Biso   1.000  H
  C224     1.0000 0.81830  0.48460  0.21996  Biso   1.000  C
  H256     1.0000 0.89580  0.53190  0.22513  Biso   1.000  H
  C225     1.0000 0.31670  0.10930  0.23952  Biso   1.000  C
  H257     1.0000 0.31520  0.14130  0.22663  Biso   1.000  H
  C226     1.0000 0.31610  0.00120  0.24004  Biso   1.000  C
  H258     1.0000 0.31420  0.96250  0.22773  Biso   1.000  H
  C227     1.0000 0.31810  0.95080  0.25889  Biso   1.000  C
  C228     1.0000 0.31850  0.01330  0.27674  Biso   1.000  C
  H259     1.0000 0.31720  0.98230  0.28983  Biso   1.000  H
  C229     1.0000 0.32110  0.12130  0.27467  Biso   1.000  C
  H260     1.0000 0.32440  0.16310  0.28663  Biso   1.000  H
  C230     1.0000 0.48720  0.84550  0.26423  Biso   1.000  C
  H261     1.0000 0.50350  0.79130  0.25623  Biso   1.000  H
  H262     1.0000 0.54210  0.92750  0.25993  Biso   1.000  H
  C231     1.0000 0.49800  0.83100  0.28593  Biso   1.000  C
  H263     1.0000 0.50800  0.90140  0.29323  Biso   1.000  H
  H264     1.0000 0.56880  0.82410  0.28843  Biso   1.000  H
  C232     1.0000 0.27620  0.73130  0.28645  Biso   1.000  C
  H265     1.0000 0.25870  0.77870  0.29603  Biso   1.000  H
  H266     1.0000 0.20530  0.65250  0.28493  Biso   1.000  H
  C233     1.0000 0.38870  0.72100  0.29393  Biso   1.000  C
  H267     1.0000 0.39080  0.71820  0.30903  Biso   1.000  H
  H268     1.0000 0.38460  0.64880  0.28843  Biso   1.000  H
  C234     1.0000 0.25880  0.71340  0.23747  Biso   1.000  C
  C235     1.0000 0.29460  0.63480  0.23104  Biso   1.000  C
  H269     1.0000 0.34990  0.62500  0.23893  Biso   1.000  H
  C236     1.0000 0.24910  0.56940  0.21281  Biso   1.000  C
  H270     1.0000 0.27290  0.51420  0.20923  Biso   1.000  H
  C237     1.0000 0.13830  0.65600  0.20641  Biso   1.000  C
  H271     1.0000 0.08560  0.66680  0.19803  Biso   1.000  H
  C238     1.0000 0.17500  0.72030  0.22472  Biso   1.000  C
  H272     1.0000 0.14330  0.76860  0.22853  Biso   1.000  H
  C239     1.0000 0.89710  0.23490  0.17717  Biso   1.000  C
  H273     1.0000 0.95980  0.22870  0.18313  Biso   1.000  H
  C240     1.0000 0.78250  0.13300  0.17771  Biso   1.000  C
  H274     1.0000 0.76990  0.06440  0.18473  Biso   1.000  H
  C241     1.0000 0.68740  0.13460  0.16765  Biso   1.000  C
  C242     1.0000 0.71660  0.24340  0.15872  Biso   1.000  C
  H275     1.0000 0.65740  0.25130  0.15183  Biso   1.000  H
  C243     1.0000 0.83260  0.34180  0.15980  Biso   1.000  C
  H276     1.0000 0.84710  0.41370  0.15373  Biso   1.000  H
  C244     1.0000 0.43470  0.99280  0.18843  Biso   1.000  C
  H277     1.0000 0.41990  0.92890  0.19813  Biso   1.000  H
  H278     1.0000 0.46930  0.06850  0.19593  Biso   1.000  H
  C245     1.0000 0.32040  0.96710  0.17727  Biso   1.000  C
  H279     1.0000 0.27610  0.99480  0.18563  Biso   1.000  H
  H280     1.0000 0.26990  0.88120  0.17513  Biso   1.000  H
  Ag11     1.0000 0.03016  0.68234  0.58849  Biso   1.000  Ag
  Ag12     1.0000 0.37527  0.88390  0.50239  Biso   1.000  Ag
  Si16     1.0000 0.02130  0.14070  0.56992  Biso   1.000  Si
  Si17     1.0000 0.57350  0.22700  0.59073  Biso   1.000  Si
  Si18     1.0000 0.48050  0.67280  0.59449  Biso   1.000  Si
  N36      1.0000 0.01690  0.49920  0.58217  Biso   1.000  N
  N37      1.0000 0.10670  0.02600  0.63422  Biso   1.000  N
  N38      1.0000 0.20620  0.86020  0.58722  Biso   1.000  N
  N39      1.0000 0.77240  0.32270  0.52633  Biso   1.000  N
  N40      1.0000 0.85020  0.68090  0.58970  Biso   1.000  N
  N41      1.0000 0.40780  0.82720  0.53336  Biso   1.000  N
  N42      1.0000 0.41540  0.07670  0.50228  Biso   1.000  N
  C246     1.0000 0.01350  0.42880  0.59799  Biso   1.000  C
  H281     1.0000 0.00900  0.45170  0.61157  Biso   1.000  H
  C247     1.0000 0.01650  0.32450  0.59485  Biso   1.000  C
  H282     1.0000 0.01620  0.28040  0.60637  Biso   1.000  H
  C248     1.0000 0.01980  0.28390  0.57571  Biso   1.000  C
  C249     1.0000 0.02060  0.35640  0.55882  Biso   1.000  C
  H283     1.0000 0.02210  0.33350  0.54517  Biso   1.000  H
  C250     1.0000 0.01900  0.46050  0.56310  Biso   1.000  C
  H284     1.0000 0.01950  0.50690  0.55197  Biso   1.000  H
  C251     1.0000 0.88150  0.02380  0.55672  Biso   1.000  C
  H285     1.0000 0.85010  0.94590  0.56337  Biso   1.000  H
  H286     1.0000 0.81970  0.04630  0.55657  Biso   1.000  H
  C252     1.0000 0.92740  0.02380  0.53487  Biso   1.000  C
  H287     1.0000 0.88230  0.94280  0.52937  Biso   1.000  H
  H288     1.0000 0.91020  0.07500  0.52617  Biso   1.000  H
  C253     1.0000 0.04970  0.06220  0.53317  Biso   1.000  C
  H289     1.0000 0.07600  0.09150  0.51917  Biso   1.000  H
  H290     1.0000 0.06110  0.99370  0.53527  Biso   1.000  H
  C254     1.0000 0.12770  0.15920  0.54829  Biso   1.000  C
  H291     1.0000 0.16140  0.23810  0.54197  Biso   1.000  H
  H292     1.0000 0.19270  0.14800  0.55327  Biso   1.000  H
  C255     1.0000 0.05680  0.08840  0.59505  Biso   1.000  C
  C256     1.0000 0.17000  0.15010  0.60444  Biso   1.000  C
  H293     1.0000 0.23220  0.21590  0.59767  Biso   1.000  H
  C257     1.0000 0.19060  0.11630  0.62297  Biso   1.000  C
  H294     1.0000 0.26820  0.15840  0.62827  Biso   1.000  H
  C258     1.0000 0.99880  0.96370  0.62561  Biso   1.000  C
  H295     1.0000 0.93890  0.89730  0.63257  Biso   1.000  H
  C259     1.0000 0.97210  0.99590  0.60592  Biso   1.000  C
  H296     1.0000 0.89460  0.95170  0.60057  Biso   1.000  H
  C260     1.0000 0.24970  0.93510  0.57079  Biso   1.000  C
  H297     1.0000 0.20320  0.91480  0.55877  Biso   1.000  H
  C261     1.0000 0.35860  0.03930  0.57082  Biso   1.000  C
  H298     1.0000 0.38550  0.08520  0.55877  Biso   1.000  H
  C262     1.0000 0.42830  0.07670  0.58832  Biso   1.000  C
  C263     1.0000 0.38310  0.00000  0.60521  Biso   1.000  C
  H299     1.0000 0.42700  0.02030  0.61747  Biso   1.000  H
  C264     1.0000 0.27560  0.89550  0.60420  Biso   1.000  C
  H300     1.0000 0.24920  0.84640  0.61587  Biso   1.000  H
  C265     1.0000 0.54240  0.34580  0.60095  Biso   1.000  C
  H301     1.0000 0.58580  0.41990  0.59307  Biso   1.000  H
  H302     1.0000 0.45710  0.31890  0.60057  Biso   1.000  H
  C266     1.0000 0.58900  0.36210  0.62347  Biso   1.000  C
  H303     1.0000 0.60610  0.43970  0.62887  Biso   1.000  H
  H304     1.0000 0.52900  0.29980  0.63237  Biso   1.000  H
  C267     1.0000 0.70080  0.35400  0.62317  Biso   1.000  C
  H305     1.0000 0.72780  0.35490  0.63727  Biso   1.000  H
  H306     1.0000 0.76390  0.42260  0.61587  Biso   1.000  H
  C268     1.0000 0.67560  0.23860  0.61247  Biso   1.000  C
  H307     1.0000 0.63620  0.17020  0.62177  Biso   1.000  H
  H308     1.0000 0.74900  0.24410  0.60727  Biso   1.000  H
  C269     1.0000 0.64850  0.26460  0.56473  Biso   1.000  C
  C270     1.0000 0.69610  0.37600  0.55547  Biso   1.000  C
  H309     1.0000 0.68790  0.43580  0.56207  Biso   1.000  H
  C271     1.0000 0.75610  0.40210  0.53650  Biso   1.000  C
  H310     1.0000 0.78570  0.47840  0.53087  Biso   1.000  H
  C272     1.0000 0.72670  0.21180  0.53486  Biso   1.000  C
  H311     1.0000 0.73690  0.15410  0.52787  Biso   1.000  H
  C273     1.0000 0.66630  0.18170  0.55330  Biso   1.000  C
  H312     1.0000 0.63610  0.10420  0.55847  Biso   1.000  H
  C274     1.0000 0.79260  0.68330  0.57286  Biso   1.000  C
  H313     1.0000 0.82610  0.68480  0.55997  Biso   1.000  H
  C275     1.0000 0.68510  0.68390  0.57338  Biso   1.000  C
  H314     1.0000 0.64830  0.68580  0.56107  Biso   1.000  H
  C276     1.0000 0.63270  0.68190  0.59223  Biso   1.000  C
  C277     1.0000 0.69480  0.68150  0.61008  Biso   1.000  C
  H315     1.0000 0.66510  0.68280  0.62317  Biso   1.000  H
  C278     1.0000 0.80020  0.67890  0.60801  Biso   1.000  C
  H316     1.0000 0.83870  0.67560  0.61997  Biso   1.000  H
  C279     1.0000 0.35830  0.51280  0.59757  Biso   1.000  C
  H317     1.0000 0.28780  0.49650  0.58957  Biso   1.000  H
  H318     1.0000 0.38540  0.45790  0.59327  Biso   1.000  H
  C280     1.0000 0.33300  0.50200  0.61927  Biso   1.000  C
  H319     1.0000 0.39340  0.49200  0.62657  Biso   1.000  H
  H320     1.0000 0.25530  0.43120  0.62177  Biso   1.000  H
  C281     1.0000 0.45510  0.72380  0.61979  Biso   1.000  C
  H321     1.0000 0.52000  0.74130  0.62937  Biso   1.000  H
  H322     1.0000 0.44720  0.79470  0.61827  Biso   1.000  H
  C282     1.0000 0.33230  0.61130  0.62727  Biso   1.000  C
  H323     1.0000 0.32740  0.60920  0.64237  Biso   1.000  H
  H324     1.0000 0.26420  0.61540  0.62177  Biso   1.000  H
  C283     1.0000 0.45460  0.74120  0.57081  Biso   1.000  C
  C284     1.0000 0.34020  0.70540  0.56438  Biso   1.000  C
  H325     1.0000 0.27510  0.65010  0.57227  Biso   1.000  H
  C285     1.0000 0.32030  0.75090  0.54615  Biso   1.000  C
  H326     1.0000 0.24130  0.72710  0.54257  Biso   1.000  H
  C286     1.0000 0.51770  0.86170  0.53975  Biso   1.000  C
  H327     1.0000 0.58120  0.91440  0.53137  Biso   1.000  H
  C287     1.0000 0.54530  0.82500  0.55806  Biso   1.000  C
  H328     1.0000 0.62530  0.85670  0.56187  Biso   1.000  H
  C288     1.0000 0.33780  0.10290  0.51051  Biso   1.000  C
  H329     1.0000 0.26890  0.04020  0.51647  Biso   1.000  H
  C289     1.0000 0.35050  0.21750  0.51105  Biso   1.000  C
  H330     1.0000 0.29450  0.23010  0.51807  Biso   1.000  H
  C290     1.0000 0.44720  0.31260  0.50099  Biso   1.000  C
  C291     1.0000 0.52680  0.28340  0.49206  Biso   1.000  C
  H331     1.0000 0.59390  0.34260  0.48517  Biso   1.000  H
  C292     1.0000 0.50920  0.16740  0.49314  Biso   1.000  C
  H332     1.0000 0.56660  0.15290  0.48707  Biso   1.000  H
  C293     1.0000 0.55810  0.56530  0.52177  Biso   1.000  C
  H333     1.0000 0.50900  0.58010  0.53147  Biso   1.000  H
  H334     1.0000 0.59920  0.53070  0.52927  Biso   1.000  H
  C294     1.0000 0.64670  0.67960  0.51061  Biso   1.000  C
  H335     1.0000 0.71870  0.72390  0.51897  Biso   1.000  H
  H336     1.0000 0.61130  0.73010  0.50847  Biso   1.000  H
  Ag13     1.0000 0.87559  0.87559  0.00000  Biso   1.000  Ag
  Ag14     1.0000 0.12441  0.00000  0.66667  Biso   1.000  Ag
  Ag15     1.0000 0.00000  0.12441  0.33333  Biso   1.000  Ag
  Si19     1.0000 0.53440  0.00000  0.16667  Biso   1.000  Si
  Si20     1.0000 0.00000  0.53440  0.83333  Biso   1.000  Si
  Si21     1.0000 0.46560  0.46560  0.50000  Biso   1.000  Si
