data_image0
_cell_length_a       27.3062
_cell_length_b       19.4347
_cell_length_c       31.177
_cell_angle_alpha    90
_cell_angle_beta     90
_cell_angle_gamma    90

_symmetry_space_group_name_H-M    "P 1"
_symmetry_int_tables_number       1

loop_
  _symmetry_equiv_pos_as_xyz
  'x, y, z'

loop_
  _atom_site_label
  _atom_site_occupancy
  _atom_site_fract_x
  _atom_site_fract_y
  _atom_site_fract_z
  _atom_site_thermal_displace_type
  _atom_site_B_iso_or_equiv
  _atom_site_type_symbol
  Sr1      1.0000 0.21153  0.42002  0.17392  Biso   1.000  Sr
  Sr2      1.0000 0.29088  0.26572  0.19869  Biso   1.000  Sr
  Sr3      1.0000 0.22805  0.09955  0.14948  Biso   1.000  Sr
  C1       1.0000 0.32470  0.24240  0.43481  Biso   1.000  C
  C2       1.0000 0.37160  0.25080  0.41910  Biso   1.000  C
  C3       1.0000 0.38030  0.25550  0.37588  Biso   1.000  C
  H1       1.0000 0.41300  0.26110  0.36610  Biso   1.000  H
  C4       1.0000 0.34310  0.25240  0.34616  Biso   1.000  C
  C5       1.0000 0.29570  0.24650  0.36110  Biso   1.000  C
  H2       1.0000 0.26920  0.24560  0.34140  Biso   1.000  H
  C6       1.0000 0.28660  0.24170  0.40430  Biso   1.000  C
  H3       1.0000 0.25370  0.23790  0.41400  Biso   1.000  H
  O1       1.0000 0.41126  0.25570  0.44587  Biso   1.000  O
  H4       1.0000 0.41470  0.21860  0.45940  Biso   1.000  H
  C7       1.0000 0.35360  0.25780  0.29877  Biso   1.000  C
  O2       1.0000 0.39700  0.26758  0.28739  Biso   1.000  O
  O3       1.0000 0.31834  0.25170  0.27350  Biso   1.000  O
  C8       1.0000 0.31250  0.23520  0.48183  Biso   1.000  C
  C9       1.0000 0.32910  0.28000  0.51323  Biso   1.000  C
  C10      1.0000 0.31270  0.27530  0.55477  Biso   1.000  C
  H5       1.0000 0.32350  0.30770  0.57550  Biso   1.000  H
  C11      1.0000 0.28030  0.22320  0.56669  Biso   1.000  C
  C12      1.0000 0.26500  0.17640  0.53600  Biso   1.000  C
  H6       1.0000 0.24410  0.13960  0.54400  Biso   1.000  H
  C13      1.0000 0.27990  0.18300  0.49430  Biso   1.000  C
  H7       1.0000 0.26790  0.15170  0.47340  Biso   1.000  H
  O4       1.0000 0.36201  0.33010  0.50147  Biso   1.000  O
  H8       1.0000 0.36880  0.35460  0.52290  Biso   1.000  H
  C14      1.0000 0.26030  0.22250  0.61111  Biso   1.000  C
  O5       1.0000 0.25883  0.27764  0.63149  Biso   1.000  O
  O6       1.0000 0.24499  0.16679  0.62714  Biso   1.000  O
  C15      1.0000 0.42991  0.50490  0.30133  Biso   1.000  C
  C16      1.0000 0.41860  0.43700  0.28904  Biso   1.000  C
  C17      1.0000 0.37924  0.42250  0.26278  Biso   1.000  C
  H9       1.0000 0.37340  0.37640  0.25410  Biso   1.000  H
  C18      1.0000 0.34786  0.47460  0.24884  Biso   1.000  C
  C19      1.0000 0.35760  0.54180  0.26182  Biso   1.000  C
  H10      1.0000 0.33620  0.57780  0.25320  Biso   1.000  H
  C20      1.0000 0.39760  0.55670  0.28706  Biso   1.000  C
  H11      1.0000 0.40360  0.60310  0.29510  Biso   1.000  H
  O7       1.0000 0.44862  0.38570  0.30345  Biso   1.000  O
  H12      1.0000 0.43690  0.34740  0.29650  Biso   1.000  H
  C21      1.0000 0.30490  0.45800  0.22114  Biso   1.000  C
  O8       1.0000 0.29504  0.39542  0.21309  Biso   1.000  O
  O9       1.0000 0.27961  0.50701  0.20633  Biso   1.000  O
  C22      1.0000 0.47403  0.52280  0.32733  Biso   1.000  C
  C23      1.0000 0.46947  0.56400  0.36413  Biso   1.000  C
  C24      1.0000 0.51179  0.58470  0.38653  Biso   1.000  C
  H13      1.0000 0.50830  0.61240  0.41150  Biso   1.000  H
  C25      1.0000 0.55813  0.56590  0.37321  Biso   1.000  C
  C26      1.0000 0.56261  0.52550  0.33669  Biso   1.000  C
  H14      1.0000 0.59410  0.51260  0.32670  Biso   1.000  H
  C27      1.0000 0.52080  0.50380  0.31467  Biso   1.000  C
  H15      1.0000 0.52450  0.47510  0.29020  Biso   1.000  H
  O10      1.0000 0.42390  0.58360  0.37845  Biso   1.000  O
  H16      1.0000 0.40230  0.56770  0.36200  Biso   1.000  H
  C28      1.0000 0.60268  0.59090  0.39778  Biso   1.000  C
  O11      1.0000 0.64323  0.59364  0.37868  Biso   1.000  O
  O12      1.0000 0.59515  0.60880  0.43598  Biso   1.000  O
  C29      1.0000 0.47530  0.06720  0.24000  Biso   1.000  C
  C30      1.0000 0.44380  0.12060  0.24990  Biso   1.000  C
  C31      1.0000 0.39840  0.12710  0.22910  Biso   1.000  C
  H17      1.0000 0.37740  0.16450  0.23590  Biso   1.000  H
  C32      1.0000 0.38412  0.07930  0.19880  Biso   1.000  C
  C33      1.0000 0.41500  0.02470  0.18790  Biso   1.000  C
  H18      1.0000 0.40560  0.99200  0.16680  Biso   1.000  H
  C34      1.0000 0.46050  0.01940  0.20900  Biso   1.000  C
  H19      1.0000 0.48170  0.98240  0.20190  Biso   1.000  H
  O13      1.0000 0.45815  0.16460  0.28150  Biso   1.000  O
  H20      1.0000 0.44050  0.20000  0.28100  Biso   1.000  H
  C35      1.0000 0.33436  0.08690  0.17857  Biso   1.000  C
  O14      1.0000 0.31038  0.14167  0.18598  Biso   1.000  O
  O15      1.0000 0.31708  0.03866  0.15683  Biso   1.000  O
  C36      1.0000 0.02700  0.25170  0.24430  Biso   1.000  C
  C37      1.0000 0.05780  0.30670  0.25440  Biso   1.000  C
  C38      1.0000 0.10660  0.30480  0.24340  Biso   1.000  C
  H21      1.0000 0.12640  0.34410  0.24880  Biso   1.000  H
  C39      1.0000 0.12790  0.24690  0.22449  Biso   1.000  C
  C40      1.0000 0.09697  0.19180  0.21470  Biso   1.000  C
  H22      1.0000 0.11010  0.15180  0.20140  Biso   1.000  H
  C41      1.0000 0.04700  0.19480  0.22423  Biso   1.000  C
  H23      1.0000 0.02640  0.15720  0.21680  Biso   1.000  H
  O16      1.0000 0.04000  0.36380  0.27560  Biso   1.000  O
  H24      1.0000 0.02470  0.38880  0.25830  Biso   1.000  H
  C42      1.0000 0.18180  0.24450  0.21503  Biso   1.000  C
  O17      1.0000 0.20282  0.30267  0.21204  Biso   1.000  O
  O18      1.0000 0.20287  0.18869  0.21161  Biso   1.000  O
  O19      1.0000 0.22521  0.97809  0.11496  Biso   1.000  O
  C43      1.0000 0.18730  0.94680  0.10627  Biso   1.000  C
  H25      1.0000 0.17280  0.91990  0.12830  Biso   1.000  H
  N1       1.0000 0.16502  0.94780  0.06843  Biso   1.000  N
  C44      1.0000 0.18490  0.98900  0.03370  Biso   1.000  C
  H26      1.0000 0.15880  0.01730  0.02130  Biso   1.000  H
  H27      1.0000 0.19840  0.95870  0.01160  Biso   1.000  H
  H28      1.0000 0.21080  0.01890  0.04480  Biso   1.000  H
  C45      1.0000 0.11810  0.91040  0.06140  Biso   1.000  C
  H29      1.0000 0.11150  0.88040  0.08610  Biso   1.000  H
  H30      1.0000 0.12060  0.88240  0.03540  Biso   1.000  H
  H31      1.0000 0.09140  0.94360  0.05830  Biso   1.000  H
  Sr4      1.0000 0.28847  0.07998  0.67392  Biso   1.000  Sr
  Sr5      1.0000 0.20912  0.23428  0.69869  Biso   1.000  Sr
  Sr6      1.0000 0.27195  0.40045  0.64948  Biso   1.000  Sr
  C46      1.0000 0.17530  0.25760  0.93481  Biso   1.000  C
  C47      1.0000 0.12840  0.24920  0.91910  Biso   1.000  C
  C48      1.0000 0.11970  0.24450  0.87588  Biso   1.000  C
  H32      1.0000 0.08700  0.23890  0.86610  Biso   1.000  H
  C49      1.0000 0.15690  0.24760  0.84616  Biso   1.000  C
  C50      1.0000 0.20430  0.25350  0.86110  Biso   1.000  C
  H33      1.0000 0.23080  0.25440  0.84140  Biso   1.000  H
  C51      1.0000 0.21340  0.25830  0.90430  Biso   1.000  C
  H34      1.0000 0.24630  0.26210  0.91400  Biso   1.000  H
  O20      1.0000 0.08874  0.24430  0.94587  Biso   1.000  O
  H35      1.0000 0.08530  0.28140  0.95940  Biso   1.000  H
  C52      1.0000 0.14640  0.24220  0.79877  Biso   1.000  C
  O21      1.0000 0.10300  0.23242  0.78739  Biso   1.000  O
  O22      1.0000 0.18166  0.24830  0.77350  Biso   1.000  O
  C53      1.0000 0.18750  0.26480  0.98183  Biso   1.000  C
  C54      1.0000 0.17090  0.22000  0.01323  Biso   1.000  C
  C55      1.0000 0.18730  0.22470  0.05477  Biso   1.000  C
  H36      1.0000 0.17650  0.19230  0.07550  Biso   1.000  H
  C56      1.0000 0.21970  0.27680  0.06669  Biso   1.000  C
  C57      1.0000 0.23500  0.32360  0.03600  Biso   1.000  C
  H37      1.0000 0.25590  0.36040  0.04400  Biso   1.000  H
  C58      1.0000 0.22010  0.31700  0.99430  Biso   1.000  C
  H38      1.0000 0.23210  0.34830  0.97340  Biso   1.000  H
  O23      1.0000 0.13799  0.16990  0.00147  Biso   1.000  O
  H39      1.0000 0.13120  0.14540  0.02290  Biso   1.000  H
  C59      1.0000 0.23970  0.27750  0.11111  Biso   1.000  C
  O24      1.0000 0.24117  0.22236  0.13149  Biso   1.000  O
  O25      1.0000 0.25501  0.33321  0.12714  Biso   1.000  O
  C60      1.0000 0.07009  0.99510  0.80133  Biso   1.000  C
  C61      1.0000 0.08140  0.06300  0.78904  Biso   1.000  C
  C62      1.0000 0.12076  0.07750  0.76278  Biso   1.000  C
  H40      1.0000 0.12660  0.12360  0.75410  Biso   1.000  H
  C63      1.0000 0.15214  0.02540  0.74884  Biso   1.000  C
  C64      1.0000 0.14240  0.95820  0.76182  Biso   1.000  C
  H41      1.0000 0.16380  0.92220  0.75320  Biso   1.000  H
  C65      1.0000 0.10240  0.94330  0.78706  Biso   1.000  C
  H42      1.0000 0.09640  0.89690  0.79510  Biso   1.000  H
  O26      1.0000 0.05138  0.11430  0.80345  Biso   1.000  O
  H43      1.0000 0.06310  0.15260  0.79650  Biso   1.000  H
  C66      1.0000 0.19510  0.04200  0.72114  Biso   1.000  C
  O27      1.0000 0.20496  0.10458  0.71309  Biso   1.000  O
  O28      1.0000 0.22039  0.99299  0.70633  Biso   1.000  O
  C67      1.0000 0.02597  0.97720  0.82733  Biso   1.000  C
  C68      1.0000 0.03053  0.93600  0.86413  Biso   1.000  C
  C69      1.0000 0.98821  0.91530  0.88653  Biso   1.000  C
  H44      1.0000 0.99170  0.88760  0.91150  Biso   1.000  H
  C70      1.0000 0.94187  0.93410  0.87321  Biso   1.000  C
  C71      1.0000 0.93739  0.97450  0.83669  Biso   1.000  C
  H45      1.0000 0.90590  0.98740  0.82670  Biso   1.000  H
  C72      1.0000 0.97920  0.99620  0.81467  Biso   1.000  C
  H46      1.0000 0.97550  0.02490  0.79020  Biso   1.000  H
  O29      1.0000 0.07610  0.91640  0.87845  Biso   1.000  O
  H47      1.0000 0.09770  0.93230  0.86200  Biso   1.000  H
  C73      1.0000 0.89732  0.90910  0.89778  Biso   1.000  C
  O30      1.0000 0.85677  0.90636  0.87868  Biso   1.000  O
  O31      1.0000 0.90485  0.89120  0.93598  Biso   1.000  O
  C74      1.0000 0.02470  0.43280  0.74000  Biso   1.000  C
  C75      1.0000 0.05620  0.37940  0.74990  Biso   1.000  C
  C76      1.0000 0.10160  0.37290  0.72910  Biso   1.000  C
  H48      1.0000 0.12260  0.33550  0.73590  Biso   1.000  H
  C77      1.0000 0.11588  0.42070  0.69880  Biso   1.000  C
  C78      1.0000 0.08500  0.47530  0.68790  Biso   1.000  C
  H49      1.0000 0.09440  0.50800  0.66680  Biso   1.000  H
  C79      1.0000 0.03950  0.48060  0.70900  Biso   1.000  C
  H50      1.0000 0.01830  0.51760  0.70190  Biso   1.000  H
  O32      1.0000 0.04185  0.33540  0.78150  Biso   1.000  O
  H51      1.0000 0.05950  0.30000  0.78100  Biso   1.000  H
  C80      1.0000 0.16564  0.41310  0.67857  Biso   1.000  C
  O33      1.0000 0.18962  0.35833  0.68598  Biso   1.000  O
  O34      1.0000 0.18292  0.46134  0.65683  Biso   1.000  O
  C81      1.0000 0.47300  0.24830  0.74430  Biso   1.000  C
  C82      1.0000 0.44220  0.19330  0.75440  Biso   1.000  C
  C83      1.0000 0.39340  0.19520  0.74340  Biso   1.000  C
  H52      1.0000 0.37360  0.15590  0.74880  Biso   1.000  H
  C84      1.0000 0.37210  0.25310  0.72449  Biso   1.000  C
  C85      1.0000 0.40303  0.30820  0.71470  Biso   1.000  C
  H53      1.0000 0.38990  0.34820  0.70140  Biso   1.000  H
  C86      1.0000 0.45300  0.30520  0.72423  Biso   1.000  C
  H54      1.0000 0.47360  0.34280  0.71680  Biso   1.000  H
  O35      1.0000 0.46000  0.13620  0.77560  Biso   1.000  O
  H55      1.0000 0.47530  0.11120  0.75830  Biso   1.000  H
  C87      1.0000 0.31820  0.25550  0.71503  Biso   1.000  C
  O36      1.0000 0.29718  0.19733  0.71204  Biso   1.000  O
  O37      1.0000 0.29713  0.31131  0.71161  Biso   1.000  O
  O38      1.0000 0.27479  0.52191  0.61496  Biso   1.000  O
  C88      1.0000 0.31270  0.55320  0.60627  Biso   1.000  C
  H56      1.0000 0.32720  0.58010  0.62830  Biso   1.000  H
  N2       1.0000 0.33498  0.55220  0.56843  Biso   1.000  N
  C89      1.0000 0.31510  0.51100  0.53370  Biso   1.000  C
  H57      1.0000 0.34120  0.48270  0.52130  Biso   1.000  H
  H58      1.0000 0.30160  0.54130  0.51160  Biso   1.000  H
  H59      1.0000 0.28920  0.48110  0.54480  Biso   1.000  H
  C90      1.0000 0.38190  0.58960  0.56140  Biso   1.000  C
  H60      1.0000 0.38850  0.61960  0.58610  Biso   1.000  H
  H61      1.0000 0.37940  0.61760  0.53540  Biso   1.000  H
  H62      1.0000 0.40860  0.55640  0.55830  Biso   1.000  H
  Sr7      1.0000 0.78847  0.42002  0.32608  Biso   1.000  Sr
  Sr8      1.0000 0.70912  0.26572  0.30131  Biso   1.000  Sr
  Sr9      1.0000 0.77195  0.09955  0.35052  Biso   1.000  Sr
  C91      1.0000 0.67530  0.24240  0.06519  Biso   1.000  C
  C92      1.0000 0.62840  0.25080  0.08090  Biso   1.000  C
  C93      1.0000 0.61970  0.25550  0.12412  Biso   1.000  C
  H63      1.0000 0.58700  0.26110  0.13390  Biso   1.000  H
  C94      1.0000 0.65690  0.25240  0.15384  Biso   1.000  C
  C95      1.0000 0.70430  0.24650  0.13890  Biso   1.000  C
  H64      1.0000 0.73080  0.24560  0.15860  Biso   1.000  H
  C96      1.0000 0.71340  0.24170  0.09570  Biso   1.000  C
  H65      1.0000 0.74630  0.23790  0.08600  Biso   1.000  H
  O39      1.0000 0.58874  0.25570  0.05413  Biso   1.000  O
  H66      1.0000 0.58530  0.21860  0.04060  Biso   1.000  H
  C97      1.0000 0.64640  0.25780  0.20123  Biso   1.000  C
  O40      1.0000 0.60300  0.26758  0.21261  Biso   1.000  O
  O41      1.0000 0.68166  0.25170  0.22650  Biso   1.000  O
  C98      1.0000 0.68750  0.23520  0.01817  Biso   1.000  C
  C99      1.0000 0.67090  0.28000  0.98677  Biso   1.000  C
  C100     1.0000 0.68730  0.27530  0.94523  Biso   1.000  C
  H67      1.0000 0.67650  0.30770  0.92450  Biso   1.000  H
  C101     1.0000 0.71970  0.22320  0.93331  Biso   1.000  C
  C102     1.0000 0.73500  0.17640  0.96400  Biso   1.000  C
  H68      1.0000 0.75590  0.13960  0.95600  Biso   1.000  H
  C103     1.0000 0.72010  0.18300  0.00570  Biso   1.000  C
  H69      1.0000 0.73210  0.15170  0.02660  Biso   1.000  H
  O42      1.0000 0.63799  0.33010  0.99853  Biso   1.000  O
  H70      1.0000 0.63120  0.35460  0.97710  Biso   1.000  H
  C104     1.0000 0.73970  0.22250  0.88889  Biso   1.000  C
  O43      1.0000 0.74117  0.27764  0.86851  Biso   1.000  O
  O44      1.0000 0.75501  0.16679  0.87286  Biso   1.000  O
  C105     1.0000 0.57009  0.50490  0.19867  Biso   1.000  C
  C106     1.0000 0.58140  0.43700  0.21096  Biso   1.000  C
  C107     1.0000 0.62076  0.42250  0.23722  Biso   1.000  C
  H71      1.0000 0.62660  0.37640  0.24590  Biso   1.000  H
  C108     1.0000 0.65214  0.47460  0.25116  Biso   1.000  C
  C109     1.0000 0.64240  0.54180  0.23818  Biso   1.000  C
  H72      1.0000 0.66380  0.57780  0.24680  Biso   1.000  H
  C110     1.0000 0.60240  0.55670  0.21294  Biso   1.000  C
  H73      1.0000 0.59640  0.60310  0.20490  Biso   1.000  H
  O45      1.0000 0.55138  0.38570  0.19655  Biso   1.000  O
  H74      1.0000 0.56310  0.34740  0.20350  Biso   1.000  H
  C111     1.0000 0.69510  0.45800  0.27886  Biso   1.000  C
  O46      1.0000 0.70496  0.39542  0.28691  Biso   1.000  O
  O47      1.0000 0.72039  0.50701  0.29367  Biso   1.000  O
  C112     1.0000 0.52597  0.52280  0.17267  Biso   1.000  C
  C113     1.0000 0.53053  0.56400  0.13587  Biso   1.000  C
  C114     1.0000 0.48821  0.58470  0.11347  Biso   1.000  C
  H75      1.0000 0.49170  0.61240  0.08850  Biso   1.000  H
  C115     1.0000 0.44187  0.56590  0.12679  Biso   1.000  C
  C116     1.0000 0.43739  0.52550  0.16331  Biso   1.000  C
  H76      1.0000 0.40590  0.51260  0.17330  Biso   1.000  H
  C117     1.0000 0.47920  0.50380  0.18533  Biso   1.000  C
  H77      1.0000 0.47550  0.47510  0.20980  Biso   1.000  H
  O48      1.0000 0.57610  0.58360  0.12155  Biso   1.000  O
  H78      1.0000 0.59770  0.56770  0.13800  Biso   1.000  H
  C118     1.0000 0.39732  0.59090  0.10222  Biso   1.000  C
  O49      1.0000 0.35677  0.59364  0.12132  Biso   1.000  O
  O50      1.0000 0.40485  0.60880  0.06402  Biso   1.000  O
  C119     1.0000 0.52470  0.06720  0.26000  Biso   1.000  C
  C120     1.0000 0.55620  0.12060  0.25010  Biso   1.000  C
  C121     1.0000 0.60160  0.12710  0.27090  Biso   1.000  C
  H79      1.0000 0.62260  0.16450  0.26410  Biso   1.000  H
  C122     1.0000 0.61588  0.07930  0.30120  Biso   1.000  C
  C123     1.0000 0.58500  0.02470  0.31210  Biso   1.000  C
  H80      1.0000 0.59440  0.99200  0.33320  Biso   1.000  H
  C124     1.0000 0.53950  0.01940  0.29100  Biso   1.000  C
  H81      1.0000 0.51830  0.98240  0.29810  Biso   1.000  H
  O51      1.0000 0.54185  0.16460  0.21850  Biso   1.000  O
  H82      1.0000 0.55950  0.20000  0.21900  Biso   1.000  H
  C125     1.0000 0.66564  0.08690  0.32143  Biso   1.000  C
  O52      1.0000 0.68962  0.14167  0.31402  Biso   1.000  O
  O53      1.0000 0.68292  0.03866  0.34317  Biso   1.000  O
  C126     1.0000 0.97300  0.25170  0.25570  Biso   1.000  C
  C127     1.0000 0.94220  0.30670  0.24560  Biso   1.000  C
  C128     1.0000 0.89340  0.30480  0.25660  Biso   1.000  C
  H83      1.0000 0.87360  0.34410  0.25120  Biso   1.000  H
  C129     1.0000 0.87210  0.24690  0.27551  Biso   1.000  C
  C130     1.0000 0.90303  0.19180  0.28530  Biso   1.000  C
  H84      1.0000 0.88990  0.15180  0.29860  Biso   1.000  H
  C131     1.0000 0.95300  0.19480  0.27577  Biso   1.000  C
  H85      1.0000 0.97360  0.15720  0.28320  Biso   1.000  H
  O54      1.0000 0.96000  0.36380  0.22440  Biso   1.000  O
  H86      1.0000 0.97530  0.38880  0.24170  Biso   1.000  H
  C132     1.0000 0.81820  0.24450  0.28497  Biso   1.000  C
  O55      1.0000 0.79718  0.30267  0.28796  Biso   1.000  O
  O56      1.0000 0.79713  0.18869  0.28839  Biso   1.000  O
  O57      1.0000 0.77479  0.97809  0.38504  Biso   1.000  O
  C133     1.0000 0.81270  0.94680  0.39373  Biso   1.000  C
  H87      1.0000 0.82720  0.91990  0.37170  Biso   1.000  H
  N3       1.0000 0.83498  0.94780  0.43157  Biso   1.000  N
  C134     1.0000 0.81510  0.98900  0.46630  Biso   1.000  C
  H88      1.0000 0.84120  0.01730  0.47870  Biso   1.000  H
  H89      1.0000 0.80160  0.95870  0.48840  Biso   1.000  H
  H90      1.0000 0.78920  0.01890  0.45520  Biso   1.000  H
  C135     1.0000 0.88190  0.91040  0.43860  Biso   1.000  C
  H91      1.0000 0.88850  0.88040  0.41390  Biso   1.000  H
  H92      1.0000 0.87940  0.88240  0.46460  Biso   1.000  H
  H93      1.0000 0.90860  0.94360  0.44170  Biso   1.000  H
  Sr10     1.0000 0.71153  0.07998  0.82608  Biso   1.000  Sr
  Sr11     1.0000 0.79088  0.23428  0.80131  Biso   1.000  Sr
  Sr12     1.0000 0.72805  0.40045  0.85052  Biso   1.000  Sr
  C136     1.0000 0.82470  0.25760  0.56519  Biso   1.000  C
  C137     1.0000 0.87160  0.24920  0.58090  Biso   1.000  C
  C138     1.0000 0.88030  0.24450  0.62412  Biso   1.000  C
  H94      1.0000 0.91300  0.23890  0.63390  Biso   1.000  H
  C139     1.0000 0.84310  0.24760  0.65384  Biso   1.000  C
  C140     1.0000 0.79570  0.25350  0.63890  Biso   1.000  C
  H95      1.0000 0.76920  0.25440  0.65860  Biso   1.000  H
  C141     1.0000 0.78660  0.25830  0.59570  Biso   1.000  C
  H96      1.0000 0.75370  0.26210  0.58600  Biso   1.000  H
  O58      1.0000 0.91126  0.24430  0.55413  Biso   1.000  O
  H97      1.0000 0.91470  0.28140  0.54060  Biso   1.000  H
  C142     1.0000 0.85360  0.24220  0.70123  Biso   1.000  C
  O59      1.0000 0.89700  0.23242  0.71261  Biso   1.000  O
  O60      1.0000 0.81834  0.24830  0.72650  Biso   1.000  O
  C143     1.0000 0.81250  0.26480  0.51817  Biso   1.000  C
  C144     1.0000 0.82910  0.22000  0.48677  Biso   1.000  C
  C145     1.0000 0.81270  0.22470  0.44523  Biso   1.000  C
  H98      1.0000 0.82350  0.19230  0.42450  Biso   1.000  H
  C146     1.0000 0.78030  0.27680  0.43331  Biso   1.000  C
  C147     1.0000 0.76500  0.32360  0.46400  Biso   1.000  C
  H99      1.0000 0.74410  0.36040  0.45600  Biso   1.000  H
  C148     1.0000 0.77990  0.31700  0.50570  Biso   1.000  C
  H100     1.0000 0.76790  0.34830  0.52660  Biso   1.000  H
  O61      1.0000 0.86201  0.16990  0.49853  Biso   1.000  O
  H101     1.0000 0.86880  0.14540  0.47710  Biso   1.000  H
  C149     1.0000 0.76030  0.27750  0.38889  Biso   1.000  C
  O62      1.0000 0.75883  0.22236  0.36851  Biso   1.000  O
  O63      1.0000 0.74499  0.33321  0.37286  Biso   1.000  O
  C150     1.0000 0.92991  0.99510  0.69867  Biso   1.000  C
  C151     1.0000 0.91860  0.06300  0.71096  Biso   1.000  C
  C152     1.0000 0.87924  0.07750  0.73722  Biso   1.000  C
  H102     1.0000 0.87340  0.12360  0.74590  Biso   1.000  H
  C153     1.0000 0.84786  0.02540  0.75116  Biso   1.000  C
  C154     1.0000 0.85760  0.95820  0.73818  Biso   1.000  C
  H103     1.0000 0.83620  0.92220  0.74680  Biso   1.000  H
  C155     1.0000 0.89760  0.94330  0.71294  Biso   1.000  C
  H104     1.0000 0.90360  0.89690  0.70490  Biso   1.000  H
  O64      1.0000 0.94862  0.11430  0.69655  Biso   1.000  O
  H105     1.0000 0.93690  0.15260  0.70350  Biso   1.000  H
  C156     1.0000 0.80490  0.04200  0.77886  Biso   1.000  C
  O65      1.0000 0.79504  0.10458  0.78691  Biso   1.000  O
  O66      1.0000 0.77961  0.99299  0.79367  Biso   1.000  O
  C157     1.0000 0.97403  0.97720  0.67267  Biso   1.000  C
  C158     1.0000 0.96947  0.93600  0.63587  Biso   1.000  C
  C159     1.0000 0.01179  0.91530  0.61347  Biso   1.000  C
  H106     1.0000 0.00830  0.88760  0.58850  Biso   1.000  H
  C160     1.0000 0.05813  0.93410  0.62679  Biso   1.000  C
  C161     1.0000 0.06261  0.97450  0.66331  Biso   1.000  C
  H107     1.0000 0.09410  0.98740  0.67330  Biso   1.000  H
  C162     1.0000 0.02080  0.99620  0.68533  Biso   1.000  C
  H108     1.0000 0.02450  0.02490  0.70980  Biso   1.000  H
  O67      1.0000 0.92390  0.91640  0.62155  Biso   1.000  O
  H109     1.0000 0.90230  0.93230  0.63800  Biso   1.000  H
  C163     1.0000 0.10268  0.90910  0.60222  Biso   1.000  C
  O68      1.0000 0.14323  0.90636  0.62132  Biso   1.000  O
  O69      1.0000 0.09515  0.89120  0.56402  Biso   1.000  O
  C164     1.0000 0.97530  0.43280  0.76000  Biso   1.000  C
  C165     1.0000 0.94380  0.37940  0.75010  Biso   1.000  C
  C166     1.0000 0.89840  0.37290  0.77090  Biso   1.000  C
  H110     1.0000 0.87740  0.33550  0.76410  Biso   1.000  H
  C167     1.0000 0.88412  0.42070  0.80120  Biso   1.000  C
  C168     1.0000 0.91500  0.47530  0.81210  Biso   1.000  C
  H111     1.0000 0.90560  0.50800  0.83320  Biso   1.000  H
  C169     1.0000 0.96050  0.48060  0.79100  Biso   1.000  C
  H112     1.0000 0.98170  0.51760  0.79810  Biso   1.000  H
  O70      1.0000 0.95815  0.33540  0.71850  Biso   1.000  O
  H113     1.0000 0.94050  0.30000  0.71900  Biso   1.000  H
  C170     1.0000 0.83436  0.41310  0.82143  Biso   1.000  C
  O71      1.0000 0.81038  0.35833  0.81402  Biso   1.000  O
  O72      1.0000 0.81708  0.46134  0.84317  Biso   1.000  O
  C171     1.0000 0.52700  0.24830  0.75570  Biso   1.000  C
  C172     1.0000 0.55780  0.19330  0.74560  Biso   1.000  C
  C173     1.0000 0.60660  0.19520  0.75660  Biso   1.000  C
  H114     1.0000 0.62640  0.15590  0.75120  Biso   1.000  H
  C174     1.0000 0.62790  0.25310  0.77551  Biso   1.000  C
  C175     1.0000 0.59697  0.30820  0.78530  Biso   1.000  C
  H115     1.0000 0.61010  0.34820  0.79860  Biso   1.000  H
  C176     1.0000 0.54700  0.30520  0.77577  Biso   1.000  C
  H116     1.0000 0.52640  0.34280  0.78320  Biso   1.000  H
  O73      1.0000 0.54000  0.13620  0.72440  Biso   1.000  O
  H117     1.0000 0.52470  0.11120  0.74170  Biso   1.000  H
  C177     1.0000 0.68180  0.25550  0.78497  Biso   1.000  C
  O74      1.0000 0.70282  0.19733  0.78796  Biso   1.000  O
  O75      1.0000 0.70287  0.31131  0.78839  Biso   1.000  O
  O76      1.0000 0.72521  0.52191  0.88504  Biso   1.000  O
  C178     1.0000 0.68730  0.55320  0.89373  Biso   1.000  C
  H118     1.0000 0.67280  0.58010  0.87170  Biso   1.000  H
  N4       1.0000 0.66502  0.55220  0.93157  Biso   1.000  N
  C179     1.0000 0.68490  0.51100  0.96630  Biso   1.000  C
  H119     1.0000 0.65880  0.48270  0.97870  Biso   1.000  H
  H120     1.0000 0.69840  0.54130  0.98840  Biso   1.000  H
  H121     1.0000 0.71080  0.48110  0.95520  Biso   1.000  H
  C180     1.0000 0.61810  0.58960  0.93860  Biso   1.000  C
  H122     1.0000 0.61150  0.61960  0.91390  Biso   1.000  H
  H123     1.0000 0.62060  0.61760  0.96460  Biso   1.000  H
  H124     1.0000 0.59140  0.55640  0.94170  Biso   1.000  H
  Sr13     1.0000 0.78847  0.57998  0.82608  Biso   1.000  Sr
  Sr14     1.0000 0.70912  0.73428  0.80131  Biso   1.000  Sr
  Sr15     1.0000 0.77195  0.90045  0.85052  Biso   1.000  Sr
  C181     1.0000 0.67530  0.75760  0.56519  Biso   1.000  C
  C182     1.0000 0.62840  0.74920  0.58090  Biso   1.000  C
  C183     1.0000 0.61970  0.74450  0.62412  Biso   1.000  C
  H125     1.0000 0.58700  0.73890  0.63390  Biso   1.000  H
  C184     1.0000 0.65690  0.74760  0.65384  Biso   1.000  C
  C185     1.0000 0.70430  0.75350  0.63890  Biso   1.000  C
  H126     1.0000 0.73080  0.75440  0.65860  Biso   1.000  H
  C186     1.0000 0.71340  0.75830  0.59570  Biso   1.000  C
  H127     1.0000 0.74630  0.76210  0.58600  Biso   1.000  H
  O77      1.0000 0.58874  0.74430  0.55413  Biso   1.000  O
  H128     1.0000 0.58530  0.78140  0.54060  Biso   1.000  H
  C187     1.0000 0.64640  0.74220  0.70123  Biso   1.000  C
  O78      1.0000 0.60300  0.73242  0.71261  Biso   1.000  O
  O79      1.0000 0.68166  0.74830  0.72650  Biso   1.000  O
  C188     1.0000 0.68750  0.76480  0.51817  Biso   1.000  C
  C189     1.0000 0.67090  0.72000  0.48677  Biso   1.000  C
  C190     1.0000 0.68730  0.72470  0.44523  Biso   1.000  C
  H129     1.0000 0.67650  0.69230  0.42450  Biso   1.000  H
  C191     1.0000 0.71970  0.77680  0.43331  Biso   1.000  C
  C192     1.0000 0.73500  0.82360  0.46400  Biso   1.000  C
  H130     1.0000 0.75590  0.86040  0.45600  Biso   1.000  H
  C193     1.0000 0.72010  0.81700  0.50570  Biso   1.000  C
  H131     1.0000 0.73210  0.84830  0.52660  Biso   1.000  H
  O80      1.0000 0.63799  0.66990  0.49853  Biso   1.000  O
  H132     1.0000 0.63120  0.64540  0.47710  Biso   1.000  H
  C194     1.0000 0.73970  0.77750  0.38889  Biso   1.000  C
  O81      1.0000 0.74117  0.72236  0.36851  Biso   1.000  O
  O82      1.0000 0.75501  0.83321  0.37286  Biso   1.000  O
  C195     1.0000 0.57009  0.49510  0.69867  Biso   1.000  C
  C196     1.0000 0.58140  0.56300  0.71096  Biso   1.000  C
  C197     1.0000 0.62076  0.57750  0.73722  Biso   1.000  C
  H133     1.0000 0.62660  0.62360  0.74590  Biso   1.000  H
  C198     1.0000 0.65214  0.52540  0.75116  Biso   1.000  C
  C199     1.0000 0.64240  0.45820  0.73818  Biso   1.000  C
  H134     1.0000 0.66380  0.42220  0.74680  Biso   1.000  H
  C200     1.0000 0.60240  0.44330  0.71294  Biso   1.000  C
  H135     1.0000 0.59640  0.39690  0.70490  Biso   1.000  H
  O83      1.0000 0.55138  0.61430  0.69655  Biso   1.000  O
  H136     1.0000 0.56310  0.65260  0.70350  Biso   1.000  H
  C201     1.0000 0.69510  0.54200  0.77886  Biso   1.000  C
  O84      1.0000 0.70496  0.60458  0.78691  Biso   1.000  O
  O85      1.0000 0.72039  0.49299  0.79367  Biso   1.000  O
  C202     1.0000 0.52597  0.47720  0.67267  Biso   1.000  C
  C203     1.0000 0.53053  0.43600  0.63587  Biso   1.000  C
  C204     1.0000 0.48821  0.41530  0.61347  Biso   1.000  C
  H137     1.0000 0.49170  0.38760  0.58850  Biso   1.000  H
  C205     1.0000 0.44187  0.43410  0.62679  Biso   1.000  C
  C206     1.0000 0.43739  0.47450  0.66331  Biso   1.000  C
  H138     1.0000 0.40590  0.48740  0.67330  Biso   1.000  H
  C207     1.0000 0.47920  0.49620  0.68533  Biso   1.000  C
  H139     1.0000 0.47550  0.52490  0.70980  Biso   1.000  H
  O86      1.0000 0.57610  0.41640  0.62155  Biso   1.000  O
  H140     1.0000 0.59770  0.43230  0.63800  Biso   1.000  H
  C208     1.0000 0.39732  0.40910  0.60222  Biso   1.000  C
  O87      1.0000 0.35677  0.40636  0.62132  Biso   1.000  O
  O88      1.0000 0.40485  0.39120  0.56402  Biso   1.000  O
  C209     1.0000 0.52470  0.93280  0.76000  Biso   1.000  C
  C210     1.0000 0.55620  0.87940  0.75010  Biso   1.000  C
  C211     1.0000 0.60160  0.87290  0.77090  Biso   1.000  C
  H141     1.0000 0.62260  0.83550  0.76410  Biso   1.000  H
  C212     1.0000 0.61588  0.92070  0.80120  Biso   1.000  C
  C213     1.0000 0.58500  0.97530  0.81210  Biso   1.000  C
  H142     1.0000 0.59440  0.00800  0.83320  Biso   1.000  H
  C214     1.0000 0.53950  0.98060  0.79100  Biso   1.000  C
  H143     1.0000 0.51830  0.01760  0.79810  Biso   1.000  H
  O89      1.0000 0.54185  0.83540  0.71850  Biso   1.000  O
  H144     1.0000 0.55950  0.80000  0.71900  Biso   1.000  H
  C215     1.0000 0.66564  0.91310  0.82143  Biso   1.000  C
  O90      1.0000 0.68962  0.85833  0.81402  Biso   1.000  O
  O91      1.0000 0.68292  0.96134  0.84317  Biso   1.000  O
  C216     1.0000 0.97300  0.74830  0.75570  Biso   1.000  C
  C217     1.0000 0.94220  0.69330  0.74560  Biso   1.000  C
  C218     1.0000 0.89340  0.69520  0.75660  Biso   1.000  C
  H145     1.0000 0.87360  0.65590  0.75120  Biso   1.000  H
  C219     1.0000 0.87210  0.75310  0.77551  Biso   1.000  C
  C220     1.0000 0.90303  0.80820  0.78530  Biso   1.000  C
  H146     1.0000 0.88990  0.84820  0.79860  Biso   1.000  H
  C221     1.0000 0.95300  0.80520  0.77577  Biso   1.000  C
  H147     1.0000 0.97360  0.84280  0.78320  Biso   1.000  H
  O92      1.0000 0.96000  0.63620  0.72440  Biso   1.000  O
  H148     1.0000 0.97530  0.61120  0.74170  Biso   1.000  H
  C222     1.0000 0.81820  0.75550  0.78497  Biso   1.000  C
  O93      1.0000 0.79718  0.69733  0.78796  Biso   1.000  O
  O94      1.0000 0.79713  0.81131  0.78839  Biso   1.000  O
  O95      1.0000 0.77479  0.02191  0.88504  Biso   1.000  O
  C223     1.0000 0.81270  0.05320  0.89373  Biso   1.000  C
  H149     1.0000 0.82720  0.08010  0.87170  Biso   1.000  H
  N5       1.0000 0.83498  0.05220  0.93157  Biso   1.000  N
  C224     1.0000 0.81510  0.01100  0.96630  Biso   1.000  C
  H150     1.0000 0.84120  0.98270  0.97870  Biso   1.000  H
  H151     1.0000 0.80160  0.04130  0.98840  Biso   1.000  H
  H152     1.0000 0.78920  0.98110  0.95520  Biso   1.000  H
  C225     1.0000 0.88190  0.08960  0.93860  Biso   1.000  C
  H153     1.0000 0.88850  0.11960  0.91390  Biso   1.000  H
  H154     1.0000 0.87940  0.11760  0.96460  Biso   1.000  H
  H155     1.0000 0.90860  0.05640  0.94170  Biso   1.000  H
  Sr16     1.0000 0.71153  0.92002  0.32608  Biso   1.000  Sr
  Sr17     1.0000 0.79088  0.76572  0.30131  Biso   1.000  Sr
  Sr18     1.0000 0.72805  0.59955  0.35052  Biso   1.000  Sr
  C226     1.0000 0.82470  0.74240  0.06519  Biso   1.000  C
  C227     1.0000 0.87160  0.75080  0.08090  Biso   1.000  C
  C228     1.0000 0.88030  0.75550  0.12412  Biso   1.000  C
  H156     1.0000 0.91300  0.76110  0.13390  Biso   1.000  H
  C229     1.0000 0.84310  0.75240  0.15384  Biso   1.000  C
  C230     1.0000 0.79570  0.74650  0.13890  Biso   1.000  C
  H157     1.0000 0.76920  0.74560  0.15860  Biso   1.000  H
  C231     1.0000 0.78660  0.74170  0.09570  Biso   1.000  C
  H158     1.0000 0.75370  0.73790  0.08600  Biso   1.000  H
  O96      1.0000 0.91126  0.75570  0.05413  Biso   1.000  O
  H159     1.0000 0.91470  0.71860  0.04060  Biso   1.000  H
  C232     1.0000 0.85360  0.75780  0.20123  Biso   1.000  C
  O97      1.0000 0.89700  0.76758  0.21261  Biso   1.000  O
  O98      1.0000 0.81834  0.75170  0.22650  Biso   1.000  O
  C233     1.0000 0.81250  0.73520  0.01817  Biso   1.000  C
  C234     1.0000 0.82910  0.78000  0.98677  Biso   1.000  C
  C235     1.0000 0.81270  0.77530  0.94523  Biso   1.000  C
  H160     1.0000 0.82350  0.80770  0.92450  Biso   1.000  H
  C236     1.0000 0.78030  0.72320  0.93331  Biso   1.000  C
  C237     1.0000 0.76500  0.67640  0.96400  Biso   1.000  C
  H161     1.0000 0.74410  0.63960  0.95600  Biso   1.000  H
  C238     1.0000 0.77990  0.68300  0.00570  Biso   1.000  C
  H162     1.0000 0.76790  0.65170  0.02660  Biso   1.000  H
  O99      1.0000 0.86201  0.83010  0.99853  Biso   1.000  O
  H163     1.0000 0.86880  0.85460  0.97710  Biso   1.000  H
  C239     1.0000 0.76030  0.72250  0.88889  Biso   1.000  C
  O100     1.0000 0.75883  0.77764  0.86851  Biso   1.000  O
  O101     1.0000 0.74499  0.66679  0.87286  Biso   1.000  O
  C240     1.0000 0.92991  0.00490  0.19867  Biso   1.000  C
  C241     1.0000 0.91860  0.93700  0.21096  Biso   1.000  C
  C242     1.0000 0.87924  0.92250  0.23722  Biso   1.000  C
  H164     1.0000 0.87340  0.87640  0.24590  Biso   1.000  H
  C243     1.0000 0.84786  0.97460  0.25116  Biso   1.000  C
  C244     1.0000 0.85760  0.04180  0.23818  Biso   1.000  C
  H165     1.0000 0.83620  0.07780  0.24680  Biso   1.000  H
  C245     1.0000 0.89760  0.05670  0.21294  Biso   1.000  C
  H166     1.0000 0.90360  0.10310  0.20490  Biso   1.000  H
  O102     1.0000 0.94862  0.88570  0.19655  Biso   1.000  O
  H167     1.0000 0.93690  0.84740  0.20350  Biso   1.000  H
  C246     1.0000 0.80490  0.95800  0.27886  Biso   1.000  C
  O103     1.0000 0.79504  0.89542  0.28691  Biso   1.000  O
  O104     1.0000 0.77961  0.00701  0.29367  Biso   1.000  O
  C247     1.0000 0.97403  0.02280  0.17267  Biso   1.000  C
  C248     1.0000 0.96947  0.06400  0.13587  Biso   1.000  C
  C249     1.0000 0.01179  0.08470  0.11347  Biso   1.000  C
  H168     1.0000 0.00830  0.11240  0.08850  Biso   1.000  H
  C250     1.0000 0.05813  0.06590  0.12679  Biso   1.000  C
  C251     1.0000 0.06261  0.02550  0.16331  Biso   1.000  C
  H169     1.0000 0.09410  0.01260  0.17330  Biso   1.000  H
  C252     1.0000 0.02080  0.00380  0.18533  Biso   1.000  C
  H170     1.0000 0.02450  0.97510  0.20980  Biso   1.000  H
  O105     1.0000 0.92390  0.08360  0.12155  Biso   1.000  O
  H171     1.0000 0.90230  0.06770  0.13800  Biso   1.000  H
  C253     1.0000 0.10268  0.09090  0.10222  Biso   1.000  C
  O106     1.0000 0.14323  0.09364  0.12132  Biso   1.000  O
  O107     1.0000 0.09515  0.10880  0.06402  Biso   1.000  O
  C254     1.0000 0.97530  0.56720  0.26000  Biso   1.000  C
  C255     1.0000 0.94380  0.62060  0.25010  Biso   1.000  C
  C256     1.0000 0.89840  0.62710  0.27090  Biso   1.000  C
  H172     1.0000 0.87740  0.66450  0.26410  Biso   1.000  H
  C257     1.0000 0.88412  0.57930  0.30120  Biso   1.000  C
  C258     1.0000 0.91500  0.52470  0.31210  Biso   1.000  C
  H173     1.0000 0.90560  0.49200  0.33320  Biso   1.000  H
  C259     1.0000 0.96050  0.51940  0.29100  Biso   1.000  C
  H174     1.0000 0.98170  0.48240  0.29810  Biso   1.000  H
  O108     1.0000 0.95815  0.66460  0.21850  Biso   1.000  O
  H175     1.0000 0.94050  0.70000  0.21900  Biso   1.000  H
  C260     1.0000 0.83436  0.58690  0.32143  Biso   1.000  C
  O109     1.0000 0.81038  0.64167  0.31402  Biso   1.000  O
  O110     1.0000 0.81708  0.53866  0.34317  Biso   1.000  O
  C261     1.0000 0.52700  0.75170  0.25570  Biso   1.000  C
  C262     1.0000 0.55780  0.80670  0.24560  Biso   1.000  C
  C263     1.0000 0.60660  0.80480  0.25660  Biso   1.000  C
  H176     1.0000 0.62640  0.84410  0.25120  Biso   1.000  H
  C264     1.0000 0.62790  0.74690  0.27551  Biso   1.000  C
  C265     1.0000 0.59697  0.69180  0.28530  Biso   1.000  C
  H177     1.0000 0.61010  0.65180  0.29860  Biso   1.000  H
  C266     1.0000 0.54700  0.69480  0.27577  Biso   1.000  C
  H178     1.0000 0.52640  0.65720  0.28320  Biso   1.000  H
  O111     1.0000 0.54000  0.86380  0.22440  Biso   1.000  O
  H179     1.0000 0.52470  0.88880  0.24170  Biso   1.000  H
  C267     1.0000 0.68180  0.74450  0.28497  Biso   1.000  C
  O112     1.0000 0.70282  0.80267  0.28796  Biso   1.000  O
  O113     1.0000 0.70287  0.68869  0.28839  Biso   1.000  O
  O114     1.0000 0.72521  0.47809  0.38504  Biso   1.000  O
  C268     1.0000 0.68730  0.44680  0.39373  Biso   1.000  C
  H180     1.0000 0.67280  0.41990  0.37170  Biso   1.000  H
  N6       1.0000 0.66502  0.44780  0.43157  Biso   1.000  N
  C269     1.0000 0.68490  0.48900  0.46630  Biso   1.000  C
  H181     1.0000 0.65880  0.51730  0.47870  Biso   1.000  H
  H182     1.0000 0.69840  0.45870  0.48840  Biso   1.000  H
  H183     1.0000 0.71080  0.51890  0.45520  Biso   1.000  H
  C270     1.0000 0.61810  0.41040  0.43860  Biso   1.000  C
  H184     1.0000 0.61150  0.38040  0.41390  Biso   1.000  H
  H185     1.0000 0.62060  0.38240  0.46460  Biso   1.000  H
  H186     1.0000 0.59140  0.44360  0.44170  Biso   1.000  H
  Sr19     1.0000 0.21153  0.57998  0.67392  Biso   1.000  Sr
  Sr20     1.0000 0.29088  0.73428  0.69869  Biso   1.000  Sr
  Sr21     1.0000 0.22805  0.90045  0.64948  Biso   1.000  Sr
  C271     1.0000 0.32470  0.75760  0.93481  Biso   1.000  C
  C272     1.0000 0.37160  0.74920  0.91910  Biso   1.000  C
  C273     1.0000 0.38030  0.74450  0.87588  Biso   1.000  C
  H187     1.0000 0.41300  0.73890  0.86610  Biso   1.000  H
  C274     1.0000 0.34310  0.74760  0.84616  Biso   1.000  C
  C275     1.0000 0.29570  0.75350  0.86110  Biso   1.000  C
  H188     1.0000 0.26920  0.75440  0.84140  Biso   1.000  H
  C276     1.0000 0.28660  0.75830  0.90430  Biso   1.000  C
  H189     1.0000 0.25370  0.76210  0.91400  Biso   1.000  H
  O115     1.0000 0.41126  0.74430  0.94587  Biso   1.000  O
  H190     1.0000 0.41470  0.78140  0.95940  Biso   1.000  H
  C277     1.0000 0.35360  0.74220  0.79877  Biso   1.000  C
  O116     1.0000 0.39700  0.73242  0.78739  Biso   1.000  O
  O117     1.0000 0.31834  0.74830  0.77350  Biso   1.000  O
  C278     1.0000 0.31250  0.76480  0.98183  Biso   1.000  C
  C279     1.0000 0.32910  0.72000  0.01323  Biso   1.000  C
  C280     1.0000 0.31270  0.72470  0.05477  Biso   1.000  C
  H191     1.0000 0.32350  0.69230  0.07550  Biso   1.000  H
  C281     1.0000 0.28030  0.77680  0.06669  Biso   1.000  C
  C282     1.0000 0.26500  0.82360  0.03600  Biso   1.000  C
  H192     1.0000 0.24410  0.86040  0.04400  Biso   1.000  H
  C283     1.0000 0.27990  0.81700  0.99430  Biso   1.000  C
  H193     1.0000 0.26790  0.84830  0.97340  Biso   1.000  H
  O118     1.0000 0.36201  0.66990  0.00147  Biso   1.000  O
  H194     1.0000 0.36880  0.64540  0.02290  Biso   1.000  H
  C284     1.0000 0.26030  0.77750  0.11111  Biso   1.000  C
  O119     1.0000 0.25883  0.72236  0.13149  Biso   1.000  O
  O120     1.0000 0.24499  0.83321  0.12714  Biso   1.000  O
  C285     1.0000 0.42991  0.49510  0.80133  Biso   1.000  C
  C286     1.0000 0.41860  0.56300  0.78904  Biso   1.000  C
  C287     1.0000 0.37924  0.57750  0.76278  Biso   1.000  C
  H195     1.0000 0.37340  0.62360  0.75410  Biso   1.000  H
  C288     1.0000 0.34786  0.52540  0.74884  Biso   1.000  C
  C289     1.0000 0.35760  0.45820  0.76182  Biso   1.000  C
  H196     1.0000 0.33620  0.42220  0.75320  Biso   1.000  H
  C290     1.0000 0.39760  0.44330  0.78706  Biso   1.000  C
  H197     1.0000 0.40360  0.39690  0.79510  Biso   1.000  H
  O121     1.0000 0.44862  0.61430  0.80345  Biso   1.000  O
  H198     1.0000 0.43690  0.65260  0.79650  Biso   1.000  H
  C291     1.0000 0.30490  0.54200  0.72114  Biso   1.000  C
  O122     1.0000 0.29504  0.60458  0.71309  Biso   1.000  O
  O123     1.0000 0.27961  0.49299  0.70633  Biso   1.000  O
  C292     1.0000 0.47403  0.47720  0.82733  Biso   1.000  C
  C293     1.0000 0.46947  0.43600  0.86413  Biso   1.000  C
  C294     1.0000 0.51179  0.41530  0.88653  Biso   1.000  C
  H199     1.0000 0.50830  0.38760  0.91150  Biso   1.000  H
  C295     1.0000 0.55813  0.43410  0.87321  Biso   1.000  C
  C296     1.0000 0.56261  0.47450  0.83669  Biso   1.000  C
  H200     1.0000 0.59410  0.48740  0.82670  Biso   1.000  H
  C297     1.0000 0.52080  0.49620  0.81467  Biso   1.000  C
  H201     1.0000 0.52450  0.52490  0.79020  Biso   1.000  H
  O124     1.0000 0.42390  0.41640  0.87845  Biso   1.000  O
  H202     1.0000 0.40230  0.43230  0.86200  Biso   1.000  H
  C298     1.0000 0.60268  0.40910  0.89778  Biso   1.000  C
  O125     1.0000 0.64323  0.40636  0.87868  Biso   1.000  O
  O126     1.0000 0.59515  0.39120  0.93598  Biso   1.000  O
  C299     1.0000 0.47530  0.93280  0.74000  Biso   1.000  C
  C300     1.0000 0.44380  0.87940  0.74990  Biso   1.000  C
  C301     1.0000 0.39840  0.87290  0.72910  Biso   1.000  C
  H203     1.0000 0.37740  0.83550  0.73590  Biso   1.000  H
  C302     1.0000 0.38412  0.92070  0.69880  Biso   1.000  C
  C303     1.0000 0.41500  0.97530  0.68790  Biso   1.000  C
  H204     1.0000 0.40560  0.00800  0.66680  Biso   1.000  H
  C304     1.0000 0.46050  0.98060  0.70900  Biso   1.000  C
  H205     1.0000 0.48170  0.01760  0.70190  Biso   1.000  H
  O127     1.0000 0.45815  0.83540  0.78150  Biso   1.000  O
  H206     1.0000 0.44050  0.80000  0.78100  Biso   1.000  H
  C305     1.0000 0.33436  0.91310  0.67857  Biso   1.000  C
  O128     1.0000 0.31038  0.85833  0.68598  Biso   1.000  O
  O129     1.0000 0.31708  0.96134  0.65683  Biso   1.000  O
  C306     1.0000 0.02700  0.74830  0.74430  Biso   1.000  C
  C307     1.0000 0.05780  0.69330  0.75440  Biso   1.000  C
  C308     1.0000 0.10660  0.69520  0.74340  Biso   1.000  C
  H207     1.0000 0.12640  0.65590  0.74880  Biso   1.000  H
  C309     1.0000 0.12790  0.75310  0.72449  Biso   1.000  C
  C310     1.0000 0.09697  0.80820  0.71470  Biso   1.000  C
  H208     1.0000 0.11010  0.84820  0.70140  Biso   1.000  H
  C311     1.0000 0.04700  0.80520  0.72423  Biso   1.000  C
  H209     1.0000 0.02640  0.84280  0.71680  Biso   1.000  H
  O130     1.0000 0.04000  0.63620  0.77560  Biso   1.000  O
  H210     1.0000 0.02470  0.61120  0.75830  Biso   1.000  H
  C312     1.0000 0.18180  0.75550  0.71503  Biso   1.000  C
  O131     1.0000 0.20282  0.69733  0.71204  Biso   1.000  O
  O132     1.0000 0.20287  0.81131  0.71161  Biso   1.000  O
  O133     1.0000 0.22521  0.02191  0.61496  Biso   1.000  O
  C313     1.0000 0.18730  0.05320  0.60627  Biso   1.000  C
  H211     1.0000 0.17280  0.08010  0.62830  Biso   1.000  H
  N7       1.0000 0.16502  0.05220  0.56843  Biso   1.000  N
  C314     1.0000 0.18490  0.01100  0.53370  Biso   1.000  C
  H212     1.0000 0.15880  0.98270  0.52130  Biso   1.000  H
  H213     1.0000 0.19840  0.04130  0.51160  Biso   1.000  H
  H214     1.0000 0.21080  0.98110  0.54480  Biso   1.000  H
  C315     1.0000 0.11810  0.08960  0.56140  Biso   1.000  C
  H215     1.0000 0.11150  0.11960  0.58610  Biso   1.000  H
  H216     1.0000 0.12060  0.11760  0.53540  Biso   1.000  H
  H217     1.0000 0.09140  0.05640  0.55830  Biso   1.000  H
  Sr22     1.0000 0.28847  0.92002  0.17392  Biso   1.000  Sr
  Sr23     1.0000 0.20912  0.76572  0.19869  Biso   1.000  Sr
  Sr24     1.0000 0.27195  0.59955  0.14948  Biso   1.000  Sr
  C316     1.0000 0.17530  0.74240  0.43481  Biso   1.000  C
  C317     1.0000 0.12840  0.75080  0.41910  Biso   1.000  C
  C318     1.0000 0.11970  0.75550  0.37588  Biso   1.000  C
  H218     1.0000 0.08700  0.76110  0.36610  Biso   1.000  H
  C319     1.0000 0.15690  0.75240  0.34616  Biso   1.000  C
  C320     1.0000 0.20430  0.74650  0.36110  Biso   1.000  C
  H219     1.0000 0.23080  0.74560  0.34140  Biso   1.000  H
  C321     1.0000 0.21340  0.74170  0.40430  Biso   1.000  C
  H220     1.0000 0.24630  0.73790  0.41400  Biso   1.000  H
  O134     1.0000 0.08874  0.75570  0.44587  Biso   1.000  O
  H221     1.0000 0.08530  0.71860  0.45940  Biso   1.000  H
  C322     1.0000 0.14640  0.75780  0.29877  Biso   1.000  C
  O135     1.0000 0.10300  0.76758  0.28739  Biso   1.000  O
  O136     1.0000 0.18166  0.75170  0.27350  Biso   1.000  O
  C323     1.0000 0.18750  0.73520  0.48183  Biso   1.000  C
  C324     1.0000 0.17090  0.78000  0.51323  Biso   1.000  C
  C325     1.0000 0.18730  0.77530  0.55477  Biso   1.000  C
  H222     1.0000 0.17650  0.80770  0.57550  Biso   1.000  H
  C326     1.0000 0.21970  0.72320  0.56669  Biso   1.000  C
  C327     1.0000 0.23500  0.67640  0.53600  Biso   1.000  C
  H223     1.0000 0.25590  0.63960  0.54400  Biso   1.000  H
  C328     1.0000 0.22010  0.68300  0.49430  Biso   1.000  C
  H224     1.0000 0.23210  0.65170  0.47340  Biso   1.000  H
  O137     1.0000 0.13799  0.83010  0.50147  Biso   1.000  O
  H225     1.0000 0.13120  0.85460  0.52290  Biso   1.000  H
  C329     1.0000 0.23970  0.72250  0.61111  Biso   1.000  C
  O138     1.0000 0.24117  0.77764  0.63149  Biso   1.000  O
  O139     1.0000 0.25501  0.66679  0.62714  Biso   1.000  O
  C330     1.0000 0.07009  0.00490  0.30133  Biso   1.000  C
  C331     1.0000 0.08140  0.93700  0.28904  Biso   1.000  C
  C332     1.0000 0.12076  0.92250  0.26278  Biso   1.000  C
  H226     1.0000 0.12660  0.87640  0.25410  Biso   1.000  H
  C333     1.0000 0.15214  0.97460  0.24884  Biso   1.000  C
  C334     1.0000 0.14240  0.04180  0.26182  Biso   1.000  C
  H227     1.0000 0.16380  0.07780  0.25320  Biso   1.000  H
  C335     1.0000 0.10240  0.05670  0.28706  Biso   1.000  C
  H228     1.0000 0.09640  0.10310  0.29510  Biso   1.000  H
  O140     1.0000 0.05138  0.88570  0.30345  Biso   1.000  O
  H229     1.0000 0.06310  0.84740  0.29650  Biso   1.000  H
  C336     1.0000 0.19510  0.95800  0.22114  Biso   1.000  C
  O141     1.0000 0.20496  0.89542  0.21309  Biso   1.000  O
  O142     1.0000 0.22039  0.00701  0.20633  Biso   1.000  O
  C337     1.0000 0.02597  0.02280  0.32733  Biso   1.000  C
  C338     1.0000 0.03053  0.06400  0.36413  Biso   1.000  C
  C339     1.0000 0.98821  0.08470  0.38653  Biso   1.000  C
  H230     1.0000 0.99170  0.11240  0.41150  Biso   1.000  H
  C340     1.0000 0.94187  0.06590  0.37321  Biso   1.000  C
  C341     1.0000 0.93739  0.02550  0.33669  Biso   1.000  C
  H231     1.0000 0.90590  0.01260  0.32670  Biso   1.000  H
  C342     1.0000 0.97920  0.00380  0.31467  Biso   1.000  C
  H232     1.0000 0.97550  0.97510  0.29020  Biso   1.000  H
  O143     1.0000 0.07610  0.08360  0.37845  Biso   1.000  O
  H233     1.0000 0.09770  0.06770  0.36200  Biso   1.000  H
  C343     1.0000 0.89732  0.09090  0.39778  Biso   1.000  C
  O144     1.0000 0.85677  0.09364  0.37868  Biso   1.000  O
  O145     1.0000 0.90485  0.10880  0.43598  Biso   1.000  O
  C344     1.0000 0.02470  0.56720  0.24000  Biso   1.000  C
  C345     1.0000 0.05620  0.62060  0.24990  Biso   1.000  C
  C346     1.0000 0.10160  0.62710  0.22910  Biso   1.000  C
  H234     1.0000 0.12260  0.66450  0.23590  Biso   1.000  H
  C347     1.0000 0.11588  0.57930  0.19880  Biso   1.000  C
  C348     1.0000 0.08500  0.52470  0.18790  Biso   1.000  C
  H235     1.0000 0.09440  0.49200  0.16680  Biso   1.000  H
  C349     1.0000 0.03950  0.51940  0.20900  Biso   1.000  C
  H236     1.0000 0.01830  0.48240  0.20190  Biso   1.000  H
  O146     1.0000 0.04185  0.66460  0.28150  Biso   1.000  O
  H237     1.0000 0.05950  0.70000  0.28100  Biso   1.000  H
  C350     1.0000 0.16564  0.58690  0.17857  Biso   1.000  C
  O147     1.0000 0.18962  0.64167  0.18598  Biso   1.000  O
  O148     1.0000 0.18292  0.53866  0.15683  Biso   1.000  O
  C351     1.0000 0.47300  0.75170  0.24430  Biso   1.000  C
  C352     1.0000 0.44220  0.80670  0.25440  Biso   1.000  C
  C353     1.0000 0.39340  0.80480  0.24340  Biso   1.000  C
  H238     1.0000 0.37360  0.84410  0.24880  Biso   1.000  H
  C354     1.0000 0.37210  0.74690  0.22449  Biso   1.000  C
  C355     1.0000 0.40303  0.69180  0.21470  Biso   1.000  C
  H239     1.0000 0.38990  0.65180  0.20140  Biso   1.000  H
  C356     1.0000 0.45300  0.69480  0.22423  Biso   1.000  C
  H240     1.0000 0.47360  0.65720  0.21680  Biso   1.000  H
  O149     1.0000 0.46000  0.86380  0.27560  Biso   1.000  O
  H241     1.0000 0.47530  0.88880  0.25830  Biso   1.000  H
  C357     1.0000 0.31820  0.74450  0.21503  Biso   1.000  C
  O150     1.0000 0.29718  0.80267  0.21204  Biso   1.000  O
  O151     1.0000 0.29713  0.68869  0.21161  Biso   1.000  O
  O152     1.0000 0.27479  0.47809  0.11496  Biso   1.000  O
  C358     1.0000 0.31270  0.44680  0.10627  Biso   1.000  C
  H242     1.0000 0.32720  0.41990  0.12830  Biso   1.000  H
  N8       1.0000 0.33498  0.44780  0.06843  Biso   1.000  N
  C359     1.0000 0.31510  0.48900  0.03370  Biso   1.000  C
  H243     1.0000 0.34120  0.51730  0.02130  Biso   1.000  H
  H244     1.0000 0.30160  0.45870  0.01160  Biso   1.000  H
  H245     1.0000 0.28920  0.51890  0.04480  Biso   1.000  H
  C360     1.0000 0.38190  0.41040  0.06140  Biso   1.000  C
  H246     1.0000 0.38850  0.38040  0.08610  Biso   1.000  H
  H247     1.0000 0.37940  0.38240  0.03540  Biso   1.000  H
  H248     1.0000 0.40860  0.44360  0.05830  Biso   1.000  H
