data_image0
_cell_length_a       28.486
_cell_length_b       28.486
_cell_length_c       46.678
_cell_angle_alpha    90
_cell_angle_beta     90
_cell_angle_gamma    90

_symmetry_space_group_name_H-M    "P 1"
_symmetry_int_tables_number       1

loop_
  _symmetry_equiv_pos_as_xyz
  'x, y, z'

loop_
  _atom_site_label
  _atom_site_occupancy
  _atom_site_fract_x
  _atom_site_fract_y
  _atom_site_fract_z
  _atom_site_thermal_displace_type
  _atom_site_B_iso_or_equiv
  _atom_site_type_symbol
  Tb1      1.0000 0.79547  0.16387  0.25416  Biso   1.000  Tb
  C1       1.0000 0.67810  0.09340  0.30200  Biso   1.000  C
  C2       1.0000 0.64250  0.06840  0.28810  Biso   1.000  C
  C3       1.0000 0.60000  0.06100  0.30070  Biso   1.000  C
  C4       1.0000 0.59030  0.07580  0.32810  Biso   1.000  C
  C5       1.0000 0.62690  0.09690  0.34240  Biso   1.000  C
  C6       1.0000 0.67090  0.10510  0.32980  Biso   1.000  C
  C7       1.0000 0.54240  0.06970  0.34050  Biso   1.000  C
  H1       1.0000 0.53920  0.03780  0.33300  Biso   1.000  H
  C8       1.0000 0.37320  0.13650  0.27890  Biso   1.000  C
  C9       1.0000 0.41770  0.11880  0.29570  Biso   1.000  C
  C10      1.0000 0.41980  0.07490  0.30740  Biso   1.000  C
  C11      1.0000 0.46000  0.06000  0.32180  Biso   1.000  C
  C12      1.0000 0.50040  0.08710  0.32483  Biso   1.000  C
  C13      1.0000 0.49860  0.13180  0.31210  Biso   1.000  C
  C14      1.0000 0.45790  0.14720  0.29760  Biso   1.000  C
  C15      1.0000 0.50510  0.00410  0.45650  Biso   1.000  C
  C16      1.0000 0.51500  0.02140  0.42700  Biso   1.000  C
  C17      1.0000 0.50060  0.06440  0.41800  Biso   1.000  C
  C18      1.0000 0.51110  0.08120  0.39080  Biso   1.000  C
  C19      1.0000 0.53530  0.05460  0.37100  Biso   1.000  C
  C20      1.0000 0.55110  0.01150  0.38000  Biso   1.000  C
  C21      1.0000 0.54000  0.99500  0.40840  Biso   1.000  C
  O1       1.0000 0.72810  0.12950  0.27420  Biso   1.000  O
  O2       1.0000 0.74930  0.08110  0.29620  Biso   1.000  O
  O3       1.0000 0.34760  0.16410  0.29144  Biso   1.000  O
  O4       1.0000 0.36580  0.12150  0.25550  Biso   1.000  O
  O5       1.0000 0.46620  0.98430  0.45928  Biso   1.000  O
  O6       1.0000 0.53540  0.00900  0.47570  Biso   1.000  O
  Cl1      1.0000 0.65424  0.04925  0.25341  Biso   1.000  Cl
  Cl2      1.0000 0.55925  0.03083  0.28092  Biso   1.000  Cl
  Cl3      1.0000 0.61937  0.11727  0.37772  Biso   1.000  Cl
  Cl4      1.0000 0.71430  0.13292  0.34901  Biso   1.000  Cl
  Cl5      1.0000 0.37107  0.03974  0.30546  Biso   1.000  Cl
  Cl6      1.0000 0.45896  0.00313  0.33537  Biso   1.000  Cl
  Cl7      1.0000 0.54419  0.16999  0.31439  Biso   1.000  Cl
  Cl8      1.0000 0.45628  0.20219  0.28251  Biso   1.000  Cl
  Cl9      1.0000 0.46993  0.09915  0.44179  Biso   1.000  Cl
  Cl10     1.0000 0.49451  0.13807  0.38254  Biso   1.000  Cl
  Cl11     1.0000 0.58138  0.97403  0.35717  Biso   1.000  Cl
  Cl12     1.0000 0.55979  0.93952  0.41843  Biso   1.000  Cl
  C22      1.0000 0.71430  0.10330  0.28900  Biso   1.000  C
  Tb2      1.0000 0.29547  0.66387  0.75416  Biso   1.000  Tb
  C23      1.0000 0.17810  0.59340  0.80200  Biso   1.000  C
  C24      1.0000 0.14250  0.56840  0.78810  Biso   1.000  C
  C25      1.0000 0.10000  0.56100  0.80070  Biso   1.000  C
  C26      1.0000 0.09030  0.57580  0.82810  Biso   1.000  C
  C27      1.0000 0.12690  0.59690  0.84240  Biso   1.000  C
  C28      1.0000 0.17090  0.60510  0.82980  Biso   1.000  C
  C29      1.0000 0.04240  0.56970  0.84050  Biso   1.000  C
  H2       1.0000 0.03920  0.53780  0.83300  Biso   1.000  H
  C30      1.0000 0.87320  0.63650  0.77890  Biso   1.000  C
  C31      1.0000 0.91770  0.61880  0.79570  Biso   1.000  C
  C32      1.0000 0.91980  0.57490  0.80740  Biso   1.000  C
  C33      1.0000 0.96000  0.56000  0.82180  Biso   1.000  C
  C34      1.0000 0.00040  0.58710  0.82483  Biso   1.000  C
  C35      1.0000 0.99860  0.63180  0.81210  Biso   1.000  C
  C36      1.0000 0.95790  0.64720  0.79760  Biso   1.000  C
  C37      1.0000 0.00510  0.50410  0.95650  Biso   1.000  C
  C38      1.0000 0.01500  0.52140  0.92700  Biso   1.000  C
  C39      1.0000 0.00060  0.56440  0.91800  Biso   1.000  C
  C40      1.0000 0.01110  0.58120  0.89080  Biso   1.000  C
  C41      1.0000 0.03530  0.55460  0.87100  Biso   1.000  C
  C42      1.0000 0.05110  0.51150  0.88000  Biso   1.000  C
  C43      1.0000 0.04000  0.49500  0.90840  Biso   1.000  C
  O7       1.0000 0.22810  0.62950  0.77420  Biso   1.000  O
  O8       1.0000 0.24930  0.58110  0.79620  Biso   1.000  O
  O9       1.0000 0.84760  0.66410  0.79144  Biso   1.000  O
  O10      1.0000 0.86580  0.62150  0.75550  Biso   1.000  O
  O11      1.0000 0.96620  0.48430  0.95928  Biso   1.000  O
  O12      1.0000 0.03540  0.50900  0.97570  Biso   1.000  O
  Cl13     1.0000 0.15424  0.54925  0.75341  Biso   1.000  Cl
  Cl14     1.0000 0.05925  0.53083  0.78092  Biso   1.000  Cl
  Cl15     1.0000 0.11937  0.61727  0.87772  Biso   1.000  Cl
  Cl16     1.0000 0.21430  0.63292  0.84901  Biso   1.000  Cl
  Cl17     1.0000 0.87107  0.53974  0.80546  Biso   1.000  Cl
  Cl18     1.0000 0.95896  0.50313  0.83537  Biso   1.000  Cl
  Cl19     1.0000 0.04419  0.66999  0.81439  Biso   1.000  Cl
  Cl20     1.0000 0.95628  0.70219  0.78251  Biso   1.000  Cl
  Cl21     1.0000 0.96993  0.59915  0.94179  Biso   1.000  Cl
  Cl22     1.0000 0.99451  0.63807  0.88254  Biso   1.000  Cl
  Cl23     1.0000 0.08138  0.47403  0.85717  Biso   1.000  Cl
  Cl24     1.0000 0.05979  0.43952  0.91843  Biso   1.000  Cl
  C44      1.0000 0.21430  0.60330  0.78900  Biso   1.000  C
  Tb3      1.0000 0.70453  0.83613  0.75416  Biso   1.000  Tb
  C45      1.0000 0.82190  0.90660  0.80200  Biso   1.000  C
  C46      1.0000 0.85750  0.93160  0.78810  Biso   1.000  C
  C47      1.0000 0.90000  0.93900  0.80070  Biso   1.000  C
  C48      1.0000 0.90970  0.92420  0.82810  Biso   1.000  C
  C49      1.0000 0.87310  0.90310  0.84240  Biso   1.000  C
  C50      1.0000 0.82910  0.89490  0.82980  Biso   1.000  C
  C51      1.0000 0.95760  0.93030  0.84050  Biso   1.000  C
  H3       1.0000 0.96080  0.96220  0.83300  Biso   1.000  H
  C52      1.0000 0.12680  0.86350  0.77890  Biso   1.000  C
  C53      1.0000 0.08230  0.88120  0.79570  Biso   1.000  C
  C54      1.0000 0.08020  0.92510  0.80740  Biso   1.000  C
  C55      1.0000 0.04000  0.94000  0.82180  Biso   1.000  C
  C56      1.0000 0.99960  0.91290  0.82483  Biso   1.000  C
  C57      1.0000 0.00140  0.86820  0.81210  Biso   1.000  C
  C58      1.0000 0.04210  0.85280  0.79760  Biso   1.000  C
  C59      1.0000 0.99490  0.99590  0.95650  Biso   1.000  C
  C60      1.0000 0.98500  0.97860  0.92700  Biso   1.000  C
  C61      1.0000 0.99940  0.93560  0.91800  Biso   1.000  C
  C62      1.0000 0.98890  0.91880  0.89080  Biso   1.000  C
  C63      1.0000 0.96470  0.94540  0.87100  Biso   1.000  C
  C64      1.0000 0.94890  0.98850  0.88000  Biso   1.000  C
  C65      1.0000 0.96000  0.00500  0.90840  Biso   1.000  C
  O13      1.0000 0.77190  0.87050  0.77420  Biso   1.000  O
  O14      1.0000 0.75070  0.91890  0.79620  Biso   1.000  O
  O15      1.0000 0.15240  0.83590  0.79144  Biso   1.000  O
  O16      1.0000 0.13420  0.87850  0.75550  Biso   1.000  O
  O17      1.0000 0.03380  0.01570  0.95928  Biso   1.000  O
  O18      1.0000 0.96460  0.99100  0.97570  Biso   1.000  O
  Cl25     1.0000 0.84576  0.95075  0.75341  Biso   1.000  Cl
  Cl26     1.0000 0.94075  0.96917  0.78092  Biso   1.000  Cl
  Cl27     1.0000 0.88063  0.88273  0.87772  Biso   1.000  Cl
  Cl28     1.0000 0.78570  0.86708  0.84901  Biso   1.000  Cl
  Cl29     1.0000 0.12893  0.96026  0.80546  Biso   1.000  Cl
  Cl30     1.0000 0.04104  0.99687  0.83537  Biso   1.000  Cl
  Cl31     1.0000 0.95581  0.83001  0.81439  Biso   1.000  Cl
  Cl32     1.0000 0.04372  0.79781  0.78251  Biso   1.000  Cl
  Cl33     1.0000 0.03007  0.90085  0.94179  Biso   1.000  Cl
  Cl34     1.0000 0.00549  0.86193  0.88254  Biso   1.000  Cl
  Cl35     1.0000 0.91862  0.02597  0.85717  Biso   1.000  Cl
  Cl36     1.0000 0.94021  0.06048  0.91843  Biso   1.000  Cl
  C66      1.0000 0.78570  0.89670  0.78900  Biso   1.000  C
  Tb4      1.0000 0.20453  0.33613  0.25416  Biso   1.000  Tb
  C67      1.0000 0.32190  0.40660  0.30200  Biso   1.000  C
  C68      1.0000 0.35750  0.43160  0.28810  Biso   1.000  C
  C69      1.0000 0.40000  0.43900  0.30070  Biso   1.000  C
  C70      1.0000 0.40970  0.42420  0.32810  Biso   1.000  C
  C71      1.0000 0.37310  0.40310  0.34240  Biso   1.000  C
  C72      1.0000 0.32910  0.39490  0.32980  Biso   1.000  C
  C73      1.0000 0.45760  0.43030  0.34050  Biso   1.000  C
  H4       1.0000 0.46080  0.46220  0.33300  Biso   1.000  H
  C74      1.0000 0.62680  0.36350  0.27890  Biso   1.000  C
  C75      1.0000 0.58230  0.38120  0.29570  Biso   1.000  C
  C76      1.0000 0.58020  0.42510  0.30740  Biso   1.000  C
  C77      1.0000 0.54000  0.44000  0.32180  Biso   1.000  C
  C78      1.0000 0.49960  0.41290  0.32483  Biso   1.000  C
  C79      1.0000 0.50140  0.36820  0.31210  Biso   1.000  C
  C80      1.0000 0.54210  0.35280  0.29760  Biso   1.000  C
  C81      1.0000 0.49490  0.49590  0.45650  Biso   1.000  C
  C82      1.0000 0.48500  0.47860  0.42700  Biso   1.000  C
  C83      1.0000 0.49940  0.43560  0.41800  Biso   1.000  C
  C84      1.0000 0.48890  0.41880  0.39080  Biso   1.000  C
  C85      1.0000 0.46470  0.44540  0.37100  Biso   1.000  C
  C86      1.0000 0.44890  0.48850  0.38000  Biso   1.000  C
  C87      1.0000 0.46000  0.50500  0.40840  Biso   1.000  C
  O19      1.0000 0.27190  0.37050  0.27420  Biso   1.000  O
  O20      1.0000 0.25070  0.41890  0.29620  Biso   1.000  O
  O21      1.0000 0.65240  0.33590  0.29144  Biso   1.000  O
  O22      1.0000 0.63420  0.37850  0.25550  Biso   1.000  O
  O23      1.0000 0.53380  0.51570  0.45928  Biso   1.000  O
  O24      1.0000 0.46460  0.49100  0.47570  Biso   1.000  O
  Cl37     1.0000 0.34576  0.45075  0.25341  Biso   1.000  Cl
  Cl38     1.0000 0.44075  0.46917  0.28092  Biso   1.000  Cl
  Cl39     1.0000 0.38063  0.38273  0.37772  Biso   1.000  Cl
  Cl40     1.0000 0.28570  0.36708  0.34901  Biso   1.000  Cl
  Cl41     1.0000 0.62893  0.46026  0.30546  Biso   1.000  Cl
  Cl42     1.0000 0.54104  0.49687  0.33537  Biso   1.000  Cl
  Cl43     1.0000 0.45581  0.33001  0.31439  Biso   1.000  Cl
  Cl44     1.0000 0.54372  0.29781  0.28251  Biso   1.000  Cl
  Cl45     1.0000 0.53007  0.40085  0.44179  Biso   1.000  Cl
  Cl46     1.0000 0.50549  0.36193  0.38254  Biso   1.000  Cl
  Cl47     1.0000 0.41862  0.52597  0.35717  Biso   1.000  Cl
  Cl48     1.0000 0.44021  0.56048  0.41843  Biso   1.000  Cl
  C88      1.0000 0.28570  0.39670  0.28900  Biso   1.000  C
  Tb5      1.0000 0.58613  0.04547  0.50416  Biso   1.000  Tb
  C89      1.0000 0.65660  0.92810  0.55200  Biso   1.000  C
  C90      1.0000 0.68160  0.89250  0.53810  Biso   1.000  C
  C91      1.0000 0.68900  0.85000  0.55070  Biso   1.000  C
  C92      1.0000 0.67420  0.84030  0.57810  Biso   1.000  C
  C93      1.0000 0.65310  0.87690  0.59240  Biso   1.000  C
  C94      1.0000 0.64490  0.92090  0.57980  Biso   1.000  C
  C95      1.0000 0.68030  0.79240  0.59050  Biso   1.000  C
  H5       1.0000 0.71220  0.78920  0.58300  Biso   1.000  H
  C96      1.0000 0.61350  0.62320  0.52890  Biso   1.000  C
  C97      1.0000 0.63120  0.66770  0.54570  Biso   1.000  C
  C98      1.0000 0.67510  0.66980  0.55740  Biso   1.000  C
  C99      1.0000 0.69000  0.71000  0.57180  Biso   1.000  C
  C100     1.0000 0.66290  0.75040  0.57483  Biso   1.000  C
  C101     1.0000 0.61820  0.74860  0.56210  Biso   1.000  C
  C102     1.0000 0.60280  0.70790  0.54760  Biso   1.000  C
  C103     1.0000 0.74590  0.75510  0.70650  Biso   1.000  C
  C104     1.0000 0.72860  0.76500  0.67700  Biso   1.000  C
  C105     1.0000 0.68560  0.75060  0.66800  Biso   1.000  C
  C106     1.0000 0.66880  0.76110  0.64080  Biso   1.000  C
  C107     1.0000 0.69540  0.78530  0.62100  Biso   1.000  C
  C108     1.0000 0.73850  0.80110  0.63000  Biso   1.000  C
  C109     1.0000 0.75500  0.79000  0.65840  Biso   1.000  C
  O25      1.0000 0.62050  0.97810  0.52420  Biso   1.000  O
  O26      1.0000 0.66890  0.99930  0.54620  Biso   1.000  O
  O27      1.0000 0.58590  0.59760  0.54144  Biso   1.000  O
  O28      1.0000 0.62850  0.61580  0.50550  Biso   1.000  O
  O29      1.0000 0.76570  0.71620  0.70928  Biso   1.000  O
  O30      1.0000 0.74100  0.78540  0.72570  Biso   1.000  O
  Cl49     1.0000 0.70075  0.90424  0.50341  Biso   1.000  Cl
  Cl50     1.0000 0.71917  0.80925  0.53092  Biso   1.000  Cl
  Cl51     1.0000 0.63273  0.86937  0.62772  Biso   1.000  Cl
  Cl52     1.0000 0.61708  0.96430  0.59901  Biso   1.000  Cl
  Cl53     1.0000 0.71026  0.62107  0.55546  Biso   1.000  Cl
  Cl54     1.0000 0.74687  0.70896  0.58537  Biso   1.000  Cl
  Cl55     1.0000 0.58001  0.79419  0.56439  Biso   1.000  Cl
  Cl56     1.0000 0.54781  0.70628  0.53251  Biso   1.000  Cl
  Cl57     1.0000 0.65085  0.71993  0.69179  Biso   1.000  Cl
  Cl58     1.0000 0.61193  0.74451  0.63254  Biso   1.000  Cl
  Cl59     1.0000 0.77597  0.83138  0.60717  Biso   1.000  Cl
  Cl60     1.0000 0.81048  0.80979  0.66843  Biso   1.000  Cl
  C110     1.0000 0.64670  0.96430  0.53900  Biso   1.000  C
  Tb6      1.0000 0.08613  0.54547  0.00416  Biso   1.000  Tb
  C111     1.0000 0.15660  0.42810  0.05200  Biso   1.000  C
  C112     1.0000 0.18160  0.39250  0.03810  Biso   1.000  C
  C113     1.0000 0.18900  0.35000  0.05070  Biso   1.000  C
  C114     1.0000 0.17420  0.34030  0.07810  Biso   1.000  C
  C115     1.0000 0.15310  0.37690  0.09240  Biso   1.000  C
  C116     1.0000 0.14490  0.42090  0.07980  Biso   1.000  C
  C117     1.0000 0.18030  0.29240  0.09050  Biso   1.000  C
  H6       1.0000 0.21220  0.28920  0.08300  Biso   1.000  H
  C118     1.0000 0.11350  0.12320  0.02890  Biso   1.000  C
  C119     1.0000 0.13120  0.16770  0.04570  Biso   1.000  C
  C120     1.0000 0.17510  0.16980  0.05740  Biso   1.000  C
  C121     1.0000 0.19000  0.21000  0.07180  Biso   1.000  C
  C122     1.0000 0.16290  0.25040  0.07483  Biso   1.000  C
  C123     1.0000 0.11820  0.24860  0.06210  Biso   1.000  C
  C124     1.0000 0.10280  0.20790  0.04760  Biso   1.000  C
  C125     1.0000 0.24590  0.25510  0.20650  Biso   1.000  C
  C126     1.0000 0.22860  0.26500  0.17700  Biso   1.000  C
  C127     1.0000 0.18560  0.25060  0.16800  Biso   1.000  C
  C128     1.0000 0.16880  0.26110  0.14080  Biso   1.000  C
  C129     1.0000 0.19540  0.28530  0.12100  Biso   1.000  C
  C130     1.0000 0.23850  0.30110  0.13000  Biso   1.000  C
  C131     1.0000 0.25500  0.29000  0.15840  Biso   1.000  C
  O31      1.0000 0.12050  0.47810  0.02420  Biso   1.000  O
  O32      1.0000 0.16890  0.49930  0.04620  Biso   1.000  O
  O33      1.0000 0.08590  0.09760  0.04144  Biso   1.000  O
  O34      1.0000 0.12850  0.11580  0.00550  Biso   1.000  O
  O35      1.0000 0.26570  0.21620  0.20928  Biso   1.000  O
  O36      1.0000 0.24100  0.28540  0.22570  Biso   1.000  O
  Cl61     1.0000 0.20075  0.40424  0.00341  Biso   1.000  Cl
  Cl62     1.0000 0.21917  0.30925  0.03092  Biso   1.000  Cl
  Cl63     1.0000 0.13273  0.36937  0.12772  Biso   1.000  Cl
  Cl64     1.0000 0.11708  0.46430  0.09901  Biso   1.000  Cl
  Cl65     1.0000 0.21026  0.12107  0.05546  Biso   1.000  Cl
  Cl66     1.0000 0.24687  0.20896  0.08537  Biso   1.000  Cl
  Cl67     1.0000 0.08001  0.29419  0.06439  Biso   1.000  Cl
  Cl68     1.0000 0.04781  0.20628  0.03251  Biso   1.000  Cl
  Cl69     1.0000 0.15085  0.21993  0.19179  Biso   1.000  Cl
  Cl70     1.0000 0.11193  0.24451  0.13254  Biso   1.000  Cl
  Cl71     1.0000 0.27597  0.33138  0.10717  Biso   1.000  Cl
  Cl72     1.0000 0.31048  0.30979  0.16843  Biso   1.000  Cl
  C132     1.0000 0.14670  0.46430  0.03900  Biso   1.000  C
  Tb7      1.0000 0.91387  0.95453  0.00416  Biso   1.000  Tb
  C133     1.0000 0.84340  0.07190  0.05200  Biso   1.000  C
  C134     1.0000 0.81840  0.10750  0.03810  Biso   1.000  C
  C135     1.0000 0.81100  0.15000  0.05070  Biso   1.000  C
  C136     1.0000 0.82580  0.15970  0.07810  Biso   1.000  C
  C137     1.0000 0.84690  0.12310  0.09240  Biso   1.000  C
  C138     1.0000 0.85510  0.07910  0.07980  Biso   1.000  C
  C139     1.0000 0.81970  0.20760  0.09050  Biso   1.000  C
  H7       1.0000 0.78780  0.21080  0.08300  Biso   1.000  H
  C140     1.0000 0.88650  0.37680  0.02890  Biso   1.000  C
  C141     1.0000 0.86880  0.33230  0.04570  Biso   1.000  C
  C142     1.0000 0.82490  0.33020  0.05740  Biso   1.000  C
  C143     1.0000 0.81000  0.29000  0.07180  Biso   1.000  C
  C144     1.0000 0.83710  0.24960  0.07483  Biso   1.000  C
  C145     1.0000 0.88180  0.25140  0.06210  Biso   1.000  C
  C146     1.0000 0.89720  0.29210  0.04760  Biso   1.000  C
  C147     1.0000 0.75410  0.24490  0.20650  Biso   1.000  C
  C148     1.0000 0.77140  0.23500  0.17700  Biso   1.000  C
  C149     1.0000 0.81440  0.24940  0.16800  Biso   1.000  C
  C150     1.0000 0.83120  0.23890  0.14080  Biso   1.000  C
  C151     1.0000 0.80460  0.21470  0.12100  Biso   1.000  C
  C152     1.0000 0.76150  0.19890  0.13000  Biso   1.000  C
  C153     1.0000 0.74500  0.21000  0.15840  Biso   1.000  C
  O37      1.0000 0.87950  0.02190  0.02420  Biso   1.000  O
  O38      1.0000 0.83110  0.00070  0.04620  Biso   1.000  O
  O39      1.0000 0.91410  0.40240  0.04144  Biso   1.000  O
  O40      1.0000 0.87150  0.38420  0.00550  Biso   1.000  O
  O41      1.0000 0.73430  0.28380  0.20928  Biso   1.000  O
  O42      1.0000 0.75900  0.21460  0.22570  Biso   1.000  O
  Cl73     1.0000 0.79925  0.09576  0.00341  Biso   1.000  Cl
  Cl74     1.0000 0.78083  0.19075  0.03092  Biso   1.000  Cl
  Cl75     1.0000 0.86727  0.13063  0.12772  Biso   1.000  Cl
  Cl76     1.0000 0.88292  0.03570  0.09901  Biso   1.000  Cl
  Cl77     1.0000 0.78974  0.37893  0.05546  Biso   1.000  Cl
  Cl78     1.0000 0.75313  0.29104  0.08537  Biso   1.000  Cl
  Cl79     1.0000 0.91999  0.20581  0.06439  Biso   1.000  Cl
  Cl80     1.0000 0.95219  0.29372  0.03251  Biso   1.000  Cl
  Cl81     1.0000 0.84915  0.28007  0.19179  Biso   1.000  Cl
  Cl82     1.0000 0.88807  0.25549  0.13254  Biso   1.000  Cl
  Cl83     1.0000 0.72403  0.16862  0.10717  Biso   1.000  Cl
  Cl84     1.0000 0.68952  0.19021  0.16843  Biso   1.000  Cl
  C154     1.0000 0.85330  0.03570  0.03900  Biso   1.000  C
  Tb8      1.0000 0.41387  0.45453  0.50416  Biso   1.000  Tb
  C155     1.0000 0.34340  0.57190  0.55200  Biso   1.000  C
  C156     1.0000 0.31840  0.60750  0.53810  Biso   1.000  C
  C157     1.0000 0.31100  0.65000  0.55070  Biso   1.000  C
  C158     1.0000 0.32580  0.65970  0.57810  Biso   1.000  C
  C159     1.0000 0.34690  0.62310  0.59240  Biso   1.000  C
  C160     1.0000 0.35510  0.57910  0.57980  Biso   1.000  C
  C161     1.0000 0.31970  0.70760  0.59050  Biso   1.000  C
  H8       1.0000 0.28780  0.71080  0.58300  Biso   1.000  H
  C162     1.0000 0.38650  0.87680  0.52890  Biso   1.000  C
  C163     1.0000 0.36880  0.83230  0.54570  Biso   1.000  C
  C164     1.0000 0.32490  0.83020  0.55740  Biso   1.000  C
  C165     1.0000 0.31000  0.79000  0.57180  Biso   1.000  C
  C166     1.0000 0.33710  0.74960  0.57483  Biso   1.000  C
  C167     1.0000 0.38180  0.75140  0.56210  Biso   1.000  C
  C168     1.0000 0.39720  0.79210  0.54760  Biso   1.000  C
  C169     1.0000 0.25410  0.74490  0.70650  Biso   1.000  C
  C170     1.0000 0.27140  0.73500  0.67700  Biso   1.000  C
  C171     1.0000 0.31440  0.74940  0.66800  Biso   1.000  C
  C172     1.0000 0.33120  0.73890  0.64080  Biso   1.000  C
  C173     1.0000 0.30460  0.71470  0.62100  Biso   1.000  C
  C174     1.0000 0.26150  0.69890  0.63000  Biso   1.000  C
  C175     1.0000 0.24500  0.71000  0.65840  Biso   1.000  C
  O43      1.0000 0.37950  0.52190  0.52420  Biso   1.000  O
  O44      1.0000 0.33110  0.50070  0.54620  Biso   1.000  O
  O45      1.0000 0.41410  0.90240  0.54144  Biso   1.000  O
  O46      1.0000 0.37150  0.88420  0.50550  Biso   1.000  O
  O47      1.0000 0.23430  0.78380  0.70928  Biso   1.000  O
  O48      1.0000 0.25900  0.71460  0.72570  Biso   1.000  O
  Cl85     1.0000 0.29925  0.59576  0.50341  Biso   1.000  Cl
  Cl86     1.0000 0.28083  0.69075  0.53092  Biso   1.000  Cl
  Cl87     1.0000 0.36727  0.63063  0.62772  Biso   1.000  Cl
  Cl88     1.0000 0.38292  0.53570  0.59901  Biso   1.000  Cl
  Cl89     1.0000 0.28974  0.87893  0.55546  Biso   1.000  Cl
  Cl90     1.0000 0.25313  0.79104  0.58537  Biso   1.000  Cl
  Cl91     1.0000 0.41999  0.70581  0.56439  Biso   1.000  Cl
  Cl92     1.0000 0.45219  0.79372  0.53251  Biso   1.000  Cl
  Cl93     1.0000 0.34915  0.78007  0.69179  Biso   1.000  Cl
  Cl94     1.0000 0.38807  0.75549  0.63254  Biso   1.000  Cl
  Cl95     1.0000 0.22403  0.66862  0.60717  Biso   1.000  Cl
  Cl96     1.0000 0.18952  0.69021  0.66843  Biso   1.000  Cl
  C176     1.0000 0.35330  0.53570  0.53900  Biso   1.000  C
  Tb9      1.0000 0.20453  0.83613  0.74584  Biso   1.000  Tb
  C177     1.0000 0.32190  0.90660  0.69800  Biso   1.000  C
  C178     1.0000 0.35750  0.93160  0.71190  Biso   1.000  C
  C179     1.0000 0.40000  0.93900  0.69930  Biso   1.000  C
  C180     1.0000 0.40970  0.92420  0.67190  Biso   1.000  C
  C181     1.0000 0.37310  0.90310  0.65760  Biso   1.000  C
  C182     1.0000 0.32910  0.89490  0.67020  Biso   1.000  C
  C183     1.0000 0.45760  0.93030  0.65950  Biso   1.000  C
  H9       1.0000 0.46080  0.96220  0.66700  Biso   1.000  H
  C184     1.0000 0.62680  0.86350  0.72110  Biso   1.000  C
  C185     1.0000 0.58230  0.88120  0.70430  Biso   1.000  C
  C186     1.0000 0.58020  0.92510  0.69260  Biso   1.000  C
  C187     1.0000 0.54000  0.94000  0.67820  Biso   1.000  C
  C188     1.0000 0.49960  0.91290  0.67517  Biso   1.000  C
  C189     1.0000 0.50140  0.86820  0.68790  Biso   1.000  C
  C190     1.0000 0.54210  0.85280  0.70240  Biso   1.000  C
  C191     1.0000 0.49490  0.99590  0.54350  Biso   1.000  C
  C192     1.0000 0.48500  0.97860  0.57300  Biso   1.000  C
  C193     1.0000 0.49940  0.93560  0.58200  Biso   1.000  C
  C194     1.0000 0.48890  0.91880  0.60920  Biso   1.000  C
  C195     1.0000 0.46470  0.94540  0.62900  Biso   1.000  C
  C196     1.0000 0.44890  0.98850  0.62000  Biso   1.000  C
  C197     1.0000 0.46000  0.00500  0.59160  Biso   1.000  C
  O49      1.0000 0.27190  0.87050  0.72580  Biso   1.000  O
  O50      1.0000 0.25070  0.91890  0.70380  Biso   1.000  O
  O51      1.0000 0.65240  0.83590  0.70856  Biso   1.000  O
  O52      1.0000 0.63420  0.87850  0.74450  Biso   1.000  O
  O53      1.0000 0.53380  0.01570  0.54072  Biso   1.000  O
  O54      1.0000 0.46460  0.99100  0.52430  Biso   1.000  O
  Cl97     1.0000 0.34576  0.95075  0.74659  Biso   1.000  Cl
  Cl98     1.0000 0.44075  0.96917  0.71908  Biso   1.000  Cl
  Cl99     1.0000 0.38063  0.88273  0.62228  Biso   1.000  Cl
  Cl100    1.0000 0.28570  0.86708  0.65099  Biso   1.000  Cl
  Cl101    1.0000 0.62893  0.96026  0.69454  Biso   1.000  Cl
  Cl102    1.0000 0.54104  0.99687  0.66463  Biso   1.000  Cl
  Cl103    1.0000 0.45581  0.83001  0.68561  Biso   1.000  Cl
  Cl104    1.0000 0.54372  0.79781  0.71749  Biso   1.000  Cl
  Cl105    1.0000 0.53007  0.90085  0.55821  Biso   1.000  Cl
  Cl106    1.0000 0.50549  0.86193  0.61746  Biso   1.000  Cl
  Cl107    1.0000 0.41862  0.02597  0.64283  Biso   1.000  Cl
  Cl108    1.0000 0.44021  0.06048  0.58157  Biso   1.000  Cl
  C198     1.0000 0.28570  0.89670  0.71100  Biso   1.000  C
  Tb10     1.0000 0.70453  0.33613  0.24584  Biso   1.000  Tb
  C199     1.0000 0.82190  0.40660  0.19800  Biso   1.000  C
  C200     1.0000 0.85750  0.43160  0.21190  Biso   1.000  C
  C201     1.0000 0.90000  0.43900  0.19930  Biso   1.000  C
  C202     1.0000 0.90970  0.42420  0.17190  Biso   1.000  C
  C203     1.0000 0.87310  0.40310  0.15760  Biso   1.000  C
  C204     1.0000 0.82910  0.39490  0.17020  Biso   1.000  C
  C205     1.0000 0.95760  0.43030  0.15950  Biso   1.000  C
  H10      1.0000 0.96080  0.46220  0.16700  Biso   1.000  H
  C206     1.0000 0.12680  0.36350  0.22110  Biso   1.000  C
  C207     1.0000 0.08230  0.38120  0.20430  Biso   1.000  C
  C208     1.0000 0.08020  0.42510  0.19260  Biso   1.000  C
  C209     1.0000 0.04000  0.44000  0.17820  Biso   1.000  C
  C210     1.0000 0.99960  0.41290  0.17517  Biso   1.000  C
  C211     1.0000 0.00140  0.36820  0.18790  Biso   1.000  C
  C212     1.0000 0.04210  0.35280  0.20240  Biso   1.000  C
  C213     1.0000 0.99490  0.49590  0.04350  Biso   1.000  C
  C214     1.0000 0.98500  0.47860  0.07300  Biso   1.000  C
  C215     1.0000 0.99940  0.43560  0.08200  Biso   1.000  C
  C216     1.0000 0.98890  0.41880  0.10920  Biso   1.000  C
  C217     1.0000 0.96470  0.44540  0.12900  Biso   1.000  C
  C218     1.0000 0.94890  0.48850  0.12000  Biso   1.000  C
  C219     1.0000 0.96000  0.50500  0.09160  Biso   1.000  C
  O55      1.0000 0.77190  0.37050  0.22580  Biso   1.000  O
  O56      1.0000 0.75070  0.41890  0.20380  Biso   1.000  O
  O57      1.0000 0.15240  0.33590  0.20856  Biso   1.000  O
  O58      1.0000 0.13420  0.37850  0.24450  Biso   1.000  O
  O59      1.0000 0.03380  0.51570  0.04072  Biso   1.000  O
  O60      1.0000 0.96460  0.49100  0.02430  Biso   1.000  O
  Cl109    1.0000 0.84576  0.45075  0.24659  Biso   1.000  Cl
  Cl110    1.0000 0.94075  0.46917  0.21908  Biso   1.000  Cl
  Cl111    1.0000 0.88063  0.38273  0.12228  Biso   1.000  Cl
  Cl112    1.0000 0.78570  0.36708  0.15099  Biso   1.000  Cl
  Cl113    1.0000 0.12893  0.46026  0.19454  Biso   1.000  Cl
  Cl114    1.0000 0.04104  0.49687  0.16463  Biso   1.000  Cl
  Cl115    1.0000 0.95581  0.33001  0.18561  Biso   1.000  Cl
  Cl116    1.0000 0.04372  0.29781  0.21749  Biso   1.000  Cl
  Cl117    1.0000 0.03007  0.40085  0.05821  Biso   1.000  Cl
  Cl118    1.0000 0.00549  0.36193  0.11746  Biso   1.000  Cl
  Cl119    1.0000 0.91862  0.52597  0.14283  Biso   1.000  Cl
  Cl120    1.0000 0.94021  0.56048  0.08157  Biso   1.000  Cl
  C220     1.0000 0.78570  0.39670  0.21100  Biso   1.000  C
  Tb11     1.0000 0.29547  0.16387  0.24584  Biso   1.000  Tb
  C221     1.0000 0.17810  0.09340  0.19800  Biso   1.000  C
  C222     1.0000 0.14250  0.06840  0.21190  Biso   1.000  C
  C223     1.0000 0.10000  0.06100  0.19930  Biso   1.000  C
  C224     1.0000 0.09030  0.07580  0.17190  Biso   1.000  C
  C225     1.0000 0.12690  0.09690  0.15760  Biso   1.000  C
  C226     1.0000 0.17090  0.10510  0.17020  Biso   1.000  C
  C227     1.0000 0.04240  0.06970  0.15950  Biso   1.000  C
  H11      1.0000 0.03920  0.03780  0.16700  Biso   1.000  H
  C228     1.0000 0.87320  0.13650  0.22110  Biso   1.000  C
  C229     1.0000 0.91770  0.11880  0.20430  Biso   1.000  C
  C230     1.0000 0.91980  0.07490  0.19260  Biso   1.000  C
  C231     1.0000 0.96000  0.06000  0.17820  Biso   1.000  C
  C232     1.0000 0.00040  0.08710  0.17517  Biso   1.000  C
  C233     1.0000 0.99860  0.13180  0.18790  Biso   1.000  C
  C234     1.0000 0.95790  0.14720  0.20240  Biso   1.000  C
  C235     1.0000 0.00510  0.00410  0.04350  Biso   1.000  C
  C236     1.0000 0.01500  0.02140  0.07300  Biso   1.000  C
  C237     1.0000 0.00060  0.06440  0.08200  Biso   1.000  C
  C238     1.0000 0.01110  0.08120  0.10920  Biso   1.000  C
  C239     1.0000 0.03530  0.05460  0.12900  Biso   1.000  C
  C240     1.0000 0.05110  0.01150  0.12000  Biso   1.000  C
  C241     1.0000 0.04000  0.99500  0.09160  Biso   1.000  C
  O61      1.0000 0.22810  0.12950  0.22580  Biso   1.000  O
  O62      1.0000 0.24930  0.08110  0.20380  Biso   1.000  O
  O63      1.0000 0.84760  0.16410  0.20856  Biso   1.000  O
  O64      1.0000 0.86580  0.12150  0.24450  Biso   1.000  O
  O65      1.0000 0.96620  0.98430  0.04072  Biso   1.000  O
  O66      1.0000 0.03540  0.00900  0.02430  Biso   1.000  O
  Cl121    1.0000 0.15424  0.04925  0.24659  Biso   1.000  Cl
  Cl122    1.0000 0.05925  0.03083  0.21908  Biso   1.000  Cl
  Cl123    1.0000 0.11937  0.11727  0.12228  Biso   1.000  Cl
  Cl124    1.0000 0.21430  0.13292  0.15099  Biso   1.000  Cl
  Cl125    1.0000 0.87107  0.03974  0.19454  Biso   1.000  Cl
  Cl126    1.0000 0.95896  0.00313  0.16463  Biso   1.000  Cl
  Cl127    1.0000 0.04419  0.16999  0.18561  Biso   1.000  Cl
  Cl128    1.0000 0.95628  0.20219  0.21749  Biso   1.000  Cl
  Cl129    1.0000 0.96993  0.09915  0.05821  Biso   1.000  Cl
  Cl130    1.0000 0.99451  0.13807  0.11746  Biso   1.000  Cl
  Cl131    1.0000 0.08138  0.97403  0.14283  Biso   1.000  Cl
  Cl132    1.0000 0.05979  0.93952  0.08157  Biso   1.000  Cl
  C242     1.0000 0.21430  0.10330  0.21100  Biso   1.000  C
  Tb12     1.0000 0.79547  0.66387  0.74584  Biso   1.000  Tb
  C243     1.0000 0.67810  0.59340  0.69800  Biso   1.000  C
  C244     1.0000 0.64250  0.56840  0.71190  Biso   1.000  C
  C245     1.0000 0.60000  0.56100  0.69930  Biso   1.000  C
  C246     1.0000 0.59030  0.57580  0.67190  Biso   1.000  C
  C247     1.0000 0.62690  0.59690  0.65760  Biso   1.000  C
  C248     1.0000 0.67090  0.60510  0.67020  Biso   1.000  C
  C249     1.0000 0.54240  0.56970  0.65950  Biso   1.000  C
  H12      1.0000 0.53920  0.53780  0.66700  Biso   1.000  H
  C250     1.0000 0.37320  0.63650  0.72110  Biso   1.000  C
  C251     1.0000 0.41770  0.61880  0.70430  Biso   1.000  C
  C252     1.0000 0.41980  0.57490  0.69260  Biso   1.000  C
  C253     1.0000 0.46000  0.56000  0.67820  Biso   1.000  C
  C254     1.0000 0.50040  0.58710  0.67517  Biso   1.000  C
  C255     1.0000 0.49860  0.63180  0.68790  Biso   1.000  C
  C256     1.0000 0.45790  0.64720  0.70240  Biso   1.000  C
  C257     1.0000 0.50510  0.50410  0.54350  Biso   1.000  C
  C258     1.0000 0.51500  0.52140  0.57300  Biso   1.000  C
  C259     1.0000 0.50060  0.56440  0.58200  Biso   1.000  C
  C260     1.0000 0.51110  0.58120  0.60920  Biso   1.000  C
  C261     1.0000 0.53530  0.55460  0.62900  Biso   1.000  C
  C262     1.0000 0.55110  0.51150  0.62000  Biso   1.000  C
  C263     1.0000 0.54000  0.49500  0.59160  Biso   1.000  C
  O67      1.0000 0.72810  0.62950  0.72580  Biso   1.000  O
  O68      1.0000 0.74930  0.58110  0.70380  Biso   1.000  O
  O69      1.0000 0.34760  0.66410  0.70856  Biso   1.000  O
  O70      1.0000 0.36580  0.62150  0.74450  Biso   1.000  O
  O71      1.0000 0.46620  0.48430  0.54072  Biso   1.000  O
  O72      1.0000 0.53540  0.50900  0.52430  Biso   1.000  O
  Cl133    1.0000 0.65424  0.54925  0.74659  Biso   1.000  Cl
  Cl134    1.0000 0.55925  0.53083  0.71908  Biso   1.000  Cl
  Cl135    1.0000 0.61937  0.61727  0.62228  Biso   1.000  Cl
  Cl136    1.0000 0.71430  0.63292  0.65099  Biso   1.000  Cl
  Cl137    1.0000 0.37107  0.53974  0.69454  Biso   1.000  Cl
  Cl138    1.0000 0.45896  0.50313  0.66463  Biso   1.000  Cl
  Cl139    1.0000 0.54419  0.66999  0.68561  Biso   1.000  Cl
  Cl140    1.0000 0.45628  0.70219  0.71749  Biso   1.000  Cl
  Cl141    1.0000 0.46993  0.59915  0.55821  Biso   1.000  Cl
  Cl142    1.0000 0.49451  0.63807  0.61746  Biso   1.000  Cl
  Cl143    1.0000 0.58138  0.47403  0.64283  Biso   1.000  Cl
  Cl144    1.0000 0.55979  0.43952  0.58157  Biso   1.000  Cl
  C264     1.0000 0.71430  0.60330  0.71100  Biso   1.000  C
  Tb13     1.0000 0.41387  0.95453  0.49584  Biso   1.000  Tb
  C265     1.0000 0.34340  0.07190  0.44800  Biso   1.000  C
  C266     1.0000 0.31840  0.10750  0.46190  Biso   1.000  C
  C267     1.0000 0.31100  0.15000  0.44930  Biso   1.000  C
  C268     1.0000 0.32580  0.15970  0.42190  Biso   1.000  C
  C269     1.0000 0.34690  0.12310  0.40760  Biso   1.000  C
  C270     1.0000 0.35510  0.07910  0.42020  Biso   1.000  C
  C271     1.0000 0.31970  0.20760  0.40950  Biso   1.000  C
  H13      1.0000 0.28780  0.21080  0.41700  Biso   1.000  H
  C272     1.0000 0.38650  0.37680  0.47110  Biso   1.000  C
  C273     1.0000 0.36880  0.33230  0.45430  Biso   1.000  C
  C274     1.0000 0.32490  0.33020  0.44260  Biso   1.000  C
  C275     1.0000 0.31000  0.29000  0.42820  Biso   1.000  C
  C276     1.0000 0.33710  0.24960  0.42517  Biso   1.000  C
  C277     1.0000 0.38180  0.25140  0.43790  Biso   1.000  C
  C278     1.0000 0.39720  0.29210  0.45240  Biso   1.000  C
  C279     1.0000 0.25410  0.24490  0.29350  Biso   1.000  C
  C280     1.0000 0.27140  0.23500  0.32300  Biso   1.000  C
  C281     1.0000 0.31440  0.24940  0.33200  Biso   1.000  C
  C282     1.0000 0.33120  0.23890  0.35920  Biso   1.000  C
  C283     1.0000 0.30460  0.21470  0.37900  Biso   1.000  C
  C284     1.0000 0.26150  0.19890  0.37000  Biso   1.000  C
  C285     1.0000 0.24500  0.21000  0.34160  Biso   1.000  C
  O73      1.0000 0.37950  0.02190  0.47580  Biso   1.000  O
  O74      1.0000 0.33110  0.00070  0.45380  Biso   1.000  O
  O75      1.0000 0.41410  0.40240  0.45856  Biso   1.000  O
  O76      1.0000 0.37150  0.38420  0.49450  Biso   1.000  O
  O77      1.0000 0.23430  0.28380  0.29072  Biso   1.000  O
  O78      1.0000 0.25900  0.21460  0.27430  Biso   1.000  O
  Cl145    1.0000 0.29925  0.09576  0.49659  Biso   1.000  Cl
  Cl146    1.0000 0.28083  0.19075  0.46908  Biso   1.000  Cl
  Cl147    1.0000 0.36727  0.13063  0.37228  Biso   1.000  Cl
  Cl148    1.0000 0.38292  0.03570  0.40099  Biso   1.000  Cl
  Cl149    1.0000 0.28974  0.37893  0.44454  Biso   1.000  Cl
  Cl150    1.0000 0.25313  0.29104  0.41463  Biso   1.000  Cl
  Cl151    1.0000 0.41999  0.20581  0.43561  Biso   1.000  Cl
  Cl152    1.0000 0.45219  0.29372  0.46749  Biso   1.000  Cl
  Cl153    1.0000 0.34915  0.28007  0.30821  Biso   1.000  Cl
  Cl154    1.0000 0.38807  0.25549  0.36746  Biso   1.000  Cl
  Cl155    1.0000 0.22403  0.16862  0.39283  Biso   1.000  Cl
  Cl156    1.0000 0.18952  0.19021  0.33157  Biso   1.000  Cl
  C286     1.0000 0.35330  0.03570  0.46100  Biso   1.000  C
  Tb14     1.0000 0.91387  0.45453  0.99584  Biso   1.000  Tb
  C287     1.0000 0.84340  0.57190  0.94800  Biso   1.000  C
  C288     1.0000 0.81840  0.60750  0.96190  Biso   1.000  C
  C289     1.0000 0.81100  0.65000  0.94930  Biso   1.000  C
  C290     1.0000 0.82580  0.65970  0.92190  Biso   1.000  C
  C291     1.0000 0.84690  0.62310  0.90760  Biso   1.000  C
  C292     1.0000 0.85510  0.57910  0.92020  Biso   1.000  C
  C293     1.0000 0.81970  0.70760  0.90950  Biso   1.000  C
  H14      1.0000 0.78780  0.71080  0.91700  Biso   1.000  H
  C294     1.0000 0.88650  0.87680  0.97110  Biso   1.000  C
  C295     1.0000 0.86880  0.83230  0.95430  Biso   1.000  C
  C296     1.0000 0.82490  0.83020  0.94260  Biso   1.000  C
  C297     1.0000 0.81000  0.79000  0.92820  Biso   1.000  C
  C298     1.0000 0.83710  0.74960  0.92517  Biso   1.000  C
  C299     1.0000 0.88180  0.75140  0.93790  Biso   1.000  C
  C300     1.0000 0.89720  0.79210  0.95240  Biso   1.000  C
  C301     1.0000 0.75410  0.74490  0.79350  Biso   1.000  C
  C302     1.0000 0.77140  0.73500  0.82300  Biso   1.000  C
  C303     1.0000 0.81440  0.74940  0.83200  Biso   1.000  C
  C304     1.0000 0.83120  0.73890  0.85920  Biso   1.000  C
  C305     1.0000 0.80460  0.71470  0.87900  Biso   1.000  C
  C306     1.0000 0.76150  0.69890  0.87000  Biso   1.000  C
  C307     1.0000 0.74500  0.71000  0.84160  Biso   1.000  C
  O79      1.0000 0.87950  0.52190  0.97580  Biso   1.000  O
  O80      1.0000 0.83110  0.50070  0.95380  Biso   1.000  O
  O81      1.0000 0.91410  0.90240  0.95856  Biso   1.000  O
  O82      1.0000 0.87150  0.88420  0.99450  Biso   1.000  O
  O83      1.0000 0.73430  0.78380  0.79072  Biso   1.000  O
  O84      1.0000 0.75900  0.71460  0.77430  Biso   1.000  O
  Cl157    1.0000 0.79925  0.59576  0.99659  Biso   1.000  Cl
  Cl158    1.0000 0.78083  0.69075  0.96908  Biso   1.000  Cl
  Cl159    1.0000 0.86727  0.63063  0.87228  Biso   1.000  Cl
  Cl160    1.0000 0.88292  0.53570  0.90099  Biso   1.000  Cl
  Cl161    1.0000 0.78974  0.87893  0.94454  Biso   1.000  Cl
  Cl162    1.0000 0.75313  0.79104  0.91463  Biso   1.000  Cl
  Cl163    1.0000 0.91999  0.70581  0.93561  Biso   1.000  Cl
  Cl164    1.0000 0.95219  0.79372  0.96749  Biso   1.000  Cl
  Cl165    1.0000 0.84915  0.78007  0.80821  Biso   1.000  Cl
  Cl166    1.0000 0.88807  0.75549  0.86746  Biso   1.000  Cl
  Cl167    1.0000 0.72403  0.66862  0.89283  Biso   1.000  Cl
  Cl168    1.0000 0.68952  0.69021  0.83157  Biso   1.000  Cl
  C308     1.0000 0.85330  0.53570  0.96100  Biso   1.000  C
  Tb15     1.0000 0.08613  0.04547  0.99584  Biso   1.000  Tb
  C309     1.0000 0.15660  0.92810  0.94800  Biso   1.000  C
  C310     1.0000 0.18160  0.89250  0.96190  Biso   1.000  C
  C311     1.0000 0.18900  0.85000  0.94930  Biso   1.000  C
  C312     1.0000 0.17420  0.84030  0.92190  Biso   1.000  C
  C313     1.0000 0.15310  0.87690  0.90760  Biso   1.000  C
  C314     1.0000 0.14490  0.92090  0.92020  Biso   1.000  C
  C315     1.0000 0.18030  0.79240  0.90950  Biso   1.000  C
  H15      1.0000 0.21220  0.78920  0.91700  Biso   1.000  H
  C316     1.0000 0.11350  0.62320  0.97110  Biso   1.000  C
  C317     1.0000 0.13120  0.66770  0.95430  Biso   1.000  C
  C318     1.0000 0.17510  0.66980  0.94260  Biso   1.000  C
  C319     1.0000 0.19000  0.71000  0.92820  Biso   1.000  C
  C320     1.0000 0.16290  0.75040  0.92517  Biso   1.000  C
  C321     1.0000 0.11820  0.74860  0.93790  Biso   1.000  C
  C322     1.0000 0.10280  0.70790  0.95240  Biso   1.000  C
  C323     1.0000 0.24590  0.75510  0.79350  Biso   1.000  C
  C324     1.0000 0.22860  0.76500  0.82300  Biso   1.000  C
  C325     1.0000 0.18560  0.75060  0.83200  Biso   1.000  C
  C326     1.0000 0.16880  0.76110  0.85920  Biso   1.000  C
  C327     1.0000 0.19540  0.78530  0.87900  Biso   1.000  C
  C328     1.0000 0.23850  0.80110  0.87000  Biso   1.000  C
  C329     1.0000 0.25500  0.79000  0.84160  Biso   1.000  C
  O85      1.0000 0.12050  0.97810  0.97580  Biso   1.000  O
  O86      1.0000 0.16890  0.99930  0.95380  Biso   1.000  O
  O87      1.0000 0.08590  0.59760  0.95856  Biso   1.000  O
  O88      1.0000 0.12850  0.61580  0.99450  Biso   1.000  O
  O89      1.0000 0.26570  0.71620  0.79072  Biso   1.000  O
  O90      1.0000 0.24100  0.78540  0.77430  Biso   1.000  O
  Cl169    1.0000 0.20075  0.90424  0.99659  Biso   1.000  Cl
  Cl170    1.0000 0.21917  0.80925  0.96908  Biso   1.000  Cl
  Cl171    1.0000 0.13273  0.86937  0.87228  Biso   1.000  Cl
  Cl172    1.0000 0.11708  0.96430  0.90099  Biso   1.000  Cl
  Cl173    1.0000 0.21026  0.62107  0.94454  Biso   1.000  Cl
  Cl174    1.0000 0.24687  0.70896  0.91463  Biso   1.000  Cl
  Cl175    1.0000 0.08001  0.79419  0.93561  Biso   1.000  Cl
  Cl176    1.0000 0.04781  0.70628  0.96749  Biso   1.000  Cl
  Cl177    1.0000 0.15085  0.71993  0.80821  Biso   1.000  Cl
  Cl178    1.0000 0.11193  0.74451  0.86746  Biso   1.000  Cl
  Cl179    1.0000 0.27597  0.83138  0.89283  Biso   1.000  Cl
  Cl180    1.0000 0.31048  0.80979  0.83157  Biso   1.000  Cl
  C330     1.0000 0.14670  0.96430  0.96100  Biso   1.000  C
  Tb16     1.0000 0.58613  0.54547  0.49584  Biso   1.000  Tb
  C331     1.0000 0.65660  0.42810  0.44800  Biso   1.000  C
  C332     1.0000 0.68160  0.39250  0.46190  Biso   1.000  C
  C333     1.0000 0.68900  0.35000  0.44930  Biso   1.000  C
  C334     1.0000 0.67420  0.34030  0.42190  Biso   1.000  C
  C335     1.0000 0.65310  0.37690  0.40760  Biso   1.000  C
  C336     1.0000 0.64490  0.42090  0.42020  Biso   1.000  C
  C337     1.0000 0.68030  0.29240  0.40950  Biso   1.000  C
  H16      1.0000 0.71220  0.28920  0.41700  Biso   1.000  H
  C338     1.0000 0.61350  0.12320  0.47110  Biso   1.000  C
  C339     1.0000 0.63120  0.16770  0.45430  Biso   1.000  C
  C340     1.0000 0.67510  0.16980  0.44260  Biso   1.000  C
  C341     1.0000 0.69000  0.21000  0.42820  Biso   1.000  C
  C342     1.0000 0.66290  0.25040  0.42517  Biso   1.000  C
  C343     1.0000 0.61820  0.24860  0.43790  Biso   1.000  C
  C344     1.0000 0.60280  0.20790  0.45240  Biso   1.000  C
  C345     1.0000 0.74590  0.25510  0.29350  Biso   1.000  C
  C346     1.0000 0.72860  0.26500  0.32300  Biso   1.000  C
  C347     1.0000 0.68560  0.25060  0.33200  Biso   1.000  C
  C348     1.0000 0.66880  0.26110  0.35920  Biso   1.000  C
  C349     1.0000 0.69540  0.28530  0.37900  Biso   1.000  C
  C350     1.0000 0.73850  0.30110  0.37000  Biso   1.000  C
  C351     1.0000 0.75500  0.29000  0.34160  Biso   1.000  C
  O91      1.0000 0.62050  0.47810  0.47580  Biso   1.000  O
  O92      1.0000 0.66890  0.49930  0.45380  Biso   1.000  O
  O93      1.0000 0.58590  0.09760  0.45856  Biso   1.000  O
  O94      1.0000 0.62850  0.11580  0.49450  Biso   1.000  O
  O95      1.0000 0.76570  0.21620  0.29072  Biso   1.000  O
  O96      1.0000 0.74100  0.28540  0.27430  Biso   1.000  O
  Cl181    1.0000 0.70075  0.40424  0.49659  Biso   1.000  Cl
  Cl182    1.0000 0.71917  0.30925  0.46908  Biso   1.000  Cl
  Cl183    1.0000 0.63273  0.36937  0.37228  Biso   1.000  Cl
  Cl184    1.0000 0.61708  0.46430  0.40099  Biso   1.000  Cl
  Cl185    1.0000 0.71026  0.12107  0.44454  Biso   1.000  Cl
  Cl186    1.0000 0.74687  0.20896  0.41463  Biso   1.000  Cl
  Cl187    1.0000 0.58001  0.29419  0.43561  Biso   1.000  Cl
  Cl188    1.0000 0.54781  0.20628  0.46749  Biso   1.000  Cl
  Cl189    1.0000 0.65085  0.21993  0.30821  Biso   1.000  Cl
  Cl190    1.0000 0.61193  0.24451  0.36746  Biso   1.000  Cl
  Cl191    1.0000 0.77597  0.33138  0.39283  Biso   1.000  Cl
  Cl192    1.0000 0.81048  0.30979  0.33157  Biso   1.000  Cl
  C352     1.0000 0.64670  0.46430  0.46100  Biso   1.000  C
