data_image0
_cell_length_a       32.8029
_cell_length_b       35.0128
_cell_length_c       11.4791
_cell_angle_alpha    90
_cell_angle_beta     110.198
_cell_angle_gamma    90

_symmetry_space_group_name_H-M    "P 1"
_symmetry_int_tables_number       1

loop_
  _symmetry_equiv_pos_as_xyz
  'x, y, z'

loop_
  _atom_site_label
  _atom_site_occupancy
  _atom_site_fract_x
  _atom_site_fract_y
  _atom_site_fract_z
  _atom_site_thermal_displace_type
  _atom_site_B_iso_or_equiv
  _atom_site_type_symbol
  Zn1      1.0000 0.96331  0.73757  0.70667  Biso   1.000  Zn
  O1       1.0000 0.77501  0.54222  0.86630  Biso   1.000  O
  O2       1.0000 0.73800  0.54155  0.66570  Biso   1.000  O
  O3       1.0000 0.76408  0.93174  0.81320  Biso   1.000  O
  O4       1.0000 0.76743  0.95823  0.64240  Biso   1.000  O
  O5       1.0000 0.18803  0.54084  0.84770  Biso   1.000  O
  O6       1.0000 0.17544  0.54210  0.64650  Biso   1.000  O
  O7       1.0000 0.14574  0.95784  0.66770  Biso   1.000  O
  O8       1.0000 0.19120  0.93160  0.83650  Biso   1.000  O
  O9       1.0000 0.98540  0.74424  0.89750  Biso   1.000  O
  N1       1.0000 0.96085  0.67895  0.69230  Biso   1.000  N
  N2       1.0000 0.96009  0.79577  0.67300  Biso   1.000  N
  N3       1.0000 0.02179  0.73654  0.67610  Biso   1.000  N
  N4       1.0000 0.89704  0.73776  0.67180  Biso   1.000  N
  C1       1.0000 0.76882  0.55407  0.75630  Biso   1.000  C
  C2       1.0000 0.77626  0.93064  0.71810  Biso   1.000  C
  C3       1.0000 0.79836  0.58374  0.73580  Biso   1.000  C
  C4       1.0000 0.80125  0.89750  0.69950  Biso   1.000  C
  C5       1.0000 0.87147  0.70654  0.66740  Biso   1.000  C
  C6       1.0000 0.16662  0.55340  0.73910  Biso   1.000  C
  C7       1.0000 0.12785  0.89620  0.72400  Biso   1.000  C
  C8       1.0000 0.99514  0.65531  0.70020  Biso   1.000  C
  C9       1.0000 0.15709  0.93018  0.74390  Biso   1.000  C
  C10      1.0000 0.13174  0.58193  0.72300  Biso   1.000  C
  C11      1.0000 0.92767  0.65607  0.70150  Biso   1.000  C
  C12      1.0000 0.85493  0.63929  0.70250  Biso   1.000  C
  C13      1.0000 0.04602  0.76760  0.66990  Biso   1.000  C
  C14      1.0000 0.99570  0.81854  0.68840  Biso   1.000  C
  C15      1.0000 0.06748  0.63709  0.69790  Biso   1.000  C
  C16      1.0000 0.81278  0.86794  0.78640  Biso   1.000  C
  H1       1.0000 0.80260  0.86810  0.85440  Biso   1.000  H
  C17      1.0000 0.92772  0.81915  0.67940  Biso   1.000  C
  C18      1.0000 0.06937  0.83565  0.69560  Biso   1.000  C
  C19      1.0000 0.85440  0.83755  0.67410  Biso   1.000  C
  C20      1.0000 0.88611  0.66853  0.68830  Biso   1.000  C
  C21      1.0000 0.94266  0.61692  0.71860  Biso   1.000  C
  H2       1.0000 0.92650  0.59550  0.72900  Biso   1.000  H
  C22      1.0000 0.04530  0.70485  0.66860  Biso   1.000  C
  C23      1.0000 0.03418  0.66718  0.68720  Biso   1.000  C
  C24      1.0000 0.94352  0.85784  0.70240  Biso   1.000  C
  H3       1.0000 0.92740  0.87960  0.71070  Biso   1.000  H
  C25      1.0000 0.87105  0.76920  0.65860  Biso   1.000  C
  C26      1.0000 0.08441  0.71695  0.64840  Biso   1.000  C
  H4       1.0000 0.10580  0.70070  0.63640  Biso   1.000  H
  C27      1.0000 0.98530  0.85735  0.70980  Biso   1.000  C
  H5       1.0000 0.00440  0.87860  0.72600  Biso   1.000  H
  C28      1.0000 0.88547  0.80752  0.66860  Biso   1.000  C
  C29      1.0000 0.08507  0.75485  0.64980  Biso   1.000  C
  H6       1.0000 0.10710  0.77070  0.63960  Biso   1.000  H
  C30      1.0000 0.79624  0.59446  0.61890  Biso   1.000  C
  H7       1.0000 0.77520  0.58310  0.54850  Biso   1.000  H
  C31      1.0000 0.83906  0.83833  0.77400  Biso   1.000  C
  H8       1.0000 0.84680  0.81840  0.83380  Biso   1.000  H
  C32      1.0000 0.98333  0.61626  0.71720  Biso   1.000  C
  H9       1.0000 0.00110  0.59430  0.72570  Biso   1.000  H
  C33      1.0000 0.09147  0.89326  0.61950  Biso   1.000  C
  H10      1.0000 0.08620  0.91200  0.55600  Biso   1.000  H
  C34      1.0000 0.03571  0.80579  0.68400  Biso   1.000  C
  C35      1.0000 0.82700  0.75704  0.63890  Biso   1.000  C
  H11      1.0000 0.80240  0.77310  0.62460  Biso   1.000  H
  C36      1.0000 0.06252  0.86373  0.60510  Biso   1.000  C
  H12      1.0000 0.03750  0.86250  0.53220  Biso   1.000  H
  C37      1.0000 0.81506  0.89648  0.59780  Biso   1.000  C
  H13      1.0000 0.80670  0.91610  0.53700  Biso   1.000  H
  C38      1.0000 0.82875  0.60181  0.83660  Biso   1.000  C
  H14      1.0000 0.83070  0.59510  0.91860  Biso   1.000  H
  C39      1.0000 0.82753  0.71874  0.64480  Biso   1.000  C
  H15      1.0000 0.80330  0.70260  0.63580  Biso   1.000  H
  C40      1.0000 0.10766  0.83732  0.79740  Biso   1.000  C
  H16      1.0000 0.11410  0.81770  0.85820  Biso   1.000  H
  C41      1.0000 0.85579  0.62913  0.81860  Biso   1.000  C
  H17      1.0000 0.87580  0.64150  0.88890  Biso   1.000  H
  C42      1.0000 0.82425  0.62153  0.60250  Biso   1.000  C
  H18      1.0000 0.82250  0.62820  0.52070  Biso   1.000  H
  C43      1.0000 0.13641  0.86724  0.81110  Biso   1.000  C
  H19      1.0000 0.16240  0.86790  0.88130  Biso   1.000  H
  C44      1.0000 0.84126  0.86652  0.58570  Biso   1.000  C
  H20      1.0000 0.85040  0.86580  0.51560  Biso   1.000  H
  C45      1.0000 0.11124  0.59903  0.61160  Biso   1.000  C
  H21      1.0000 0.11870  0.59210  0.54150  Biso   1.000  H
  C46      1.0000 0.07953  0.62650  0.59940  Biso   1.000  C
  H22      1.0000 0.06580  0.63820  0.52100  Biso   1.000  H
  C47      1.0000 0.08730  0.61835  0.81030  Biso   1.000  C
  H23      1.0000 0.07880  0.62430  0.87930  Biso   1.000  H
  C48      1.0000 0.11923  0.59125  0.82300  Biso   1.000  C
  H24      1.0000 0.13260  0.57900  0.90070  Biso   1.000  H
  Na1      1.0000 0.74923  0.92266  0.98946  Biso   1.000  Na
  Zn2      1.0000 0.46331  0.23757  0.70667  Biso   1.000  Zn
  O10      1.0000 0.27501  0.04222  0.86630  Biso   1.000  O
  O11      1.0000 0.23800  0.04155  0.66570  Biso   1.000  O
  O12      1.0000 0.26408  0.43174  0.81320  Biso   1.000  O
  O13      1.0000 0.26743  0.45823  0.64240  Biso   1.000  O
  O14      1.0000 0.68803  0.04084  0.84770  Biso   1.000  O
  O15      1.0000 0.67544  0.04210  0.64650  Biso   1.000  O
  O16      1.0000 0.64574  0.45784  0.66770  Biso   1.000  O
  O17      1.0000 0.69120  0.43160  0.83650  Biso   1.000  O
  O18      1.0000 0.48540  0.24424  0.89750  Biso   1.000  O
  N5       1.0000 0.46085  0.17895  0.69230  Biso   1.000  N
  N6       1.0000 0.46009  0.29577  0.67300  Biso   1.000  N
  N7       1.0000 0.52179  0.23654  0.67610  Biso   1.000  N
  N8       1.0000 0.39704  0.23776  0.67180  Biso   1.000  N
  C49      1.0000 0.26882  0.05407  0.75630  Biso   1.000  C
  C50      1.0000 0.27626  0.43064  0.71810  Biso   1.000  C
  C51      1.0000 0.29836  0.08374  0.73580  Biso   1.000  C
  C52      1.0000 0.30125  0.39750  0.69950  Biso   1.000  C
  C53      1.0000 0.37147  0.20654  0.66740  Biso   1.000  C
  C54      1.0000 0.66662  0.05340  0.73910  Biso   1.000  C
  C55      1.0000 0.62785  0.39620  0.72400  Biso   1.000  C
  C56      1.0000 0.49514  0.15531  0.70020  Biso   1.000  C
  C57      1.0000 0.65709  0.43018  0.74390  Biso   1.000  C
  C58      1.0000 0.63174  0.08193  0.72300  Biso   1.000  C
  C59      1.0000 0.42767  0.15607  0.70150  Biso   1.000  C
  C60      1.0000 0.35493  0.13929  0.70250  Biso   1.000  C
  C61      1.0000 0.54602  0.26760  0.66990  Biso   1.000  C
  C62      1.0000 0.49570  0.31854  0.68840  Biso   1.000  C
  C63      1.0000 0.56748  0.13709  0.69790  Biso   1.000  C
  C64      1.0000 0.31278  0.36794  0.78640  Biso   1.000  C
  H25      1.0000 0.30260  0.36810  0.85440  Biso   1.000  H
  C65      1.0000 0.42772  0.31915  0.67940  Biso   1.000  C
  C66      1.0000 0.56937  0.33565  0.69560  Biso   1.000  C
  C67      1.0000 0.35440  0.33755  0.67410  Biso   1.000  C
  C68      1.0000 0.38611  0.16853  0.68830  Biso   1.000  C
  C69      1.0000 0.44266  0.11692  0.71860  Biso   1.000  C
  H26      1.0000 0.42650  0.09550  0.72900  Biso   1.000  H
  C70      1.0000 0.54530  0.20485  0.66860  Biso   1.000  C
  C71      1.0000 0.53418  0.16718  0.68720  Biso   1.000  C
  C72      1.0000 0.44352  0.35784  0.70240  Biso   1.000  C
  H27      1.0000 0.42740  0.37960  0.71070  Biso   1.000  H
  C73      1.0000 0.37105  0.26920  0.65860  Biso   1.000  C
  C74      1.0000 0.58441  0.21695  0.64840  Biso   1.000  C
  H28      1.0000 0.60580  0.20070  0.63640  Biso   1.000  H
  C75      1.0000 0.48530  0.35735  0.70980  Biso   1.000  C
  H29      1.0000 0.50440  0.37860  0.72600  Biso   1.000  H
  C76      1.0000 0.38547  0.30752  0.66860  Biso   1.000  C
  C77      1.0000 0.58507  0.25485  0.64980  Biso   1.000  C
  H30      1.0000 0.60710  0.27070  0.63960  Biso   1.000  H
  C78      1.0000 0.29624  0.09446  0.61890  Biso   1.000  C
  H31      1.0000 0.27520  0.08310  0.54850  Biso   1.000  H
  C79      1.0000 0.33906  0.33833  0.77400  Biso   1.000  C
  H32      1.0000 0.34680  0.31840  0.83380  Biso   1.000  H
  C80      1.0000 0.48333  0.11626  0.71720  Biso   1.000  C
  H33      1.0000 0.50110  0.09430  0.72570  Biso   1.000  H
  C81      1.0000 0.59147  0.39326  0.61950  Biso   1.000  C
  H34      1.0000 0.58620  0.41200  0.55600  Biso   1.000  H
  C82      1.0000 0.53571  0.30579  0.68400  Biso   1.000  C
  C83      1.0000 0.32700  0.25704  0.63890  Biso   1.000  C
  H35      1.0000 0.30240  0.27310  0.62460  Biso   1.000  H
  C84      1.0000 0.56252  0.36373  0.60510  Biso   1.000  C
  H36      1.0000 0.53750  0.36250  0.53220  Biso   1.000  H
  C85      1.0000 0.31506  0.39648  0.59780  Biso   1.000  C
  H37      1.0000 0.30670  0.41610  0.53700  Biso   1.000  H
  C86      1.0000 0.32875  0.10181  0.83660  Biso   1.000  C
  H38      1.0000 0.33070  0.09510  0.91860  Biso   1.000  H
  C87      1.0000 0.32753  0.21874  0.64480  Biso   1.000  C
  H39      1.0000 0.30330  0.20260  0.63580  Biso   1.000  H
  C88      1.0000 0.60766  0.33732  0.79740  Biso   1.000  C
  H40      1.0000 0.61410  0.31770  0.85820  Biso   1.000  H
  C89      1.0000 0.35579  0.12913  0.81860  Biso   1.000  C
  H41      1.0000 0.37580  0.14150  0.88890  Biso   1.000  H
  C90      1.0000 0.32425  0.12153  0.60250  Biso   1.000  C
  H42      1.0000 0.32250  0.12820  0.52070  Biso   1.000  H
  C91      1.0000 0.63641  0.36724  0.81110  Biso   1.000  C
  H43      1.0000 0.66240  0.36790  0.88130  Biso   1.000  H
  C92      1.0000 0.34126  0.36652  0.58570  Biso   1.000  C
  H44      1.0000 0.35040  0.36580  0.51560  Biso   1.000  H
  C93      1.0000 0.61124  0.09903  0.61160  Biso   1.000  C
  H45      1.0000 0.61870  0.09210  0.54150  Biso   1.000  H
  C94      1.0000 0.57953  0.12650  0.59940  Biso   1.000  C
  H46      1.0000 0.56580  0.13820  0.52100  Biso   1.000  H
  C95      1.0000 0.58730  0.11835  0.81030  Biso   1.000  C
  H47      1.0000 0.57880  0.12430  0.87930  Biso   1.000  H
  C96      1.0000 0.61923  0.09125  0.82300  Biso   1.000  C
  H48      1.0000 0.63260  0.07900  0.90070  Biso   1.000  H
  Na2      1.0000 0.24923  0.42266  0.98946  Biso   1.000  Na
  Zn3      1.0000 0.03669  0.73757  0.29333  Biso   1.000  Zn
  O19      1.0000 0.22499  0.54222  0.13370  Biso   1.000  O
  O20      1.0000 0.26200  0.54155  0.33430  Biso   1.000  O
  O21      1.0000 0.23592  0.93174  0.18680  Biso   1.000  O
  O22      1.0000 0.23257  0.95823  0.35760  Biso   1.000  O
  O23      1.0000 0.81197  0.54084  0.15230  Biso   1.000  O
  O24      1.0000 0.82456  0.54210  0.35350  Biso   1.000  O
  O25      1.0000 0.85426  0.95784  0.33230  Biso   1.000  O
  O26      1.0000 0.80880  0.93160  0.16350  Biso   1.000  O
  O27      1.0000 0.01460  0.74424  0.10250  Biso   1.000  O
  N9       1.0000 0.03915  0.67895  0.30770  Biso   1.000  N
  N10      1.0000 0.03991  0.79577  0.32700  Biso   1.000  N
  N11      1.0000 0.97821  0.73654  0.32390  Biso   1.000  N
  N12      1.0000 0.10296  0.73776  0.32820  Biso   1.000  N
  C97      1.0000 0.23118  0.55407  0.24370  Biso   1.000  C
  C98      1.0000 0.22374  0.93064  0.28190  Biso   1.000  C
  C99      1.0000 0.20164  0.58374  0.26420  Biso   1.000  C
  C100     1.0000 0.19875  0.89750  0.30050  Biso   1.000  C
  C101     1.0000 0.12853  0.70654  0.33260  Biso   1.000  C
  C102     1.0000 0.83338  0.55340  0.26090  Biso   1.000  C
  C103     1.0000 0.87215  0.89620  0.27600  Biso   1.000  C
  C104     1.0000 0.00486  0.65531  0.29980  Biso   1.000  C
  C105     1.0000 0.84291  0.93018  0.25610  Biso   1.000  C
  C106     1.0000 0.86826  0.58193  0.27700  Biso   1.000  C
  C107     1.0000 0.07233  0.65607  0.29850  Biso   1.000  C
  C108     1.0000 0.14507  0.63929  0.29750  Biso   1.000  C
  C109     1.0000 0.95398  0.76760  0.33010  Biso   1.000  C
  C110     1.0000 0.00430  0.81854  0.31160  Biso   1.000  C
  C111     1.0000 0.93252  0.63709  0.30210  Biso   1.000  C
  C112     1.0000 0.18722  0.86794  0.21360  Biso   1.000  C
  H49      1.0000 0.19740  0.86810  0.14560  Biso   1.000  H
  C113     1.0000 0.07228  0.81915  0.32060  Biso   1.000  C
  C114     1.0000 0.93063  0.83565  0.30440  Biso   1.000  C
  C115     1.0000 0.14560  0.83755  0.32590  Biso   1.000  C
  C116     1.0000 0.11389  0.66853  0.31170  Biso   1.000  C
  C117     1.0000 0.05734  0.61692  0.28140  Biso   1.000  C
  H50      1.0000 0.07350  0.59550  0.27100  Biso   1.000  H
  C118     1.0000 0.95470  0.70485  0.33140  Biso   1.000  C
  C119     1.0000 0.96582  0.66718  0.31280  Biso   1.000  C
  C120     1.0000 0.05648  0.85784  0.29760  Biso   1.000  C
  H51      1.0000 0.07260  0.87960  0.28930  Biso   1.000  H
  C121     1.0000 0.12895  0.76920  0.34140  Biso   1.000  C
  C122     1.0000 0.91559  0.71695  0.35160  Biso   1.000  C
  H52      1.0000 0.89420  0.70070  0.36360  Biso   1.000  H
  C123     1.0000 0.01470  0.85735  0.29020  Biso   1.000  C
  H53      1.0000 0.99560  0.87860  0.27400  Biso   1.000  H
  C124     1.0000 0.11453  0.80752  0.33140  Biso   1.000  C
  C125     1.0000 0.91493  0.75485  0.35020  Biso   1.000  C
  H54      1.0000 0.89290  0.77070  0.36040  Biso   1.000  H
  C126     1.0000 0.20376  0.59446  0.38110  Biso   1.000  C
  H55      1.0000 0.22480  0.58310  0.45150  Biso   1.000  H
  C127     1.0000 0.16094  0.83833  0.22600  Biso   1.000  C
  H56      1.0000 0.15320  0.81840  0.16620  Biso   1.000  H
  C128     1.0000 0.01667  0.61626  0.28280  Biso   1.000  C
  H57      1.0000 0.99890  0.59430  0.27430  Biso   1.000  H
  C129     1.0000 0.90853  0.89326  0.38050  Biso   1.000  C
  H58      1.0000 0.91380  0.91200  0.44400  Biso   1.000  H
  C130     1.0000 0.96429  0.80579  0.31600  Biso   1.000  C
  C131     1.0000 0.17300  0.75704  0.36110  Biso   1.000  C
  H59      1.0000 0.19760  0.77310  0.37540  Biso   1.000  H
  C132     1.0000 0.93748  0.86373  0.39490  Biso   1.000  C
  H60      1.0000 0.96250  0.86250  0.46780  Biso   1.000  H
  C133     1.0000 0.18494  0.89648  0.40220  Biso   1.000  C
  H61      1.0000 0.19330  0.91610  0.46300  Biso   1.000  H
  C134     1.0000 0.17125  0.60181  0.16340  Biso   1.000  C
  H62      1.0000 0.16930  0.59510  0.08140  Biso   1.000  H
  C135     1.0000 0.17247  0.71874  0.35520  Biso   1.000  C
  H63      1.0000 0.19670  0.70260  0.36420  Biso   1.000  H
  C136     1.0000 0.89234  0.83732  0.20260  Biso   1.000  C
  H64      1.0000 0.88590  0.81770  0.14180  Biso   1.000  H
  C137     1.0000 0.14421  0.62913  0.18140  Biso   1.000  C
  H65      1.0000 0.12420  0.64150  0.11110  Biso   1.000  H
  C138     1.0000 0.17575  0.62153  0.39750  Biso   1.000  C
  H66      1.0000 0.17750  0.62820  0.47930  Biso   1.000  H
  C139     1.0000 0.86359  0.86724  0.18890  Biso   1.000  C
  H67      1.0000 0.83760  0.86790  0.11870  Biso   1.000  H
  C140     1.0000 0.15874  0.86652  0.41430  Biso   1.000  C
  H68      1.0000 0.14960  0.86580  0.48440  Biso   1.000  H
  C141     1.0000 0.88876  0.59903  0.38840  Biso   1.000  C
  H69      1.0000 0.88130  0.59210  0.45850  Biso   1.000  H
  C142     1.0000 0.92047  0.62650  0.40060  Biso   1.000  C
  H70      1.0000 0.93420  0.63820  0.47900  Biso   1.000  H
  C143     1.0000 0.91270  0.61835  0.18970  Biso   1.000  C
  H71      1.0000 0.92120  0.62430  0.12070  Biso   1.000  H
  C144     1.0000 0.88077  0.59125  0.17700  Biso   1.000  C
  H72      1.0000 0.86740  0.57900  0.09930  Biso   1.000  H
  Na3      1.0000 0.25077  0.92266  0.01054  Biso   1.000  Na
  Zn4      1.0000 0.53669  0.23757  0.29333  Biso   1.000  Zn
  O28      1.0000 0.72499  0.04222  0.13370  Biso   1.000  O
  O29      1.0000 0.76200  0.04155  0.33430  Biso   1.000  O
  O30      1.0000 0.73592  0.43174  0.18680  Biso   1.000  O
  O31      1.0000 0.73257  0.45823  0.35760  Biso   1.000  O
  O32      1.0000 0.31197  0.04084  0.15230  Biso   1.000  O
  O33      1.0000 0.32456  0.04210  0.35350  Biso   1.000  O
  O34      1.0000 0.35426  0.45784  0.33230  Biso   1.000  O
  O35      1.0000 0.30880  0.43160  0.16350  Biso   1.000  O
  O36      1.0000 0.51460  0.24424  0.10250  Biso   1.000  O
  N13      1.0000 0.53915  0.17895  0.30770  Biso   1.000  N
  N14      1.0000 0.53991  0.29577  0.32700  Biso   1.000  N
  N15      1.0000 0.47821  0.23654  0.32390  Biso   1.000  N
  N16      1.0000 0.60296  0.23776  0.32820  Biso   1.000  N
  C145     1.0000 0.73118  0.05407  0.24370  Biso   1.000  C
  C146     1.0000 0.72374  0.43064  0.28190  Biso   1.000  C
  C147     1.0000 0.70164  0.08374  0.26420  Biso   1.000  C
  C148     1.0000 0.69875  0.39750  0.30050  Biso   1.000  C
  C149     1.0000 0.62853  0.20654  0.33260  Biso   1.000  C
  C150     1.0000 0.33338  0.05340  0.26090  Biso   1.000  C
  C151     1.0000 0.37215  0.39620  0.27600  Biso   1.000  C
  C152     1.0000 0.50486  0.15531  0.29980  Biso   1.000  C
  C153     1.0000 0.34291  0.43018  0.25610  Biso   1.000  C
  C154     1.0000 0.36826  0.08193  0.27700  Biso   1.000  C
  C155     1.0000 0.57233  0.15607  0.29850  Biso   1.000  C
  C156     1.0000 0.64507  0.13929  0.29750  Biso   1.000  C
  C157     1.0000 0.45398  0.26760  0.33010  Biso   1.000  C
  C158     1.0000 0.50430  0.31854  0.31160  Biso   1.000  C
  C159     1.0000 0.43252  0.13709  0.30210  Biso   1.000  C
  C160     1.0000 0.68722  0.36794  0.21360  Biso   1.000  C
  H73      1.0000 0.69740  0.36810  0.14560  Biso   1.000  H
  C161     1.0000 0.57228  0.31915  0.32060  Biso   1.000  C
  C162     1.0000 0.43063  0.33565  0.30440  Biso   1.000  C
  C163     1.0000 0.64560  0.33755  0.32590  Biso   1.000  C
  C164     1.0000 0.61389  0.16853  0.31170  Biso   1.000  C
  C165     1.0000 0.55734  0.11692  0.28140  Biso   1.000  C
  H74      1.0000 0.57350  0.09550  0.27100  Biso   1.000  H
  C166     1.0000 0.45470  0.20485  0.33140  Biso   1.000  C
  C167     1.0000 0.46582  0.16718  0.31280  Biso   1.000  C
  C168     1.0000 0.55648  0.35784  0.29760  Biso   1.000  C
  H75      1.0000 0.57260  0.37960  0.28930  Biso   1.000  H
  C169     1.0000 0.62895  0.26920  0.34140  Biso   1.000  C
  C170     1.0000 0.41559  0.21695  0.35160  Biso   1.000  C
  H76      1.0000 0.39420  0.20070  0.36360  Biso   1.000  H
  C171     1.0000 0.51470  0.35735  0.29020  Biso   1.000  C
  H77      1.0000 0.49560  0.37860  0.27400  Biso   1.000  H
  C172     1.0000 0.61453  0.30752  0.33140  Biso   1.000  C
  C173     1.0000 0.41493  0.25485  0.35020  Biso   1.000  C
  H78      1.0000 0.39290  0.27070  0.36040  Biso   1.000  H
  C174     1.0000 0.70376  0.09446  0.38110  Biso   1.000  C
  H79      1.0000 0.72480  0.08310  0.45150  Biso   1.000  H
  C175     1.0000 0.66094  0.33833  0.22600  Biso   1.000  C
  H80      1.0000 0.65320  0.31840  0.16620  Biso   1.000  H
  C176     1.0000 0.51667  0.11626  0.28280  Biso   1.000  C
  H81      1.0000 0.49890  0.09430  0.27430  Biso   1.000  H
  C177     1.0000 0.40853  0.39326  0.38050  Biso   1.000  C
  H82      1.0000 0.41380  0.41200  0.44400  Biso   1.000  H
  C178     1.0000 0.46429  0.30579  0.31600  Biso   1.000  C
  C179     1.0000 0.67300  0.25704  0.36110  Biso   1.000  C
  H83      1.0000 0.69760  0.27310  0.37540  Biso   1.000  H
  C180     1.0000 0.43748  0.36373  0.39490  Biso   1.000  C
  H84      1.0000 0.46250  0.36250  0.46780  Biso   1.000  H
  C181     1.0000 0.68494  0.39648  0.40220  Biso   1.000  C
  H85      1.0000 0.69330  0.41610  0.46300  Biso   1.000  H
  C182     1.0000 0.67125  0.10181  0.16340  Biso   1.000  C
  H86      1.0000 0.66930  0.09510  0.08140  Biso   1.000  H
  C183     1.0000 0.67247  0.21874  0.35520  Biso   1.000  C
  H87      1.0000 0.69670  0.20260  0.36420  Biso   1.000  H
  C184     1.0000 0.39234  0.33732  0.20260  Biso   1.000  C
  H88      1.0000 0.38590  0.31770  0.14180  Biso   1.000  H
  C185     1.0000 0.64421  0.12913  0.18140  Biso   1.000  C
  H89      1.0000 0.62420  0.14150  0.11110  Biso   1.000  H
  C186     1.0000 0.67575  0.12153  0.39750  Biso   1.000  C
  H90      1.0000 0.67750  0.12820  0.47930  Biso   1.000  H
  C187     1.0000 0.36359  0.36724  0.18890  Biso   1.000  C
  H91      1.0000 0.33760  0.36790  0.11870  Biso   1.000  H
  C188     1.0000 0.65874  0.36652  0.41430  Biso   1.000  C
  H92      1.0000 0.64960  0.36580  0.48440  Biso   1.000  H
  C189     1.0000 0.38876  0.09903  0.38840  Biso   1.000  C
  H93      1.0000 0.38130  0.09210  0.45850  Biso   1.000  H
  C190     1.0000 0.42047  0.12650  0.40060  Biso   1.000  C
  H94      1.0000 0.43420  0.13820  0.47900  Biso   1.000  H
  C191     1.0000 0.41270  0.11835  0.18970  Biso   1.000  C
  H95      1.0000 0.42120  0.12430  0.12070  Biso   1.000  H
  C192     1.0000 0.38077  0.09125  0.17700  Biso   1.000  C
  H96      1.0000 0.36740  0.07900  0.09930  Biso   1.000  H
  Na4      1.0000 0.75077  0.42266  0.01054  Biso   1.000  Na
  Zn5      1.0000 0.03669  0.26243  0.29333  Biso   1.000  Zn
  O37      1.0000 0.22499  0.45778  0.13370  Biso   1.000  O
  O38      1.0000 0.26200  0.45845  0.33430  Biso   1.000  O
  O39      1.0000 0.23592  0.06826  0.18680  Biso   1.000  O
  O40      1.0000 0.23257  0.04177  0.35760  Biso   1.000  O
  O41      1.0000 0.81197  0.45916  0.15230  Biso   1.000  O
  O42      1.0000 0.82456  0.45790  0.35350  Biso   1.000  O
  O43      1.0000 0.85426  0.04216  0.33230  Biso   1.000  O
  O44      1.0000 0.80880  0.06840  0.16350  Biso   1.000  O
  O45      1.0000 0.01460  0.25576  0.10250  Biso   1.000  O
  N17      1.0000 0.03915  0.32105  0.30770  Biso   1.000  N
  N18      1.0000 0.03991  0.20423  0.32700  Biso   1.000  N
  N19      1.0000 0.97821  0.26346  0.32390  Biso   1.000  N
  N20      1.0000 0.10296  0.26224  0.32820  Biso   1.000  N
  C193     1.0000 0.23118  0.44593  0.24370  Biso   1.000  C
  C194     1.0000 0.22374  0.06936  0.28190  Biso   1.000  C
  C195     1.0000 0.20164  0.41626  0.26420  Biso   1.000  C
  C196     1.0000 0.19875  0.10250  0.30050  Biso   1.000  C
  C197     1.0000 0.12853  0.29346  0.33260  Biso   1.000  C
  C198     1.0000 0.83338  0.44660  0.26090  Biso   1.000  C
  C199     1.0000 0.87215  0.10380  0.27600  Biso   1.000  C
  C200     1.0000 0.00486  0.34469  0.29980  Biso   1.000  C
  C201     1.0000 0.84291  0.06982  0.25610  Biso   1.000  C
  C202     1.0000 0.86826  0.41807  0.27700  Biso   1.000  C
  C203     1.0000 0.07233  0.34393  0.29850  Biso   1.000  C
  C204     1.0000 0.14507  0.36071  0.29750  Biso   1.000  C
  C205     1.0000 0.95398  0.23240  0.33010  Biso   1.000  C
  C206     1.0000 0.00430  0.18146  0.31160  Biso   1.000  C
  C207     1.0000 0.93252  0.36291  0.30210  Biso   1.000  C
  C208     1.0000 0.18722  0.13206  0.21360  Biso   1.000  C
  H97      1.0000 0.19740  0.13190  0.14560  Biso   1.000  H
  C209     1.0000 0.07228  0.18085  0.32060  Biso   1.000  C
  C210     1.0000 0.93063  0.16435  0.30440  Biso   1.000  C
  C211     1.0000 0.14560  0.16245  0.32590  Biso   1.000  C
  C212     1.0000 0.11389  0.33147  0.31170  Biso   1.000  C
  C213     1.0000 0.05734  0.38308  0.28140  Biso   1.000  C
  H98      1.0000 0.07350  0.40450  0.27100  Biso   1.000  H
  C214     1.0000 0.95470  0.29515  0.33140  Biso   1.000  C
  C215     1.0000 0.96582  0.33282  0.31280  Biso   1.000  C
  C216     1.0000 0.05648  0.14216  0.29760  Biso   1.000  C
  H99      1.0000 0.07260  0.12040  0.28930  Biso   1.000  H
  C217     1.0000 0.12895  0.23080  0.34140  Biso   1.000  C
  C218     1.0000 0.91559  0.28305  0.35160  Biso   1.000  C
  H100     1.0000 0.89420  0.29930  0.36360  Biso   1.000  H
  C219     1.0000 0.01470  0.14265  0.29020  Biso   1.000  C
  H101     1.0000 0.99560  0.12140  0.27400  Biso   1.000  H
  C220     1.0000 0.11453  0.19248  0.33140  Biso   1.000  C
  C221     1.0000 0.91493  0.24515  0.35020  Biso   1.000  C
  H102     1.0000 0.89290  0.22930  0.36040  Biso   1.000  H
  C222     1.0000 0.20376  0.40554  0.38110  Biso   1.000  C
  H103     1.0000 0.22480  0.41690  0.45150  Biso   1.000  H
  C223     1.0000 0.16094  0.16167  0.22600  Biso   1.000  C
  H104     1.0000 0.15320  0.18160  0.16620  Biso   1.000  H
  C224     1.0000 0.01667  0.38374  0.28280  Biso   1.000  C
  H105     1.0000 0.99890  0.40570  0.27430  Biso   1.000  H
  C225     1.0000 0.90853  0.10674  0.38050  Biso   1.000  C
  H106     1.0000 0.91380  0.08800  0.44400  Biso   1.000  H
  C226     1.0000 0.96429  0.19421  0.31600  Biso   1.000  C
  C227     1.0000 0.17300  0.24296  0.36110  Biso   1.000  C
  H107     1.0000 0.19760  0.22690  0.37540  Biso   1.000  H
  C228     1.0000 0.93748  0.13627  0.39490  Biso   1.000  C
  H108     1.0000 0.96250  0.13750  0.46780  Biso   1.000  H
  C229     1.0000 0.18494  0.10352  0.40220  Biso   1.000  C
  H109     1.0000 0.19330  0.08390  0.46300  Biso   1.000  H
  C230     1.0000 0.17125  0.39819  0.16340  Biso   1.000  C
  H110     1.0000 0.16930  0.40490  0.08140  Biso   1.000  H
  C231     1.0000 0.17247  0.28126  0.35520  Biso   1.000  C
  H111     1.0000 0.19670  0.29740  0.36420  Biso   1.000  H
  C232     1.0000 0.89234  0.16268  0.20260  Biso   1.000  C
  H112     1.0000 0.88590  0.18230  0.14180  Biso   1.000  H
  C233     1.0000 0.14421  0.37087  0.18140  Biso   1.000  C
  H113     1.0000 0.12420  0.35850  0.11110  Biso   1.000  H
  C234     1.0000 0.17575  0.37847  0.39750  Biso   1.000  C
  H114     1.0000 0.17750  0.37180  0.47930  Biso   1.000  H
  C235     1.0000 0.86359  0.13276  0.18890  Biso   1.000  C
  H115     1.0000 0.83760  0.13210  0.11870  Biso   1.000  H
  C236     1.0000 0.15874  0.13348  0.41430  Biso   1.000  C
  H116     1.0000 0.14960  0.13420  0.48440  Biso   1.000  H
  C237     1.0000 0.88876  0.40097  0.38840  Biso   1.000  C
  H117     1.0000 0.88130  0.40790  0.45850  Biso   1.000  H
  C238     1.0000 0.92047  0.37350  0.40060  Biso   1.000  C
  H118     1.0000 0.93420  0.36180  0.47900  Biso   1.000  H
  C239     1.0000 0.91270  0.38165  0.18970  Biso   1.000  C
  H119     1.0000 0.92120  0.37570  0.12070  Biso   1.000  H
  C240     1.0000 0.88077  0.40875  0.17700  Biso   1.000  C
  H120     1.0000 0.86740  0.42100  0.09930  Biso   1.000  H
  Na5      1.0000 0.25077  0.07734  0.01054  Biso   1.000  Na
  Zn6      1.0000 0.53669  0.76243  0.29333  Biso   1.000  Zn
  O46      1.0000 0.72499  0.95778  0.13370  Biso   1.000  O
  O47      1.0000 0.76200  0.95845  0.33430  Biso   1.000  O
  O48      1.0000 0.73592  0.56826  0.18680  Biso   1.000  O
  O49      1.0000 0.73257  0.54177  0.35760  Biso   1.000  O
  O50      1.0000 0.31197  0.95916  0.15230  Biso   1.000  O
  O51      1.0000 0.32456  0.95790  0.35350  Biso   1.000  O
  O52      1.0000 0.35426  0.54216  0.33230  Biso   1.000  O
  O53      1.0000 0.30880  0.56840  0.16350  Biso   1.000  O
  O54      1.0000 0.51460  0.75576  0.10250  Biso   1.000  O
  N21      1.0000 0.53915  0.82105  0.30770  Biso   1.000  N
  N22      1.0000 0.53991  0.70423  0.32700  Biso   1.000  N
  N23      1.0000 0.47821  0.76346  0.32390  Biso   1.000  N
  N24      1.0000 0.60296  0.76224  0.32820  Biso   1.000  N
  C241     1.0000 0.73118  0.94593  0.24370  Biso   1.000  C
  C242     1.0000 0.72374  0.56936  0.28190  Biso   1.000  C
  C243     1.0000 0.70164  0.91626  0.26420  Biso   1.000  C
  C244     1.0000 0.69875  0.60250  0.30050  Biso   1.000  C
  C245     1.0000 0.62853  0.79346  0.33260  Biso   1.000  C
  C246     1.0000 0.33338  0.94660  0.26090  Biso   1.000  C
  C247     1.0000 0.37215  0.60380  0.27600  Biso   1.000  C
  C248     1.0000 0.50486  0.84469  0.29980  Biso   1.000  C
  C249     1.0000 0.34291  0.56982  0.25610  Biso   1.000  C
  C250     1.0000 0.36826  0.91807  0.27700  Biso   1.000  C
  C251     1.0000 0.57233  0.84393  0.29850  Biso   1.000  C
  C252     1.0000 0.64507  0.86071  0.29750  Biso   1.000  C
  C253     1.0000 0.45398  0.73240  0.33010  Biso   1.000  C
  C254     1.0000 0.50430  0.68146  0.31160  Biso   1.000  C
  C255     1.0000 0.43252  0.86291  0.30210  Biso   1.000  C
  C256     1.0000 0.68722  0.63206  0.21360  Biso   1.000  C
  H121     1.0000 0.69740  0.63190  0.14560  Biso   1.000  H
  C257     1.0000 0.57228  0.68085  0.32060  Biso   1.000  C
  C258     1.0000 0.43063  0.66435  0.30440  Biso   1.000  C
  C259     1.0000 0.64560  0.66245  0.32590  Biso   1.000  C
  C260     1.0000 0.61389  0.83147  0.31170  Biso   1.000  C
  C261     1.0000 0.55734  0.88308  0.28140  Biso   1.000  C
  H122     1.0000 0.57350  0.90450  0.27100  Biso   1.000  H
  C262     1.0000 0.45470  0.79515  0.33140  Biso   1.000  C
  C263     1.0000 0.46582  0.83282  0.31280  Biso   1.000  C
  C264     1.0000 0.55648  0.64216  0.29760  Biso   1.000  C
  H123     1.0000 0.57260  0.62040  0.28930  Biso   1.000  H
  C265     1.0000 0.62895  0.73080  0.34140  Biso   1.000  C
  C266     1.0000 0.41559  0.78305  0.35160  Biso   1.000  C
  H124     1.0000 0.39420  0.79930  0.36360  Biso   1.000  H
  C267     1.0000 0.51470  0.64265  0.29020  Biso   1.000  C
  H125     1.0000 0.49560  0.62140  0.27400  Biso   1.000  H
  C268     1.0000 0.61453  0.69248  0.33140  Biso   1.000  C
  C269     1.0000 0.41493  0.74515  0.35020  Biso   1.000  C
  H126     1.0000 0.39290  0.72930  0.36040  Biso   1.000  H
  C270     1.0000 0.70376  0.90554  0.38110  Biso   1.000  C
  H127     1.0000 0.72480  0.91690  0.45150  Biso   1.000  H
  C271     1.0000 0.66094  0.66167  0.22600  Biso   1.000  C
  H128     1.0000 0.65320  0.68160  0.16620  Biso   1.000  H
  C272     1.0000 0.51667  0.88374  0.28280  Biso   1.000  C
  H129     1.0000 0.49890  0.90570  0.27430  Biso   1.000  H
  C273     1.0000 0.40853  0.60674  0.38050  Biso   1.000  C
  H130     1.0000 0.41380  0.58800  0.44400  Biso   1.000  H
  C274     1.0000 0.46429  0.69421  0.31600  Biso   1.000  C
  C275     1.0000 0.67300  0.74296  0.36110  Biso   1.000  C
  H131     1.0000 0.69760  0.72690  0.37540  Biso   1.000  H
  C276     1.0000 0.43748  0.63627  0.39490  Biso   1.000  C
  H132     1.0000 0.46250  0.63750  0.46780  Biso   1.000  H
  C277     1.0000 0.68494  0.60352  0.40220  Biso   1.000  C
  H133     1.0000 0.69330  0.58390  0.46300  Biso   1.000  H
  C278     1.0000 0.67125  0.89819  0.16340  Biso   1.000  C
  H134     1.0000 0.66930  0.90490  0.08140  Biso   1.000  H
  C279     1.0000 0.67247  0.78126  0.35520  Biso   1.000  C
  H135     1.0000 0.69670  0.79740  0.36420  Biso   1.000  H
  C280     1.0000 0.39234  0.66268  0.20260  Biso   1.000  C
  H136     1.0000 0.38590  0.68230  0.14180  Biso   1.000  H
  C281     1.0000 0.64421  0.87087  0.18140  Biso   1.000  C
  H137     1.0000 0.62420  0.85850  0.11110  Biso   1.000  H
  C282     1.0000 0.67575  0.87847  0.39750  Biso   1.000  C
  H138     1.0000 0.67750  0.87180  0.47930  Biso   1.000  H
  C283     1.0000 0.36359  0.63276  0.18890  Biso   1.000  C
  H139     1.0000 0.33760  0.63210  0.11870  Biso   1.000  H
  C284     1.0000 0.65874  0.63348  0.41430  Biso   1.000  C
  H140     1.0000 0.64960  0.63420  0.48440  Biso   1.000  H
  C285     1.0000 0.38876  0.90097  0.38840  Biso   1.000  C
  H141     1.0000 0.38130  0.90790  0.45850  Biso   1.000  H
  C286     1.0000 0.42047  0.87350  0.40060  Biso   1.000  C
  H142     1.0000 0.43420  0.86180  0.47900  Biso   1.000  H
  C287     1.0000 0.41270  0.88165  0.18970  Biso   1.000  C
  H143     1.0000 0.42120  0.87570  0.12070  Biso   1.000  H
  C288     1.0000 0.38077  0.90875  0.17700  Biso   1.000  C
  H144     1.0000 0.36740  0.92100  0.09930  Biso   1.000  H
  Na6      1.0000 0.75077  0.57734  0.01054  Biso   1.000  Na
  Zn7      1.0000 0.96331  0.26243  0.70667  Biso   1.000  Zn
  O55      1.0000 0.77501  0.45778  0.86630  Biso   1.000  O
  O56      1.0000 0.73800  0.45845  0.66570  Biso   1.000  O
  O57      1.0000 0.76408  0.06826  0.81320  Biso   1.000  O
  O58      1.0000 0.76743  0.04177  0.64240  Biso   1.000  O
  O59      1.0000 0.18803  0.45916  0.84770  Biso   1.000  O
  O60      1.0000 0.17544  0.45790  0.64650  Biso   1.000  O
  O61      1.0000 0.14574  0.04216  0.66770  Biso   1.000  O
  O62      1.0000 0.19120  0.06840  0.83650  Biso   1.000  O
  O63      1.0000 0.98540  0.25576  0.89750  Biso   1.000  O
  N25      1.0000 0.96085  0.32105  0.69230  Biso   1.000  N
  N26      1.0000 0.96009  0.20423  0.67300  Biso   1.000  N
  N27      1.0000 0.02179  0.26346  0.67610  Biso   1.000  N
  N28      1.0000 0.89704  0.26224  0.67180  Biso   1.000  N
  C289     1.0000 0.76882  0.44593  0.75630  Biso   1.000  C
  C290     1.0000 0.77626  0.06936  0.71810  Biso   1.000  C
  C291     1.0000 0.79836  0.41626  0.73580  Biso   1.000  C
  C292     1.0000 0.80125  0.10250  0.69950  Biso   1.000  C
  C293     1.0000 0.87147  0.29346  0.66740  Biso   1.000  C
  C294     1.0000 0.16662  0.44660  0.73910  Biso   1.000  C
  C295     1.0000 0.12785  0.10380  0.72400  Biso   1.000  C
  C296     1.0000 0.99514  0.34469  0.70020  Biso   1.000  C
  C297     1.0000 0.15709  0.06982  0.74390  Biso   1.000  C
  C298     1.0000 0.13174  0.41807  0.72300  Biso   1.000  C
  C299     1.0000 0.92767  0.34393  0.70150  Biso   1.000  C
  C300     1.0000 0.85493  0.36071  0.70250  Biso   1.000  C
  C301     1.0000 0.04602  0.23240  0.66990  Biso   1.000  C
  C302     1.0000 0.99570  0.18146  0.68840  Biso   1.000  C
  C303     1.0000 0.06748  0.36291  0.69790  Biso   1.000  C
  C304     1.0000 0.81278  0.13206  0.78640  Biso   1.000  C
  H145     1.0000 0.80260  0.13190  0.85440  Biso   1.000  H
  C305     1.0000 0.92772  0.18085  0.67940  Biso   1.000  C
  C306     1.0000 0.06937  0.16435  0.69560  Biso   1.000  C
  C307     1.0000 0.85440  0.16245  0.67410  Biso   1.000  C
  C308     1.0000 0.88611  0.33147  0.68830  Biso   1.000  C
  C309     1.0000 0.94266  0.38308  0.71860  Biso   1.000  C
  H146     1.0000 0.92650  0.40450  0.72900  Biso   1.000  H
  C310     1.0000 0.04530  0.29515  0.66860  Biso   1.000  C
  C311     1.0000 0.03418  0.33282  0.68720  Biso   1.000  C
  C312     1.0000 0.94352  0.14216  0.70240  Biso   1.000  C
  H147     1.0000 0.92740  0.12040  0.71070  Biso   1.000  H
  C313     1.0000 0.87105  0.23080  0.65860  Biso   1.000  C
  C314     1.0000 0.08441  0.28305  0.64840  Biso   1.000  C
  H148     1.0000 0.10580  0.29930  0.63640  Biso   1.000  H
  C315     1.0000 0.98530  0.14265  0.70980  Biso   1.000  C
  H149     1.0000 0.00440  0.12140  0.72600  Biso   1.000  H
  C316     1.0000 0.88547  0.19248  0.66860  Biso   1.000  C
  C317     1.0000 0.08507  0.24515  0.64980  Biso   1.000  C
  H150     1.0000 0.10710  0.22930  0.63960  Biso   1.000  H
  C318     1.0000 0.79624  0.40554  0.61890  Biso   1.000  C
  H151     1.0000 0.77520  0.41690  0.54850  Biso   1.000  H
  C319     1.0000 0.83906  0.16167  0.77400  Biso   1.000  C
  H152     1.0000 0.84680  0.18160  0.83380  Biso   1.000  H
  C320     1.0000 0.98333  0.38374  0.71720  Biso   1.000  C
  H153     1.0000 0.00110  0.40570  0.72570  Biso   1.000  H
  C321     1.0000 0.09147  0.10674  0.61950  Biso   1.000  C
  H154     1.0000 0.08620  0.08800  0.55600  Biso   1.000  H
  C322     1.0000 0.03571  0.19421  0.68400  Biso   1.000  C
  C323     1.0000 0.82700  0.24296  0.63890  Biso   1.000  C
  H155     1.0000 0.80240  0.22690  0.62460  Biso   1.000  H
  C324     1.0000 0.06252  0.13627  0.60510  Biso   1.000  C
  H156     1.0000 0.03750  0.13750  0.53220  Biso   1.000  H
  C325     1.0000 0.81506  0.10352  0.59780  Biso   1.000  C
  H157     1.0000 0.80670  0.08390  0.53700  Biso   1.000  H
  C326     1.0000 0.82875  0.39819  0.83660  Biso   1.000  C
  H158     1.0000 0.83070  0.40490  0.91860  Biso   1.000  H
  C327     1.0000 0.82753  0.28126  0.64480  Biso   1.000  C
  H159     1.0000 0.80330  0.29740  0.63580  Biso   1.000  H
  C328     1.0000 0.10766  0.16268  0.79740  Biso   1.000  C
  H160     1.0000 0.11410  0.18230  0.85820  Biso   1.000  H
  C329     1.0000 0.85579  0.37087  0.81860  Biso   1.000  C
  H161     1.0000 0.87580  0.35850  0.88890  Biso   1.000  H
  C330     1.0000 0.82425  0.37847  0.60250  Biso   1.000  C
  H162     1.0000 0.82250  0.37180  0.52070  Biso   1.000  H
  C331     1.0000 0.13641  0.13276  0.81110  Biso   1.000  C
  H163     1.0000 0.16240  0.13210  0.88130  Biso   1.000  H
  C332     1.0000 0.84126  0.13348  0.58570  Biso   1.000  C
  H164     1.0000 0.85040  0.13420  0.51560  Biso   1.000  H
  C333     1.0000 0.11124  0.40097  0.61160  Biso   1.000  C
  H165     1.0000 0.11870  0.40790  0.54150  Biso   1.000  H
  C334     1.0000 0.07953  0.37350  0.59940  Biso   1.000  C
  H166     1.0000 0.06580  0.36180  0.52100  Biso   1.000  H
  C335     1.0000 0.08730  0.38165  0.81030  Biso   1.000  C
  H167     1.0000 0.07880  0.37570  0.87930  Biso   1.000  H
  C336     1.0000 0.11923  0.40875  0.82300  Biso   1.000  C
  H168     1.0000 0.13260  0.42100  0.90070  Biso   1.000  H
  Na7      1.0000 0.74923  0.07734  0.98946  Biso   1.000  Na
  Zn8      1.0000 0.46331  0.76243  0.70667  Biso   1.000  Zn
  O64      1.0000 0.27501  0.95778  0.86630  Biso   1.000  O
  O65      1.0000 0.23800  0.95845  0.66570  Biso   1.000  O
  O66      1.0000 0.26408  0.56826  0.81320  Biso   1.000  O
  O67      1.0000 0.26743  0.54177  0.64240  Biso   1.000  O
  O68      1.0000 0.68803  0.95916  0.84770  Biso   1.000  O
  O69      1.0000 0.67544  0.95790  0.64650  Biso   1.000  O
  O70      1.0000 0.64574  0.54216  0.66770  Biso   1.000  O
  O71      1.0000 0.69120  0.56840  0.83650  Biso   1.000  O
  O72      1.0000 0.48540  0.75576  0.89750  Biso   1.000  O
  N29      1.0000 0.46085  0.82105  0.69230  Biso   1.000  N
  N30      1.0000 0.46009  0.70423  0.67300  Biso   1.000  N
  N31      1.0000 0.52179  0.76346  0.67610  Biso   1.000  N
  N32      1.0000 0.39704  0.76224  0.67180  Biso   1.000  N
  C337     1.0000 0.26882  0.94593  0.75630  Biso   1.000  C
  C338     1.0000 0.27626  0.56936  0.71810  Biso   1.000  C
  C339     1.0000 0.29836  0.91626  0.73580  Biso   1.000  C
  C340     1.0000 0.30125  0.60250  0.69950  Biso   1.000  C
  C341     1.0000 0.37147  0.79346  0.66740  Biso   1.000  C
  C342     1.0000 0.66662  0.94660  0.73910  Biso   1.000  C
  C343     1.0000 0.62785  0.60380  0.72400  Biso   1.000  C
  C344     1.0000 0.49514  0.84469  0.70020  Biso   1.000  C
  C345     1.0000 0.65709  0.56982  0.74390  Biso   1.000  C
  C346     1.0000 0.63174  0.91807  0.72300  Biso   1.000  C
  C347     1.0000 0.42767  0.84393  0.70150  Biso   1.000  C
  C348     1.0000 0.35493  0.86071  0.70250  Biso   1.000  C
  C349     1.0000 0.54602  0.73240  0.66990  Biso   1.000  C
  C350     1.0000 0.49570  0.68146  0.68840  Biso   1.000  C
  C351     1.0000 0.56748  0.86291  0.69790  Biso   1.000  C
  C352     1.0000 0.31278  0.63206  0.78640  Biso   1.000  C
  H169     1.0000 0.30260  0.63190  0.85440  Biso   1.000  H
  C353     1.0000 0.42772  0.68085  0.67940  Biso   1.000  C
  C354     1.0000 0.56937  0.66435  0.69560  Biso   1.000  C
  C355     1.0000 0.35440  0.66245  0.67410  Biso   1.000  C
  C356     1.0000 0.38611  0.83147  0.68830  Biso   1.000  C
  C357     1.0000 0.44266  0.88308  0.71860  Biso   1.000  C
  H170     1.0000 0.42650  0.90450  0.72900  Biso   1.000  H
  C358     1.0000 0.54530  0.79515  0.66860  Biso   1.000  C
  C359     1.0000 0.53418  0.83282  0.68720  Biso   1.000  C
  C360     1.0000 0.44352  0.64216  0.70240  Biso   1.000  C
  H171     1.0000 0.42740  0.62040  0.71070  Biso   1.000  H
  C361     1.0000 0.37105  0.73080  0.65860  Biso   1.000  C
  C362     1.0000 0.58441  0.78305  0.64840  Biso   1.000  C
  H172     1.0000 0.60580  0.79930  0.63640  Biso   1.000  H
  C363     1.0000 0.48530  0.64265  0.70980  Biso   1.000  C
  H173     1.0000 0.50440  0.62140  0.72600  Biso   1.000  H
  C364     1.0000 0.38547  0.69248  0.66860  Biso   1.000  C
  C365     1.0000 0.58507  0.74515  0.64980  Biso   1.000  C
  H174     1.0000 0.60710  0.72930  0.63960  Biso   1.000  H
  C366     1.0000 0.29624  0.90554  0.61890  Biso   1.000  C
  H175     1.0000 0.27520  0.91690  0.54850  Biso   1.000  H
  C367     1.0000 0.33906  0.66167  0.77400  Biso   1.000  C
  H176     1.0000 0.34680  0.68160  0.83380  Biso   1.000  H
  C368     1.0000 0.48333  0.88374  0.71720  Biso   1.000  C
  H177     1.0000 0.50110  0.90570  0.72570  Biso   1.000  H
  C369     1.0000 0.59147  0.60674  0.61950  Biso   1.000  C
  H178     1.0000 0.58620  0.58800  0.55600  Biso   1.000  H
  C370     1.0000 0.53571  0.69421  0.68400  Biso   1.000  C
  C371     1.0000 0.32700  0.74296  0.63890  Biso   1.000  C
  H179     1.0000 0.30240  0.72690  0.62460  Biso   1.000  H
  C372     1.0000 0.56252  0.63627  0.60510  Biso   1.000  C
  H180     1.0000 0.53750  0.63750  0.53220  Biso   1.000  H
  C373     1.0000 0.31506  0.60352  0.59780  Biso   1.000  C
  H181     1.0000 0.30670  0.58390  0.53700  Biso   1.000  H
  C374     1.0000 0.32875  0.89819  0.83660  Biso   1.000  C
  H182     1.0000 0.33070  0.90490  0.91860  Biso   1.000  H
  C375     1.0000 0.32753  0.78126  0.64480  Biso   1.000  C
  H183     1.0000 0.30330  0.79740  0.63580  Biso   1.000  H
  C376     1.0000 0.60766  0.66268  0.79740  Biso   1.000  C
  H184     1.0000 0.61410  0.68230  0.85820  Biso   1.000  H
  C377     1.0000 0.35579  0.87087  0.81860  Biso   1.000  C
  H185     1.0000 0.37580  0.85850  0.88890  Biso   1.000  H
  C378     1.0000 0.32425  0.87847  0.60250  Biso   1.000  C
  H186     1.0000 0.32250  0.87180  0.52070  Biso   1.000  H
  C379     1.0000 0.63641  0.63276  0.81110  Biso   1.000  C
  H187     1.0000 0.66240  0.63210  0.88130  Biso   1.000  H
  C380     1.0000 0.34126  0.63348  0.58570  Biso   1.000  C
  H188     1.0000 0.35040  0.63420  0.51560  Biso   1.000  H
  C381     1.0000 0.61124  0.90097  0.61160  Biso   1.000  C
  H189     1.0000 0.61870  0.90790  0.54150  Biso   1.000  H
  C382     1.0000 0.57953  0.87350  0.59940  Biso   1.000  C
  H190     1.0000 0.56580  0.86180  0.52100  Biso   1.000  H
  C383     1.0000 0.58730  0.88165  0.81030  Biso   1.000  C
  H191     1.0000 0.57880  0.87570  0.87930  Biso   1.000  H
  C384     1.0000 0.61923  0.90875  0.82300  Biso   1.000  C
  H192     1.0000 0.63260  0.92100  0.90070  Biso   1.000  H
  Na8      1.0000 0.24923  0.57734  0.98946  Biso   1.000  Na
  Sm1      1.0000 0.20538  0.00000  0.78887  Biso   1.000  Sm
  Sm2      1.0000 0.26271  0.00000  0.23385  Biso   1.000  Sm
  O73      1.0000 0.18264  0.00000  0.12040  Biso   1.000  O
  O74      1.0000 0.15603  0.00000  0.91080  Biso   1.000  O
  O75      1.0000 0.22663  0.00000  0.01080  Biso   1.000  O
  N33      1.0000 0.18625  0.00000  0.01400  Biso   1.000  N
  Na9      1.0000 0.76810  0.00000  0.49452  Biso   1.000  Na
  Sm3      1.0000 0.70538  0.50000  0.78887  Biso   1.000  Sm
  Sm4      1.0000 0.76271  0.50000  0.23385  Biso   1.000  Sm
  O76      1.0000 0.68264  0.50000  0.12040  Biso   1.000  O
  O77      1.0000 0.65603  0.50000  0.91080  Biso   1.000  O
  O78      1.0000 0.72663  0.50000  0.01080  Biso   1.000  O
  N34      1.0000 0.68625  0.50000  0.01400  Biso   1.000  N
  Na10     1.0000 0.26810  0.50000  0.49452  Biso   1.000  Na
  Sm5      1.0000 0.79462  0.00000  0.21113  Biso   1.000  Sm
  Sm6      1.0000 0.73729  0.00000  0.76615  Biso   1.000  Sm
  O79      1.0000 0.81736  0.00000  0.87960  Biso   1.000  O
  O80      1.0000 0.84397  0.00000  0.08920  Biso   1.000  O
  O81      1.0000 0.77337  0.00000  0.98920  Biso   1.000  O
  N35      1.0000 0.81375  0.00000  0.98600  Biso   1.000  N
  Na11     1.0000 0.23190  0.00000  0.50548  Biso   1.000  Na
  Sm7      1.0000 0.29462  0.50000  0.21113  Biso   1.000  Sm
  Sm8      1.0000 0.23729  0.50000  0.76615  Biso   1.000  Sm
  O82      1.0000 0.31736  0.50000  0.87960  Biso   1.000  O
  O83      1.0000 0.34397  0.50000  0.08920  Biso   1.000  O
  O84      1.0000 0.27337  0.50000  0.98920  Biso   1.000  O
  N36      1.0000 0.31375  0.50000  0.98600  Biso   1.000  N
  Na12     1.0000 0.73190  0.50000  0.50548  Biso   1.000  Na
  C385     1.0000 0.00000  0.73560  0.00000  Biso   1.000  C
  C386     1.0000 0.50000  0.23560  0.00000  Biso   1.000  C
  C387     1.0000 0.00000  0.26440  0.00000  Biso   1.000  C
  C388     1.0000 0.50000  0.76440  0.00000  Biso   1.000  C
  Na13     1.0000 0.82428  0.50000  0.00371  Biso   1.000  Na
  Na14     1.0000 0.32428  0.00000  0.00371  Biso   1.000  Na
  Na15     1.0000 0.17572  0.50000  0.99629  Biso   1.000  Na
  Na16     1.0000 0.67572  0.00000  0.99629  Biso   1.000  Na
