data_image0
_cell_length_a       34.172
_cell_length_b       34.172
_cell_length_c       34.172
_cell_angle_alpha    90
_cell_angle_beta     90
_cell_angle_gamma    90

_symmetry_space_group_name_H-M    "P 1"
_symmetry_int_tables_number       1

loop_
  _symmetry_equiv_pos_as_xyz
  'x, y, z'

loop_
  _atom_site_label
  _atom_site_occupancy
  _atom_site_fract_x
  _atom_site_fract_y
  _atom_site_fract_z
  _atom_site_thermal_displace_type
  _atom_site_B_iso_or_equiv
  _atom_site_type_symbol
  O1       1.0000 0.14630  0.86220  0.98720  Biso   1.000  O
  O2       1.0000 0.19500  0.76610  0.02590  Biso   1.000  O
  C1       1.0000 0.40010  0.85770  0.91250  Biso   1.000  C
  H1       1.0000 0.40700  0.83630  0.92770  Biso   1.000  H
  C2       1.0000 0.11720  0.74320  0.99180  Biso   1.000  C
  H2       1.0000 0.12280  0.73040  0.96710  Biso   1.000  H
  H3       1.0000 0.12840  0.72740  0.01250  Biso   1.000  H
  N1       1.0000 0.30620  0.87450  0.95850  Biso   1.000  N
  O3       1.0000 0.21360  0.94440  0.99120  Biso   1.000  O
  C3       1.0000 0.36720  0.87990  0.92270  Biso   1.000  C
  C4       1.0000 0.12050  0.86770  0.92270  Biso   1.000  C
  O4       1.0000 0.26620  0.80470  0.02510  Biso   1.000  O
  C5       1.0000 0.13170  0.84530  0.95810  Biso   1.000  C
  N2       1.0000 0.12540  0.80650  0.95800  Biso   1.000  N
  H4       1.0000 0.11460  0.79540  0.93810  Biso   1.000  H
  C6       1.0000 0.13700  0.78350  0.99200  Biso   1.000  C
  H5       1.0000 0.12960  0.79760  0.01590  Biso   1.000  H
  C7       1.0000 0.24340  0.88270  0.99210  Biso   1.000  C
  C8       1.0000 0.08750  0.85740  0.90010  Biso   1.000  C
  H6       1.0000 0.07260  0.83570  0.90690  Biso   1.000  H
  C9       1.0000 0.18100  0.77550  0.99260  Biso   1.000  C
  O5       1.0000 0.36210  0.85420  0.98740  Biso   1.000  O
  C10      1.0000 0.27550  0.81860  0.99270  Biso   1.000  C
  C11      1.0000 0.24550  0.92640  0.99700  Biso   1.000  C
  C12      1.0000 0.34530  0.86850  0.95830  Biso   1.000  C
  O6       1.0000 0.27580  0.80070  0.96070  Biso   1.000  O
  C13      1.0000 0.07350  0.74540  0.99720  Biso   1.000  C
  O7       1.0000 0.05600  0.71360  0.99110  Biso   1.000  O
  O8       1.0000 0.19921  0.77580  0.96050  Biso   1.000  O
  O9       1.0000 0.27700  0.94210  0.00730  Biso   1.000  O
  C14      1.0000 0.28330  0.86250  0.99200  Biso   1.000  C
  O10      1.0000 0.05800  0.77700  0.00750  Biso   1.000  O
  H7       1.0000 0.29540  0.88400  0.93770  Biso   1.000  H
  H8       1.0000 0.23000  0.87760  0.96690  Biso   1.000  H
  H9       1.0000 0.22700  0.87180  0.01230  Biso   1.000  H
  H10      1.0000 0.29770  0.86980  0.01550  Biso   1.000  H
  O11      1.0000 0.14630  0.36220  0.48720  Biso   1.000  O
  O12      1.0000 0.19500  0.26610  0.52590  Biso   1.000  O
  C15      1.0000 0.40010  0.35770  0.41250  Biso   1.000  C
  H11      1.0000 0.40700  0.33630  0.42770  Biso   1.000  H
  C16      1.0000 0.11720  0.24320  0.49180  Biso   1.000  C
  H12      1.0000 0.12280  0.23040  0.46710  Biso   1.000  H
  H13      1.0000 0.12840  0.22740  0.51250  Biso   1.000  H
  N3       1.0000 0.30620  0.37450  0.45850  Biso   1.000  N
  O13      1.0000 0.21360  0.44440  0.49120  Biso   1.000  O
  C17      1.0000 0.36720  0.37990  0.42270  Biso   1.000  C
  C18      1.0000 0.12050  0.36770  0.42270  Biso   1.000  C
  O14      1.0000 0.26620  0.30470  0.52510  Biso   1.000  O
  C19      1.0000 0.13170  0.34530  0.45810  Biso   1.000  C
  N4       1.0000 0.12540  0.30650  0.45800  Biso   1.000  N
  H14      1.0000 0.11460  0.29540  0.43810  Biso   1.000  H
  C20      1.0000 0.13700  0.28350  0.49200  Biso   1.000  C
  H15      1.0000 0.12960  0.29760  0.51590  Biso   1.000  H
  C21      1.0000 0.24340  0.38270  0.49210  Biso   1.000  C
  C22      1.0000 0.08750  0.35740  0.40010  Biso   1.000  C
  H16      1.0000 0.07260  0.33570  0.40690  Biso   1.000  H
  C23      1.0000 0.18100  0.27550  0.49260  Biso   1.000  C
  O15      1.0000 0.36210  0.35420  0.48740  Biso   1.000  O
  C24      1.0000 0.27550  0.31860  0.49270  Biso   1.000  C
  C25      1.0000 0.24550  0.42640  0.49700  Biso   1.000  C
  C26      1.0000 0.34530  0.36850  0.45830  Biso   1.000  C
  O16      1.0000 0.27580  0.30070  0.46070  Biso   1.000  O
  C27      1.0000 0.07350  0.24540  0.49720  Biso   1.000  C
  O17      1.0000 0.05600  0.21360  0.49110  Biso   1.000  O
  O18      1.0000 0.19921  0.27580  0.46050  Biso   1.000  O
  O19      1.0000 0.27700  0.44210  0.50730  Biso   1.000  O
  C28      1.0000 0.28330  0.36250  0.49200  Biso   1.000  C
  O20      1.0000 0.05800  0.27700  0.50750  Biso   1.000  O
  H17      1.0000 0.29540  0.38400  0.43770  Biso   1.000  H
  H18      1.0000 0.23000  0.37760  0.46690  Biso   1.000  H
  H19      1.0000 0.22700  0.37180  0.51230  Biso   1.000  H
  H20      1.0000 0.29770  0.36980  0.51550  Biso   1.000  H
  O21      1.0000 0.64630  0.86220  0.48720  Biso   1.000  O
  O22      1.0000 0.69500  0.76610  0.52590  Biso   1.000  O
  C29      1.0000 0.90010  0.85770  0.41250  Biso   1.000  C
  H21      1.0000 0.90700  0.83630  0.42770  Biso   1.000  H
  C30      1.0000 0.61720  0.74320  0.49180  Biso   1.000  C
  H22      1.0000 0.62280  0.73040  0.46710  Biso   1.000  H
  H23      1.0000 0.62840  0.72740  0.51250  Biso   1.000  H
  N5       1.0000 0.80620  0.87450  0.45850  Biso   1.000  N
  O23      1.0000 0.71360  0.94440  0.49120  Biso   1.000  O
  C31      1.0000 0.86720  0.87990  0.42270  Biso   1.000  C
  C32      1.0000 0.62050  0.86770  0.42270  Biso   1.000  C
  O24      1.0000 0.76620  0.80470  0.52510  Biso   1.000  O
  C33      1.0000 0.63170  0.84530  0.45810  Biso   1.000  C
  N6       1.0000 0.62540  0.80650  0.45800  Biso   1.000  N
  H24      1.0000 0.61460  0.79540  0.43810  Biso   1.000  H
  C34      1.0000 0.63700  0.78350  0.49200  Biso   1.000  C
  H25      1.0000 0.62960  0.79760  0.51590  Biso   1.000  H
  C35      1.0000 0.74340  0.88270  0.49210  Biso   1.000  C
  C36      1.0000 0.58750  0.85740  0.40010  Biso   1.000  C
  H26      1.0000 0.57260  0.83570  0.40690  Biso   1.000  H
  C37      1.0000 0.68100  0.77550  0.49260  Biso   1.000  C
  O25      1.0000 0.86210  0.85420  0.48740  Biso   1.000  O
  C38      1.0000 0.77550  0.81860  0.49270  Biso   1.000  C
  C39      1.0000 0.74550  0.92640  0.49700  Biso   1.000  C
  C40      1.0000 0.84530  0.86850  0.45830  Biso   1.000  C
  O26      1.0000 0.77580  0.80070  0.46070  Biso   1.000  O
  C41      1.0000 0.57350  0.74540  0.49720  Biso   1.000  C
  O27      1.0000 0.55600  0.71360  0.49110  Biso   1.000  O
  O28      1.0000 0.69921  0.77580  0.46050  Biso   1.000  O
  O29      1.0000 0.77700  0.94210  0.50730  Biso   1.000  O
  C42      1.0000 0.78330  0.86250  0.49200  Biso   1.000  C
  O30      1.0000 0.55800  0.77700  0.50750  Biso   1.000  O
  H27      1.0000 0.79540  0.88400  0.43770  Biso   1.000  H
  H28      1.0000 0.73000  0.87760  0.46690  Biso   1.000  H
  H29      1.0000 0.72700  0.87180  0.51230  Biso   1.000  H
  H30      1.0000 0.79770  0.86980  0.51550  Biso   1.000  H
  O31      1.0000 0.64630  0.36220  0.98720  Biso   1.000  O
  O32      1.0000 0.69500  0.26610  0.02590  Biso   1.000  O
  C43      1.0000 0.90010  0.35770  0.91250  Biso   1.000  C
  H31      1.0000 0.90700  0.33630  0.92770  Biso   1.000  H
  C44      1.0000 0.61720  0.24320  0.99180  Biso   1.000  C
  H32      1.0000 0.62280  0.23040  0.96710  Biso   1.000  H
  H33      1.0000 0.62840  0.22740  0.01250  Biso   1.000  H
  N7       1.0000 0.80620  0.37450  0.95850  Biso   1.000  N
  O33      1.0000 0.71360  0.44440  0.99120  Biso   1.000  O
  C45      1.0000 0.86720  0.37990  0.92270  Biso   1.000  C
  C46      1.0000 0.62050  0.36770  0.92270  Biso   1.000  C
  O34      1.0000 0.76620  0.30470  0.02510  Biso   1.000  O
  C47      1.0000 0.63170  0.34530  0.95810  Biso   1.000  C
  N8       1.0000 0.62540  0.30650  0.95800  Biso   1.000  N
  H34      1.0000 0.61460  0.29540  0.93810  Biso   1.000  H
  C48      1.0000 0.63700  0.28350  0.99200  Biso   1.000  C
  H35      1.0000 0.62960  0.29760  0.01590  Biso   1.000  H
  C49      1.0000 0.74340  0.38270  0.99210  Biso   1.000  C
  C50      1.0000 0.58750  0.35740  0.90010  Biso   1.000  C
  H36      1.0000 0.57260  0.33570  0.90690  Biso   1.000  H
  C51      1.0000 0.68100  0.27550  0.99260  Biso   1.000  C
  O35      1.0000 0.86210  0.35420  0.98740  Biso   1.000  O
  C52      1.0000 0.77550  0.31860  0.99270  Biso   1.000  C
  C53      1.0000 0.74550  0.42640  0.99700  Biso   1.000  C
  C54      1.0000 0.84530  0.36850  0.95830  Biso   1.000  C
  O36      1.0000 0.77580  0.30070  0.96070  Biso   1.000  O
  C55      1.0000 0.57350  0.24540  0.99720  Biso   1.000  C
  O37      1.0000 0.55600  0.21360  0.99110  Biso   1.000  O
  O38      1.0000 0.69921  0.27580  0.96050  Biso   1.000  O
  O39      1.0000 0.77700  0.44210  0.00730  Biso   1.000  O
  C56      1.0000 0.78330  0.36250  0.99200  Biso   1.000  C
  O40      1.0000 0.55800  0.27700  0.00750  Biso   1.000  O
  H37      1.0000 0.79540  0.38400  0.93770  Biso   1.000  H
  H38      1.0000 0.73000  0.37760  0.96690  Biso   1.000  H
  H39      1.0000 0.72700  0.37180  0.01230  Biso   1.000  H
  H40      1.0000 0.79770  0.36980  0.01550  Biso   1.000  H
  O41      1.0000 0.85370  0.13780  0.98720  Biso   1.000  O
  O42      1.0000 0.80500  0.23390  0.02590  Biso   1.000  O
  C57      1.0000 0.59990  0.14230  0.91250  Biso   1.000  C
  H41      1.0000 0.59300  0.16370  0.92770  Biso   1.000  H
  C58      1.0000 0.88280  0.25680  0.99180  Biso   1.000  C
  H42      1.0000 0.87720  0.26960  0.96710  Biso   1.000  H
  H43      1.0000 0.87160  0.27260  0.01250  Biso   1.000  H
  N9       1.0000 0.69380  0.12550  0.95850  Biso   1.000  N
  O43      1.0000 0.78640  0.05560  0.99120  Biso   1.000  O
  C59      1.0000 0.63280  0.12010  0.92270  Biso   1.000  C
  C60      1.0000 0.87950  0.13230  0.92270  Biso   1.000  C
  O44      1.0000 0.73380  0.19530  0.02510  Biso   1.000  O
  C61      1.0000 0.86830  0.15470  0.95810  Biso   1.000  C
  N10      1.0000 0.87460  0.19350  0.95800  Biso   1.000  N
  H44      1.0000 0.88540  0.20460  0.93810  Biso   1.000  H
  C62      1.0000 0.86300  0.21650  0.99200  Biso   1.000  C
  H45      1.0000 0.87040  0.20240  0.01590  Biso   1.000  H
  C63      1.0000 0.75660  0.11730  0.99210  Biso   1.000  C
  C64      1.0000 0.91250  0.14260  0.90010  Biso   1.000  C
  H46      1.0000 0.92740  0.16430  0.90690  Biso   1.000  H
  C65      1.0000 0.81900  0.22450  0.99260  Biso   1.000  C
  O45      1.0000 0.63790  0.14580  0.98740  Biso   1.000  O
  C66      1.0000 0.72450  0.18140  0.99270  Biso   1.000  C
  C67      1.0000 0.75450  0.07360  0.99700  Biso   1.000  C
  C68      1.0000 0.65470  0.13150  0.95830  Biso   1.000  C
  O46      1.0000 0.72420  0.19930  0.96070  Biso   1.000  O
  C69      1.0000 0.92650  0.25460  0.99720  Biso   1.000  C
  O47      1.0000 0.94400  0.28640  0.99110  Biso   1.000  O
  O48      1.0000 0.80079  0.22420  0.96050  Biso   1.000  O
  O49      1.0000 0.72300  0.05790  0.00730  Biso   1.000  O
  C70      1.0000 0.71670  0.13750  0.99200  Biso   1.000  C
  O50      1.0000 0.94200  0.22300  0.00750  Biso   1.000  O
  H47      1.0000 0.70460  0.11600  0.93770  Biso   1.000  H
  H48      1.0000 0.77000  0.12240  0.96690  Biso   1.000  H
  H49      1.0000 0.77300  0.12820  0.01230  Biso   1.000  H
  H50      1.0000 0.70230  0.13020  0.01550  Biso   1.000  H
  O51      1.0000 0.85370  0.63780  0.48720  Biso   1.000  O
  O52      1.0000 0.80500  0.73390  0.52590  Biso   1.000  O
  C71      1.0000 0.59990  0.64230  0.41250  Biso   1.000  C
  H51      1.0000 0.59300  0.66370  0.42770  Biso   1.000  H
  C72      1.0000 0.88280  0.75680  0.49180  Biso   1.000  C
  H52      1.0000 0.87720  0.76960  0.46710  Biso   1.000  H
  H53      1.0000 0.87160  0.77260  0.51250  Biso   1.000  H
  N11      1.0000 0.69380  0.62550  0.45850  Biso   1.000  N
  O53      1.0000 0.78640  0.55560  0.49120  Biso   1.000  O
  C73      1.0000 0.63280  0.62010  0.42270  Biso   1.000  C
  C74      1.0000 0.87950  0.63230  0.42270  Biso   1.000  C
  O54      1.0000 0.73380  0.69530  0.52510  Biso   1.000  O
  C75      1.0000 0.86830  0.65470  0.45810  Biso   1.000  C
  N12      1.0000 0.87460  0.69350  0.45800  Biso   1.000  N
  H54      1.0000 0.88540  0.70460  0.43810  Biso   1.000  H
  C76      1.0000 0.86300  0.71650  0.49200  Biso   1.000  C
  H55      1.0000 0.87040  0.70240  0.51590  Biso   1.000  H
  C77      1.0000 0.75660  0.61730  0.49210  Biso   1.000  C
  C78      1.0000 0.91250  0.64260  0.40010  Biso   1.000  C
  H56      1.0000 0.92740  0.66430  0.40690  Biso   1.000  H
  C79      1.0000 0.81900  0.72450  0.49260  Biso   1.000  C
  O55      1.0000 0.63790  0.64580  0.48740  Biso   1.000  O
  C80      1.0000 0.72450  0.68140  0.49270  Biso   1.000  C
  C81      1.0000 0.75450  0.57360  0.49700  Biso   1.000  C
  C82      1.0000 0.65470  0.63150  0.45830  Biso   1.000  C
  O56      1.0000 0.72420  0.69930  0.46070  Biso   1.000  O
  C83      1.0000 0.92650  0.75460  0.49720  Biso   1.000  C
  O57      1.0000 0.94400  0.78640  0.49110  Biso   1.000  O
  O58      1.0000 0.80079  0.72420  0.46050  Biso   1.000  O
  O59      1.0000 0.72300  0.55790  0.50730  Biso   1.000  O
  C84      1.0000 0.71670  0.63750  0.49200  Biso   1.000  C
  O60      1.0000 0.94200  0.72300  0.50750  Biso   1.000  O
  H57      1.0000 0.70460  0.61600  0.43770  Biso   1.000  H
  H58      1.0000 0.77000  0.62240  0.46690  Biso   1.000  H
  H59      1.0000 0.77300  0.62820  0.51230  Biso   1.000  H
  H60      1.0000 0.70230  0.63020  0.51550  Biso   1.000  H
  O61      1.0000 0.35370  0.13780  0.48720  Biso   1.000  O
  O62      1.0000 0.30500  0.23390  0.52590  Biso   1.000  O
  C85      1.0000 0.09990  0.14230  0.41250  Biso   1.000  C
  H61      1.0000 0.09300  0.16370  0.42770  Biso   1.000  H
  C86      1.0000 0.38280  0.25680  0.49180  Biso   1.000  C
  H62      1.0000 0.37720  0.26960  0.46710  Biso   1.000  H
  H63      1.0000 0.37160  0.27260  0.51250  Biso   1.000  H
  N13      1.0000 0.19380  0.12550  0.45850  Biso   1.000  N
  O63      1.0000 0.28640  0.05560  0.49120  Biso   1.000  O
  C87      1.0000 0.13280  0.12010  0.42270  Biso   1.000  C
  C88      1.0000 0.37950  0.13230  0.42270  Biso   1.000  C
  O64      1.0000 0.23380  0.19530  0.52510  Biso   1.000  O
  C89      1.0000 0.36830  0.15470  0.45810  Biso   1.000  C
  N14      1.0000 0.37460  0.19350  0.45800  Biso   1.000  N
  H64      1.0000 0.38540  0.20460  0.43810  Biso   1.000  H
  C90      1.0000 0.36300  0.21650  0.49200  Biso   1.000  C
  H65      1.0000 0.37040  0.20240  0.51590  Biso   1.000  H
  C91      1.0000 0.25660  0.11730  0.49210  Biso   1.000  C
  C92      1.0000 0.41250  0.14260  0.40010  Biso   1.000  C
  H66      1.0000 0.42740  0.16430  0.40690  Biso   1.000  H
  C93      1.0000 0.31900  0.22450  0.49260  Biso   1.000  C
  O65      1.0000 0.13790  0.14580  0.48740  Biso   1.000  O
  C94      1.0000 0.22450  0.18140  0.49270  Biso   1.000  C
  C95      1.0000 0.25450  0.07360  0.49700  Biso   1.000  C
  C96      1.0000 0.15470  0.13150  0.45830  Biso   1.000  C
  O66      1.0000 0.22420  0.19930  0.46070  Biso   1.000  O
  C97      1.0000 0.42650  0.25460  0.49720  Biso   1.000  C
  O67      1.0000 0.44400  0.28640  0.49110  Biso   1.000  O
  O68      1.0000 0.30079  0.22420  0.46050  Biso   1.000  O
  O69      1.0000 0.22300  0.05790  0.50730  Biso   1.000  O
  C98      1.0000 0.21670  0.13750  0.49200  Biso   1.000  C
  O70      1.0000 0.44200  0.22300  0.50750  Biso   1.000  O
  H67      1.0000 0.20460  0.11600  0.43770  Biso   1.000  H
  H68      1.0000 0.27000  0.12240  0.46690  Biso   1.000  H
  H69      1.0000 0.27300  0.12820  0.51230  Biso   1.000  H
  H70      1.0000 0.20230  0.13020  0.51550  Biso   1.000  H
  O71      1.0000 0.35370  0.63780  0.98720  Biso   1.000  O
  O72      1.0000 0.30500  0.73390  0.02590  Biso   1.000  O
  C99      1.0000 0.09990  0.64230  0.91250  Biso   1.000  C
  H71      1.0000 0.09300  0.66370  0.92770  Biso   1.000  H
  C100     1.0000 0.38280  0.75680  0.99180  Biso   1.000  C
  H72      1.0000 0.37720  0.76960  0.96710  Biso   1.000  H
  H73      1.0000 0.37160  0.77260  0.01250  Biso   1.000  H
  N15      1.0000 0.19380  0.62550  0.95850  Biso   1.000  N
  O73      1.0000 0.28640  0.55560  0.99120  Biso   1.000  O
  C101     1.0000 0.13280  0.62010  0.92270  Biso   1.000  C
  C102     1.0000 0.37950  0.63230  0.92270  Biso   1.000  C
  O74      1.0000 0.23380  0.69530  0.02510  Biso   1.000  O
  C103     1.0000 0.36830  0.65470  0.95810  Biso   1.000  C
  N16      1.0000 0.37460  0.69350  0.95800  Biso   1.000  N
  H74      1.0000 0.38540  0.70460  0.93810  Biso   1.000  H
  C104     1.0000 0.36300  0.71650  0.99200  Biso   1.000  C
  H75      1.0000 0.37040  0.70240  0.01590  Biso   1.000  H
  C105     1.0000 0.25660  0.61730  0.99210  Biso   1.000  C
  C106     1.0000 0.41250  0.64260  0.90010  Biso   1.000  C
  H76      1.0000 0.42740  0.66430  0.90690  Biso   1.000  H
  C107     1.0000 0.31900  0.72450  0.99260  Biso   1.000  C
  O75      1.0000 0.13790  0.64580  0.98740  Biso   1.000  O
  C108     1.0000 0.22450  0.68140  0.99270  Biso   1.000  C
  C109     1.0000 0.25450  0.57360  0.99700  Biso   1.000  C
  C110     1.0000 0.15470  0.63150  0.95830  Biso   1.000  C
  O76      1.0000 0.22420  0.69930  0.96070  Biso   1.000  O
  C111     1.0000 0.42650  0.75460  0.99720  Biso   1.000  C
  O77      1.0000 0.44400  0.78640  0.99110  Biso   1.000  O
  O78      1.0000 0.30079  0.72420  0.96050  Biso   1.000  O
  O79      1.0000 0.22300  0.55790  0.00730  Biso   1.000  O
  C112     1.0000 0.21670  0.63750  0.99200  Biso   1.000  C
  O80      1.0000 0.44200  0.72300  0.00750  Biso   1.000  O
  H77      1.0000 0.20460  0.61600  0.93770  Biso   1.000  H
  H78      1.0000 0.27000  0.62240  0.96690  Biso   1.000  H
  H79      1.0000 0.27300  0.62820  0.01230  Biso   1.000  H
  H80      1.0000 0.20230  0.63020  0.01550  Biso   1.000  H
  O81      1.0000 0.85370  0.86220  0.01280  Biso   1.000  O
  O82      1.0000 0.80500  0.76610  0.97410  Biso   1.000  O
  C113     1.0000 0.59990  0.85770  0.08750  Biso   1.000  C
  H81      1.0000 0.59300  0.83630  0.07230  Biso   1.000  H
  C114     1.0000 0.88280  0.74320  0.00820  Biso   1.000  C
  H82      1.0000 0.87720  0.73040  0.03290  Biso   1.000  H
  H83      1.0000 0.87160  0.72740  0.98750  Biso   1.000  H
  N17      1.0000 0.69380  0.87450  0.04150  Biso   1.000  N
  O83      1.0000 0.78640  0.94440  0.00880  Biso   1.000  O
  C115     1.0000 0.63280  0.87990  0.07730  Biso   1.000  C
  C116     1.0000 0.87950  0.86770  0.07730  Biso   1.000  C
  O84      1.0000 0.73380  0.80470  0.97490  Biso   1.000  O
  C117     1.0000 0.86830  0.84530  0.04190  Biso   1.000  C
  N18      1.0000 0.87460  0.80650  0.04200  Biso   1.000  N
  H84      1.0000 0.88540  0.79540  0.06190  Biso   1.000  H
  C118     1.0000 0.86300  0.78350  0.00800  Biso   1.000  C
  H85      1.0000 0.87040  0.79760  0.98410  Biso   1.000  H
  C119     1.0000 0.75660  0.88270  0.00790  Biso   1.000  C
  C120     1.0000 0.91250  0.85740  0.09990  Biso   1.000  C
  H86      1.0000 0.92740  0.83570  0.09310  Biso   1.000  H
  C121     1.0000 0.81900  0.77550  0.00740  Biso   1.000  C
  O85      1.0000 0.63790  0.85420  0.01260  Biso   1.000  O
  C122     1.0000 0.72450  0.81860  0.00730  Biso   1.000  C
  C123     1.0000 0.75450  0.92640  0.00300  Biso   1.000  C
  C124     1.0000 0.65470  0.86850  0.04170  Biso   1.000  C
  O86      1.0000 0.72420  0.80070  0.03930  Biso   1.000  O
  C125     1.0000 0.92650  0.74540  0.00280  Biso   1.000  C
  O87      1.0000 0.94400  0.71360  0.00890  Biso   1.000  O
  O88      1.0000 0.80079  0.77580  0.03950  Biso   1.000  O
  O89      1.0000 0.72300  0.94210  0.99270  Biso   1.000  O
  C126     1.0000 0.71670  0.86250  0.00800  Biso   1.000  C
  O90      1.0000 0.94200  0.77700  0.99250  Biso   1.000  O
  H87      1.0000 0.70460  0.88400  0.06230  Biso   1.000  H
  H88      1.0000 0.77000  0.87760  0.03310  Biso   1.000  H
  H89      1.0000 0.77300  0.87180  0.98770  Biso   1.000  H
  H90      1.0000 0.70230  0.86980  0.98450  Biso   1.000  H
  O91      1.0000 0.85370  0.36220  0.51280  Biso   1.000  O
  O92      1.0000 0.80500  0.26610  0.47410  Biso   1.000  O
  C127     1.0000 0.59990  0.35770  0.58750  Biso   1.000  C
  H91      1.0000 0.59300  0.33630  0.57230  Biso   1.000  H
  C128     1.0000 0.88280  0.24320  0.50820  Biso   1.000  C
  H92      1.0000 0.87720  0.23040  0.53290  Biso   1.000  H
  H93      1.0000 0.87160  0.22740  0.48750  Biso   1.000  H
  N19      1.0000 0.69380  0.37450  0.54150  Biso   1.000  N
  O93      1.0000 0.78640  0.44440  0.50880  Biso   1.000  O
  C129     1.0000 0.63280  0.37990  0.57730  Biso   1.000  C
  C130     1.0000 0.87950  0.36770  0.57730  Biso   1.000  C
  O94      1.0000 0.73380  0.30470  0.47490  Biso   1.000  O
  C131     1.0000 0.86830  0.34530  0.54190  Biso   1.000  C
  N20      1.0000 0.87460  0.30650  0.54200  Biso   1.000  N
  H94      1.0000 0.88540  0.29540  0.56190  Biso   1.000  H
  C132     1.0000 0.86300  0.28350  0.50800  Biso   1.000  C
  H95      1.0000 0.87040  0.29760  0.48410  Biso   1.000  H
  C133     1.0000 0.75660  0.38270  0.50790  Biso   1.000  C
  C134     1.0000 0.91250  0.35740  0.59990  Biso   1.000  C
  H96      1.0000 0.92740  0.33570  0.59310  Biso   1.000  H
  C135     1.0000 0.81900  0.27550  0.50740  Biso   1.000  C
  O95      1.0000 0.63790  0.35420  0.51260  Biso   1.000  O
  C136     1.0000 0.72450  0.31860  0.50730  Biso   1.000  C
  C137     1.0000 0.75450  0.42640  0.50300  Biso   1.000  C
  C138     1.0000 0.65470  0.36850  0.54170  Biso   1.000  C
  O96      1.0000 0.72420  0.30070  0.53930  Biso   1.000  O
  C139     1.0000 0.92650  0.24540  0.50280  Biso   1.000  C
  O97      1.0000 0.94400  0.21360  0.50890  Biso   1.000  O
  O98      1.0000 0.80079  0.27580  0.53950  Biso   1.000  O
  O99      1.0000 0.72300  0.44210  0.49270  Biso   1.000  O
  C140     1.0000 0.71670  0.36250  0.50800  Biso   1.000  C
  O100     1.0000 0.94200  0.27700  0.49250  Biso   1.000  O
  H97      1.0000 0.70460  0.38400  0.56230  Biso   1.000  H
  H98      1.0000 0.77000  0.37760  0.53310  Biso   1.000  H
  H99      1.0000 0.77300  0.37180  0.48770  Biso   1.000  H
  H100     1.0000 0.70230  0.36980  0.48450  Biso   1.000  H
  O101     1.0000 0.35370  0.86220  0.51280  Biso   1.000  O
  O102     1.0000 0.30500  0.76610  0.47410  Biso   1.000  O
  C141     1.0000 0.09990  0.85770  0.58750  Biso   1.000  C
  H101     1.0000 0.09300  0.83630  0.57230  Biso   1.000  H
  C142     1.0000 0.38280  0.74320  0.50820  Biso   1.000  C
  H102     1.0000 0.37720  0.73040  0.53290  Biso   1.000  H
  H103     1.0000 0.37160  0.72740  0.48750  Biso   1.000  H
  N21      1.0000 0.19380  0.87450  0.54150  Biso   1.000  N
  O103     1.0000 0.28640  0.94440  0.50880  Biso   1.000  O
  C143     1.0000 0.13280  0.87990  0.57730  Biso   1.000  C
  C144     1.0000 0.37950  0.86770  0.57730  Biso   1.000  C
  O104     1.0000 0.23380  0.80470  0.47490  Biso   1.000  O
  C145     1.0000 0.36830  0.84530  0.54190  Biso   1.000  C
  N22      1.0000 0.37460  0.80650  0.54200  Biso   1.000  N
  H104     1.0000 0.38540  0.79540  0.56190  Biso   1.000  H
  C146     1.0000 0.36300  0.78350  0.50800  Biso   1.000  C
  H105     1.0000 0.37040  0.79760  0.48410  Biso   1.000  H
  C147     1.0000 0.25660  0.88270  0.50790  Biso   1.000  C
  C148     1.0000 0.41250  0.85740  0.59990  Biso   1.000  C
  H106     1.0000 0.42740  0.83570  0.59310  Biso   1.000  H
  C149     1.0000 0.31900  0.77550  0.50740  Biso   1.000  C
  O105     1.0000 0.13790  0.85420  0.51260  Biso   1.000  O
  C150     1.0000 0.22450  0.81860  0.50730  Biso   1.000  C
  C151     1.0000 0.25450  0.92640  0.50300  Biso   1.000  C
  C152     1.0000 0.15470  0.86850  0.54170  Biso   1.000  C
  O106     1.0000 0.22420  0.80070  0.53930  Biso   1.000  O
  C153     1.0000 0.42650  0.74540  0.50280  Biso   1.000  C
  O107     1.0000 0.44400  0.71360  0.50890  Biso   1.000  O
  O108     1.0000 0.30079  0.77580  0.53950  Biso   1.000  O
  O109     1.0000 0.22300  0.94210  0.49270  Biso   1.000  O
  C154     1.0000 0.21670  0.86250  0.50800  Biso   1.000  C
  O110     1.0000 0.44200  0.77700  0.49250  Biso   1.000  O
  H107     1.0000 0.20460  0.88400  0.56230  Biso   1.000  H
  H108     1.0000 0.27000  0.87760  0.53310  Biso   1.000  H
  H109     1.0000 0.27300  0.87180  0.48770  Biso   1.000  H
  H110     1.0000 0.20230  0.86980  0.48450  Biso   1.000  H
  O111     1.0000 0.35370  0.36220  0.01280  Biso   1.000  O
  O112     1.0000 0.30500  0.26610  0.97410  Biso   1.000  O
  C155     1.0000 0.09990  0.35770  0.08750  Biso   1.000  C
  H111     1.0000 0.09300  0.33630  0.07230  Biso   1.000  H
  C156     1.0000 0.38280  0.24320  0.00820  Biso   1.000  C
  H112     1.0000 0.37720  0.23040  0.03290  Biso   1.000  H
  H113     1.0000 0.37160  0.22740  0.98750  Biso   1.000  H
  N23      1.0000 0.19380  0.37450  0.04150  Biso   1.000  N
  O113     1.0000 0.28640  0.44440  0.00880  Biso   1.000  O
  C157     1.0000 0.13280  0.37990  0.07730  Biso   1.000  C
  C158     1.0000 0.37950  0.36770  0.07730  Biso   1.000  C
  O114     1.0000 0.23380  0.30470  0.97490  Biso   1.000  O
  C159     1.0000 0.36830  0.34530  0.04190  Biso   1.000  C
  N24      1.0000 0.37460  0.30650  0.04200  Biso   1.000  N
  H114     1.0000 0.38540  0.29540  0.06190  Biso   1.000  H
  C160     1.0000 0.36300  0.28350  0.00800  Biso   1.000  C
  H115     1.0000 0.37040  0.29760  0.98410  Biso   1.000  H
  C161     1.0000 0.25660  0.38270  0.00790  Biso   1.000  C
  C162     1.0000 0.41250  0.35740  0.09990  Biso   1.000  C
  H116     1.0000 0.42740  0.33570  0.09310  Biso   1.000  H
  C163     1.0000 0.31900  0.27550  0.00740  Biso   1.000  C
  O115     1.0000 0.13790  0.35420  0.01260  Biso   1.000  O
  C164     1.0000 0.22450  0.31860  0.00730  Biso   1.000  C
  C165     1.0000 0.25450  0.42640  0.00300  Biso   1.000  C
  C166     1.0000 0.15470  0.36850  0.04170  Biso   1.000  C
  O116     1.0000 0.22420  0.30070  0.03930  Biso   1.000  O
  C167     1.0000 0.42650  0.24540  0.00280  Biso   1.000  C
  O117     1.0000 0.44400  0.21360  0.00890  Biso   1.000  O
  O118     1.0000 0.30079  0.27580  0.03950  Biso   1.000  O
  O119     1.0000 0.22300  0.44210  0.99270  Biso   1.000  O
  C168     1.0000 0.21670  0.36250  0.00800  Biso   1.000  C
  O120     1.0000 0.44200  0.27700  0.99250  Biso   1.000  O
  H117     1.0000 0.20460  0.38400  0.06230  Biso   1.000  H
  H118     1.0000 0.27000  0.37760  0.03310  Biso   1.000  H
  H119     1.0000 0.27300  0.37180  0.98770  Biso   1.000  H
  H120     1.0000 0.20230  0.36980  0.98450  Biso   1.000  H
  O121     1.0000 0.14630  0.13780  0.01280  Biso   1.000  O
  O122     1.0000 0.19500  0.23390  0.97410  Biso   1.000  O
  C169     1.0000 0.40010  0.14230  0.08750  Biso   1.000  C
  H121     1.0000 0.40700  0.16370  0.07230  Biso   1.000  H
  C170     1.0000 0.11720  0.25680  0.00820  Biso   1.000  C
  H122     1.0000 0.12280  0.26960  0.03290  Biso   1.000  H
  H123     1.0000 0.12840  0.27260  0.98750  Biso   1.000  H
  N25      1.0000 0.30620  0.12550  0.04150  Biso   1.000  N
  O123     1.0000 0.21360  0.05560  0.00880  Biso   1.000  O
  C171     1.0000 0.36720  0.12010  0.07730  Biso   1.000  C
  C172     1.0000 0.12050  0.13230  0.07730  Biso   1.000  C
  O124     1.0000 0.26620  0.19530  0.97490  Biso   1.000  O
  C173     1.0000 0.13170  0.15470  0.04190  Biso   1.000  C
  N26      1.0000 0.12540  0.19350  0.04200  Biso   1.000  N
  H124     1.0000 0.11460  0.20460  0.06190  Biso   1.000  H
  C174     1.0000 0.13700  0.21650  0.00800  Biso   1.000  C
  H125     1.0000 0.12960  0.20240  0.98410  Biso   1.000  H
  C175     1.0000 0.24340  0.11730  0.00790  Biso   1.000  C
  C176     1.0000 0.08750  0.14260  0.09990  Biso   1.000  C
  H126     1.0000 0.07260  0.16430  0.09310  Biso   1.000  H
  C177     1.0000 0.18100  0.22450  0.00740  Biso   1.000  C
  O125     1.0000 0.36210  0.14580  0.01260  Biso   1.000  O
  C178     1.0000 0.27550  0.18140  0.00730  Biso   1.000  C
  C179     1.0000 0.24550  0.07360  0.00300  Biso   1.000  C
  C180     1.0000 0.34530  0.13150  0.04170  Biso   1.000  C
  O126     1.0000 0.27580  0.19930  0.03930  Biso   1.000  O
  C181     1.0000 0.07350  0.25460  0.00280  Biso   1.000  C
  O127     1.0000 0.05600  0.28640  0.00890  Biso   1.000  O
  O128     1.0000 0.19921  0.22420  0.03950  Biso   1.000  O
  O129     1.0000 0.27700  0.05790  0.99270  Biso   1.000  O
  C182     1.0000 0.28330  0.13750  0.00800  Biso   1.000  C
  O130     1.0000 0.05800  0.22300  0.99250  Biso   1.000  O
  H127     1.0000 0.29540  0.11600  0.06230  Biso   1.000  H
  H128     1.0000 0.23000  0.12240  0.03310  Biso   1.000  H
  H129     1.0000 0.22700  0.12820  0.98770  Biso   1.000  H
  H130     1.0000 0.29770  0.13020  0.98450  Biso   1.000  H
  O131     1.0000 0.14630  0.63780  0.51280  Biso   1.000  O
  O132     1.0000 0.19500  0.73390  0.47410  Biso   1.000  O
  C183     1.0000 0.40010  0.64230  0.58750  Biso   1.000  C
  H131     1.0000 0.40700  0.66370  0.57230  Biso   1.000  H
  C184     1.0000 0.11720  0.75680  0.50820  Biso   1.000  C
  H132     1.0000 0.12280  0.76960  0.53290  Biso   1.000  H
  H133     1.0000 0.12840  0.77260  0.48750  Biso   1.000  H
  N27      1.0000 0.30620  0.62550  0.54150  Biso   1.000  N
  O133     1.0000 0.21360  0.55560  0.50880  Biso   1.000  O
  C185     1.0000 0.36720  0.62010  0.57730  Biso   1.000  C
  C186     1.0000 0.12050  0.63230  0.57730  Biso   1.000  C
  O134     1.0000 0.26620  0.69530  0.47490  Biso   1.000  O
  C187     1.0000 0.13170  0.65470  0.54190  Biso   1.000  C
  N28      1.0000 0.12540  0.69350  0.54200  Biso   1.000  N
  H134     1.0000 0.11460  0.70460  0.56190  Biso   1.000  H
  C188     1.0000 0.13700  0.71650  0.50800  Biso   1.000  C
  H135     1.0000 0.12960  0.70240  0.48410  Biso   1.000  H
  C189     1.0000 0.24340  0.61730  0.50790  Biso   1.000  C
  C190     1.0000 0.08750  0.64260  0.59990  Biso   1.000  C
  H136     1.0000 0.07260  0.66430  0.59310  Biso   1.000  H
  C191     1.0000 0.18100  0.72450  0.50740  Biso   1.000  C
  O135     1.0000 0.36210  0.64580  0.51260  Biso   1.000  O
  C192     1.0000 0.27550  0.68140  0.50730  Biso   1.000  C
  C193     1.0000 0.24550  0.57360  0.50300  Biso   1.000  C
  C194     1.0000 0.34530  0.63150  0.54170  Biso   1.000  C
  O136     1.0000 0.27580  0.69930  0.53930  Biso   1.000  O
  C195     1.0000 0.07350  0.75460  0.50280  Biso   1.000  C
  O137     1.0000 0.05600  0.78640  0.50890  Biso   1.000  O
  O138     1.0000 0.19921  0.72420  0.53950  Biso   1.000  O
  O139     1.0000 0.27700  0.55790  0.49270  Biso   1.000  O
  C196     1.0000 0.28330  0.63750  0.50800  Biso   1.000  C
  O140     1.0000 0.05800  0.72300  0.49250  Biso   1.000  O
  H137     1.0000 0.29540  0.61600  0.56230  Biso   1.000  H
  H138     1.0000 0.23000  0.62240  0.53310  Biso   1.000  H
  H139     1.0000 0.22700  0.62820  0.48770  Biso   1.000  H
  H140     1.0000 0.29770  0.63020  0.48450  Biso   1.000  H
  O141     1.0000 0.64630  0.13780  0.51280  Biso   1.000  O
  O142     1.0000 0.69500  0.23390  0.47410  Biso   1.000  O
  C197     1.0000 0.90010  0.14230  0.58750  Biso   1.000  C
  H141     1.0000 0.90700  0.16370  0.57230  Biso   1.000  H
  C198     1.0000 0.61720  0.25680  0.50820  Biso   1.000  C
  H142     1.0000 0.62280  0.26960  0.53290  Biso   1.000  H
  H143     1.0000 0.62840  0.27260  0.48750  Biso   1.000  H
  N29      1.0000 0.80620  0.12550  0.54150  Biso   1.000  N
  O143     1.0000 0.71360  0.05560  0.50880  Biso   1.000  O
  C199     1.0000 0.86720  0.12010  0.57730  Biso   1.000  C
  C200     1.0000 0.62050  0.13230  0.57730  Biso   1.000  C
  O144     1.0000 0.76620  0.19530  0.47490  Biso   1.000  O
  C201     1.0000 0.63170  0.15470  0.54190  Biso   1.000  C
  N30      1.0000 0.62540  0.19350  0.54200  Biso   1.000  N
  H144     1.0000 0.61460  0.20460  0.56190  Biso   1.000  H
  C202     1.0000 0.63700  0.21650  0.50800  Biso   1.000  C
  H145     1.0000 0.62960  0.20240  0.48410  Biso   1.000  H
  C203     1.0000 0.74340  0.11730  0.50790  Biso   1.000  C
  C204     1.0000 0.58750  0.14260  0.59990  Biso   1.000  C
  H146     1.0000 0.57260  0.16430  0.59310  Biso   1.000  H
  C205     1.0000 0.68100  0.22450  0.50740  Biso   1.000  C
  O145     1.0000 0.86210  0.14580  0.51260  Biso   1.000  O
  C206     1.0000 0.77550  0.18140  0.50730  Biso   1.000  C
  C207     1.0000 0.74550  0.07360  0.50300  Biso   1.000  C
  C208     1.0000 0.84530  0.13150  0.54170  Biso   1.000  C
  O146     1.0000 0.77580  0.19930  0.53930  Biso   1.000  O
  C209     1.0000 0.57350  0.25460  0.50280  Biso   1.000  C
  O147     1.0000 0.55600  0.28640  0.50890  Biso   1.000  O
  O148     1.0000 0.69921  0.22420  0.53950  Biso   1.000  O
  O149     1.0000 0.77700  0.05790  0.49270  Biso   1.000  O
  C210     1.0000 0.78330  0.13750  0.50800  Biso   1.000  C
  O150     1.0000 0.55800  0.22300  0.49250  Biso   1.000  O
  H147     1.0000 0.79540  0.11600  0.56230  Biso   1.000  H
  H148     1.0000 0.73000  0.12240  0.53310  Biso   1.000  H
  H149     1.0000 0.72700  0.12820  0.48770  Biso   1.000  H
  H150     1.0000 0.79770  0.13020  0.48450  Biso   1.000  H
  O151     1.0000 0.64630  0.63780  0.01280  Biso   1.000  O
  O152     1.0000 0.69500  0.73390  0.97410  Biso   1.000  O
  C211     1.0000 0.90010  0.64230  0.08750  Biso   1.000  C
  H151     1.0000 0.90700  0.66370  0.07230  Biso   1.000  H
  C212     1.0000 0.61720  0.75680  0.00820  Biso   1.000  C
  H152     1.0000 0.62280  0.76960  0.03290  Biso   1.000  H
  H153     1.0000 0.62840  0.77260  0.98750  Biso   1.000  H
  N31      1.0000 0.80620  0.62550  0.04150  Biso   1.000  N
  O153     1.0000 0.71360  0.55560  0.00880  Biso   1.000  O
  C213     1.0000 0.86720  0.62010  0.07730  Biso   1.000  C
  C214     1.0000 0.62050  0.63230  0.07730  Biso   1.000  C
  O154     1.0000 0.76620  0.69530  0.97490  Biso   1.000  O
  C215     1.0000 0.63170  0.65470  0.04190  Biso   1.000  C
  N32      1.0000 0.62540  0.69350  0.04200  Biso   1.000  N
  H154     1.0000 0.61460  0.70460  0.06190  Biso   1.000  H
  C216     1.0000 0.63700  0.71650  0.00800  Biso   1.000  C
  H155     1.0000 0.62960  0.70240  0.98410  Biso   1.000  H
  C217     1.0000 0.74340  0.61730  0.00790  Biso   1.000  C
  C218     1.0000 0.58750  0.64260  0.09990  Biso   1.000  C
  H156     1.0000 0.57260  0.66430  0.09310  Biso   1.000  H
  C219     1.0000 0.68100  0.72450  0.00740  Biso   1.000  C
  O155     1.0000 0.86210  0.64580  0.01260  Biso   1.000  O
  C220     1.0000 0.77550  0.68140  0.00730  Biso   1.000  C
  C221     1.0000 0.74550  0.57360  0.00300  Biso   1.000  C
  C222     1.0000 0.84530  0.63150  0.04170  Biso   1.000  C
  O156     1.0000 0.77580  0.69930  0.03930  Biso   1.000  O
  C223     1.0000 0.57350  0.75460  0.00280  Biso   1.000  C
  O157     1.0000 0.55600  0.78640  0.00890  Biso   1.000  O
  O158     1.0000 0.69921  0.72420  0.03950  Biso   1.000  O
  O159     1.0000 0.77700  0.55790  0.99270  Biso   1.000  O
  C224     1.0000 0.78330  0.63750  0.00800  Biso   1.000  C
  O160     1.0000 0.55800  0.72300  0.99250  Biso   1.000  O
  H157     1.0000 0.79540  0.61600  0.06230  Biso   1.000  H
  H158     1.0000 0.73000  0.62240  0.03310  Biso   1.000  H
  H159     1.0000 0.72700  0.62820  0.98770  Biso   1.000  H
  H160     1.0000 0.79770  0.63020  0.98450  Biso   1.000  H
  O161     1.0000 0.98720  0.14630  0.86220  Biso   1.000  O
  O162     1.0000 0.02590  0.19500  0.76610  Biso   1.000  O
  C225     1.0000 0.91250  0.40010  0.85770  Biso   1.000  C
  H161     1.0000 0.92770  0.40700  0.83630  Biso   1.000  H
  C226     1.0000 0.99180  0.11720  0.74320  Biso   1.000  C
  H162     1.0000 0.96710  0.12280  0.73040  Biso   1.000  H
  H163     1.0000 0.01250  0.12840  0.72740  Biso   1.000  H
  N33      1.0000 0.95850  0.30620  0.87450  Biso   1.000  N
  O163     1.0000 0.99120  0.21360  0.94440  Biso   1.000  O
  C227     1.0000 0.92270  0.36720  0.87990  Biso   1.000  C
  C228     1.0000 0.92270  0.12050  0.86770  Biso   1.000  C
  O164     1.0000 0.02510  0.26620  0.80470  Biso   1.000  O
  C229     1.0000 0.95810  0.13170  0.84530  Biso   1.000  C
  N34      1.0000 0.95800  0.12540  0.80650  Biso   1.000  N
  H164     1.0000 0.93810  0.11460  0.79540  Biso   1.000  H
  C230     1.0000 0.99200  0.13700  0.78350  Biso   1.000  C
  H165     1.0000 0.01590  0.12960  0.79760  Biso   1.000  H
  C231     1.0000 0.99210  0.24340  0.88270  Biso   1.000  C
  C232     1.0000 0.90010  0.08750  0.85740  Biso   1.000  C
  H166     1.0000 0.90690  0.07260  0.83570  Biso   1.000  H
  C233     1.0000 0.99260  0.18100  0.77550  Biso   1.000  C
  O165     1.0000 0.98740  0.36210  0.85420  Biso   1.000  O
  C234     1.0000 0.99270  0.27550  0.81860  Biso   1.000  C
  C235     1.0000 0.99700  0.24550  0.92640  Biso   1.000  C
  C236     1.0000 0.95830  0.34530  0.86850  Biso   1.000  C
  O166     1.0000 0.96070  0.27580  0.80070  Biso   1.000  O
  C237     1.0000 0.99720  0.07350  0.74540  Biso   1.000  C
  O167     1.0000 0.99110  0.05600  0.71360  Biso   1.000  O
  O168     1.0000 0.96050  0.19921  0.77580  Biso   1.000  O
  O169     1.0000 0.00730  0.27700  0.94210  Biso   1.000  O
  C238     1.0000 0.99200  0.28330  0.86250  Biso   1.000  C
  O170     1.0000 0.00750  0.05800  0.77700  Biso   1.000  O
  H167     1.0000 0.93770  0.29540  0.88400  Biso   1.000  H
  H168     1.0000 0.96690  0.23000  0.87760  Biso   1.000  H
  H169     1.0000 0.01230  0.22700  0.87180  Biso   1.000  H
  H170     1.0000 0.01550  0.29770  0.86980  Biso   1.000  H
  O171     1.0000 0.98720  0.64630  0.36220  Biso   1.000  O
  O172     1.0000 0.02590  0.69500  0.26610  Biso   1.000  O
  C239     1.0000 0.91250  0.90010  0.35770  Biso   1.000  C
  H171     1.0000 0.92770  0.90700  0.33630  Biso   1.000  H
  C240     1.0000 0.99180  0.61720  0.24320  Biso   1.000  C
  H172     1.0000 0.96710  0.62280  0.23040  Biso   1.000  H
  H173     1.0000 0.01250  0.62840  0.22740  Biso   1.000  H
  N35      1.0000 0.95850  0.80620  0.37450  Biso   1.000  N
  O173     1.0000 0.99120  0.71360  0.44440  Biso   1.000  O
  C241     1.0000 0.92270  0.86720  0.37990  Biso   1.000  C
  C242     1.0000 0.92270  0.62050  0.36770  Biso   1.000  C
  O174     1.0000 0.02510  0.76620  0.30470  Biso   1.000  O
  C243     1.0000 0.95810  0.63170  0.34530  Biso   1.000  C
  N36      1.0000 0.95800  0.62540  0.30650  Biso   1.000  N
  H174     1.0000 0.93810  0.61460  0.29540  Biso   1.000  H
  C244     1.0000 0.99200  0.63700  0.28350  Biso   1.000  C
  H175     1.0000 0.01590  0.62960  0.29760  Biso   1.000  H
  C245     1.0000 0.99210  0.74340  0.38270  Biso   1.000  C
  C246     1.0000 0.90010  0.58750  0.35740  Biso   1.000  C
  H176     1.0000 0.90690  0.57260  0.33570  Biso   1.000  H
  C247     1.0000 0.99260  0.68100  0.27550  Biso   1.000  C
  O175     1.0000 0.98740  0.86210  0.35420  Biso   1.000  O
  C248     1.0000 0.99270  0.77550  0.31860  Biso   1.000  C
  C249     1.0000 0.99700  0.74550  0.42640  Biso   1.000  C
  C250     1.0000 0.95830  0.84530  0.36850  Biso   1.000  C
  O176     1.0000 0.96070  0.77580  0.30070  Biso   1.000  O
  C251     1.0000 0.99720  0.57350  0.24540  Biso   1.000  C
  O177     1.0000 0.99110  0.55600  0.21360  Biso   1.000  O
  O178     1.0000 0.96050  0.69921  0.27580  Biso   1.000  O
  O179     1.0000 0.00730  0.77700  0.44210  Biso   1.000  O
  C252     1.0000 0.99200  0.78330  0.36250  Biso   1.000  C
  O180     1.0000 0.00750  0.55800  0.27700  Biso   1.000  O
  H177     1.0000 0.93770  0.79540  0.38400  Biso   1.000  H
  H178     1.0000 0.96690  0.73000  0.37760  Biso   1.000  H
  H179     1.0000 0.01230  0.72700  0.37180  Biso   1.000  H
  H180     1.0000 0.01550  0.79770  0.36980  Biso   1.000  H
  O181     1.0000 0.48720  0.14630  0.36220  Biso   1.000  O
  O182     1.0000 0.52590  0.19500  0.26610  Biso   1.000  O
  C253     1.0000 0.41250  0.40010  0.35770  Biso   1.000  C
  H181     1.0000 0.42770  0.40700  0.33630  Biso   1.000  H
  C254     1.0000 0.49180  0.11720  0.24320  Biso   1.000  C
  H182     1.0000 0.46710  0.12280  0.23040  Biso   1.000  H
  H183     1.0000 0.51250  0.12840  0.22740  Biso   1.000  H
  N37      1.0000 0.45850  0.30620  0.37450  Biso   1.000  N
  O183     1.0000 0.49120  0.21360  0.44440  Biso   1.000  O
  C255     1.0000 0.42270  0.36720  0.37990  Biso   1.000  C
  C256     1.0000 0.42270  0.12050  0.36770  Biso   1.000  C
  O184     1.0000 0.52510  0.26620  0.30470  Biso   1.000  O
  C257     1.0000 0.45810  0.13170  0.34530  Biso   1.000  C
  N38      1.0000 0.45800  0.12540  0.30650  Biso   1.000  N
  H184     1.0000 0.43810  0.11460  0.29540  Biso   1.000  H
  C258     1.0000 0.49200  0.13700  0.28350  Biso   1.000  C
  H185     1.0000 0.51590  0.12960  0.29760  Biso   1.000  H
  C259     1.0000 0.49210  0.24340  0.38270  Biso   1.000  C
  C260     1.0000 0.40010  0.08750  0.35740  Biso   1.000  C
  H186     1.0000 0.40690  0.07260  0.33570  Biso   1.000  H
  C261     1.0000 0.49260  0.18100  0.27550  Biso   1.000  C
  O185     1.0000 0.48740  0.36210  0.35420  Biso   1.000  O
  C262     1.0000 0.49270  0.27550  0.31860  Biso   1.000  C
  C263     1.0000 0.49700  0.24550  0.42640  Biso   1.000  C
  C264     1.0000 0.45830  0.34530  0.36850  Biso   1.000  C
  O186     1.0000 0.46070  0.27580  0.30070  Biso   1.000  O
  C265     1.0000 0.49720  0.07350  0.24540  Biso   1.000  C
  O187     1.0000 0.49110  0.05600  0.21360  Biso   1.000  O
  O188     1.0000 0.46050  0.19921  0.27580  Biso   1.000  O
  O189     1.0000 0.50730  0.27700  0.44210  Biso   1.000  O
  C266     1.0000 0.49200  0.28330  0.36250  Biso   1.000  C
  O190     1.0000 0.50750  0.05800  0.27700  Biso   1.000  O
  H187     1.0000 0.43770  0.29540  0.38400  Biso   1.000  H
  H188     1.0000 0.46690  0.23000  0.37760  Biso   1.000  H
  H189     1.0000 0.51230  0.22700  0.37180  Biso   1.000  H
  H190     1.0000 0.51550  0.29770  0.36980  Biso   1.000  H
  O191     1.0000 0.48720  0.64630  0.86220  Biso   1.000  O
  O192     1.0000 0.52590  0.69500  0.76610  Biso   1.000  O
  C267     1.0000 0.41250  0.90010  0.85770  Biso   1.000  C
  H191     1.0000 0.42770  0.90700  0.83630  Biso   1.000  H
  C268     1.0000 0.49180  0.61720  0.74320  Biso   1.000  C
  H192     1.0000 0.46710  0.62280  0.73040  Biso   1.000  H
  H193     1.0000 0.51250  0.62840  0.72740  Biso   1.000  H
  N39      1.0000 0.45850  0.80620  0.87450  Biso   1.000  N
  O193     1.0000 0.49120  0.71360  0.94440  Biso   1.000  O
  C269     1.0000 0.42270  0.86720  0.87990  Biso   1.000  C
  C270     1.0000 0.42270  0.62050  0.86770  Biso   1.000  C
  O194     1.0000 0.52510  0.76620  0.80470  Biso   1.000  O
  C271     1.0000 0.45810  0.63170  0.84530  Biso   1.000  C
  N40      1.0000 0.45800  0.62540  0.80650  Biso   1.000  N
  H194     1.0000 0.43810  0.61460  0.79540  Biso   1.000  H
  C272     1.0000 0.49200  0.63700  0.78350  Biso   1.000  C
  H195     1.0000 0.51590  0.62960  0.79760  Biso   1.000  H
  C273     1.0000 0.49210  0.74340  0.88270  Biso   1.000  C
  C274     1.0000 0.40010  0.58750  0.85740  Biso   1.000  C
  H196     1.0000 0.40690  0.57260  0.83570  Biso   1.000  H
  C275     1.0000 0.49260  0.68100  0.77550  Biso   1.000  C
  O195     1.0000 0.48740  0.86210  0.85420  Biso   1.000  O
  C276     1.0000 0.49270  0.77550  0.81860  Biso   1.000  C
  C277     1.0000 0.49700  0.74550  0.92640  Biso   1.000  C
  C278     1.0000 0.45830  0.84530  0.86850  Biso   1.000  C
  O196     1.0000 0.46070  0.77580  0.80070  Biso   1.000  O
  C279     1.0000 0.49720  0.57350  0.74540  Biso   1.000  C
  O197     1.0000 0.49110  0.55600  0.71360  Biso   1.000  O
  O198     1.0000 0.46050  0.69921  0.77580  Biso   1.000  O
  O199     1.0000 0.50730  0.77700  0.94210  Biso   1.000  O
  C280     1.0000 0.49200  0.78330  0.86250  Biso   1.000  C
  O200     1.0000 0.50750  0.55800  0.77700  Biso   1.000  O
  H197     1.0000 0.43770  0.79540  0.88400  Biso   1.000  H
  H198     1.0000 0.46690  0.73000  0.87760  Biso   1.000  H
  H199     1.0000 0.51230  0.72700  0.87180  Biso   1.000  H
  H200     1.0000 0.51550  0.79770  0.86980  Biso   1.000  H
  O201     1.0000 0.98720  0.85370  0.13780  Biso   1.000  O
  O202     1.0000 0.02590  0.80500  0.23390  Biso   1.000  O
  C281     1.0000 0.91250  0.59990  0.14230  Biso   1.000  C
  H201     1.0000 0.92770  0.59300  0.16370  Biso   1.000  H
  C282     1.0000 0.99180  0.88280  0.25680  Biso   1.000  C
  H202     1.0000 0.96710  0.87720  0.26960  Biso   1.000  H
  H203     1.0000 0.01250  0.87160  0.27260  Biso   1.000  H
  N41      1.0000 0.95850  0.69380  0.12550  Biso   1.000  N
  O203     1.0000 0.99120  0.78640  0.05560  Biso   1.000  O
  C283     1.0000 0.92270  0.63280  0.12010  Biso   1.000  C
  C284     1.0000 0.92270  0.87950  0.13230  Biso   1.000  C
  O204     1.0000 0.02510  0.73380  0.19530  Biso   1.000  O
  C285     1.0000 0.95810  0.86830  0.15470  Biso   1.000  C
  N42      1.0000 0.95800  0.87460  0.19350  Biso   1.000  N
  H204     1.0000 0.93810  0.88540  0.20460  Biso   1.000  H
  C286     1.0000 0.99200  0.86300  0.21650  Biso   1.000  C
  H205     1.0000 0.01590  0.87040  0.20240  Biso   1.000  H
  C287     1.0000 0.99210  0.75660  0.11730  Biso   1.000  C
  C288     1.0000 0.90010  0.91250  0.14260  Biso   1.000  C
  H206     1.0000 0.90690  0.92740  0.16430  Biso   1.000  H
  C289     1.0000 0.99260  0.81900  0.22450  Biso   1.000  C
  O205     1.0000 0.98740  0.63790  0.14580  Biso   1.000  O
  C290     1.0000 0.99270  0.72450  0.18140  Biso   1.000  C
  C291     1.0000 0.99700  0.75450  0.07360  Biso   1.000  C
  C292     1.0000 0.95830  0.65470  0.13150  Biso   1.000  C
  O206     1.0000 0.96070  0.72420  0.19930  Biso   1.000  O
  C293     1.0000 0.99720  0.92650  0.25460  Biso   1.000  C
  O207     1.0000 0.99110  0.94400  0.28640  Biso   1.000  O
  O208     1.0000 0.96050  0.80079  0.22420  Biso   1.000  O
  O209     1.0000 0.00730  0.72300  0.05790  Biso   1.000  O
  C294     1.0000 0.99200  0.71670  0.13750  Biso   1.000  C
  O210     1.0000 0.00750  0.94200  0.22300  Biso   1.000  O
  H207     1.0000 0.93770  0.70460  0.11600  Biso   1.000  H
  H208     1.0000 0.96690  0.77000  0.12240  Biso   1.000  H
  H209     1.0000 0.01230  0.77300  0.12820  Biso   1.000  H
  H210     1.0000 0.01550  0.70230  0.13020  Biso   1.000  H
  O211     1.0000 0.98720  0.35370  0.63780  Biso   1.000  O
  O212     1.0000 0.02590  0.30500  0.73390  Biso   1.000  O
  C295     1.0000 0.91250  0.09990  0.64230  Biso   1.000  C
  H211     1.0000 0.92770  0.09300  0.66370  Biso   1.000  H
  C296     1.0000 0.99180  0.38280  0.75680  Biso   1.000  C
  H212     1.0000 0.96710  0.37720  0.76960  Biso   1.000  H
  H213     1.0000 0.01250  0.37160  0.77260  Biso   1.000  H
  N43      1.0000 0.95850  0.19380  0.62550  Biso   1.000  N
  O213     1.0000 0.99120  0.28640  0.55560  Biso   1.000  O
  C297     1.0000 0.92270  0.13280  0.62010  Biso   1.000  C
  C298     1.0000 0.92270  0.37950  0.63230  Biso   1.000  C
  O214     1.0000 0.02510  0.23380  0.69530  Biso   1.000  O
  C299     1.0000 0.95810  0.36830  0.65470  Biso   1.000  C
  N44      1.0000 0.95800  0.37460  0.69350  Biso   1.000  N
  H214     1.0000 0.93810  0.38540  0.70460  Biso   1.000  H
  C300     1.0000 0.99200  0.36300  0.71650  Biso   1.000  C
  H215     1.0000 0.01590  0.37040  0.70240  Biso   1.000  H
  C301     1.0000 0.99210  0.25660  0.61730  Biso   1.000  C
  C302     1.0000 0.90010  0.41250  0.64260  Biso   1.000  C
  H216     1.0000 0.90690  0.42740  0.66430  Biso   1.000  H
  C303     1.0000 0.99260  0.31900  0.72450  Biso   1.000  C
  O215     1.0000 0.98740  0.13790  0.64580  Biso   1.000  O
  C304     1.0000 0.99270  0.22450  0.68140  Biso   1.000  C
  C305     1.0000 0.99700  0.25450  0.57360  Biso   1.000  C
  C306     1.0000 0.95830  0.15470  0.63150  Biso   1.000  C
  O216     1.0000 0.96070  0.22420  0.69930  Biso   1.000  O
  C307     1.0000 0.99720  0.42650  0.75460  Biso   1.000  C
  O217     1.0000 0.99110  0.44400  0.78640  Biso   1.000  O
  O218     1.0000 0.96050  0.30079  0.72420  Biso   1.000  O
  O219     1.0000 0.00730  0.22300  0.55790  Biso   1.000  O
  C308     1.0000 0.99200  0.21670  0.63750  Biso   1.000  C
  O220     1.0000 0.00750  0.44200  0.72300  Biso   1.000  O
  H217     1.0000 0.93770  0.20460  0.61600  Biso   1.000  H
  H218     1.0000 0.96690  0.27000  0.62240  Biso   1.000  H
  H219     1.0000 0.01230  0.27300  0.62820  Biso   1.000  H
  H220     1.0000 0.01550  0.20230  0.63020  Biso   1.000  H
  O221     1.0000 0.48720  0.85370  0.63780  Biso   1.000  O
  O222     1.0000 0.52590  0.80500  0.73390  Biso   1.000  O
  C309     1.0000 0.41250  0.59990  0.64230  Biso   1.000  C
  H221     1.0000 0.42770  0.59300  0.66370  Biso   1.000  H
  C310     1.0000 0.49180  0.88280  0.75680  Biso   1.000  C
  H222     1.0000 0.46710  0.87720  0.76960  Biso   1.000  H
  H223     1.0000 0.51250  0.87160  0.77260  Biso   1.000  H
  N45      1.0000 0.45850  0.69380  0.62550  Biso   1.000  N
  O223     1.0000 0.49120  0.78640  0.55560  Biso   1.000  O
  C311     1.0000 0.42270  0.63280  0.62010  Biso   1.000  C
  C312     1.0000 0.42270  0.87950  0.63230  Biso   1.000  C
  O224     1.0000 0.52510  0.73380  0.69530  Biso   1.000  O
  C313     1.0000 0.45810  0.86830  0.65470  Biso   1.000  C
  N46      1.0000 0.45800  0.87460  0.69350  Biso   1.000  N
  H224     1.0000 0.43810  0.88540  0.70460  Biso   1.000  H
  C314     1.0000 0.49200  0.86300  0.71650  Biso   1.000  C
  H225     1.0000 0.51590  0.87040  0.70240  Biso   1.000  H
  C315     1.0000 0.49210  0.75660  0.61730  Biso   1.000  C
  C316     1.0000 0.40010  0.91250  0.64260  Biso   1.000  C
  H226     1.0000 0.40690  0.92740  0.66430  Biso   1.000  H
  C317     1.0000 0.49260  0.81900  0.72450  Biso   1.000  C
  O225     1.0000 0.48740  0.63790  0.64580  Biso   1.000  O
  C318     1.0000 0.49270  0.72450  0.68140  Biso   1.000  C
  C319     1.0000 0.49700  0.75450  0.57360  Biso   1.000  C
  C320     1.0000 0.45830  0.65470  0.63150  Biso   1.000  C
  O226     1.0000 0.46070  0.72420  0.69930  Biso   1.000  O
  C321     1.0000 0.49720  0.92650  0.75460  Biso   1.000  C
  O227     1.0000 0.49110  0.94400  0.78640  Biso   1.000  O
  O228     1.0000 0.46050  0.80079  0.72420  Biso   1.000  O
  O229     1.0000 0.50730  0.72300  0.55790  Biso   1.000  O
  C322     1.0000 0.49200  0.71670  0.63750  Biso   1.000  C
  O230     1.0000 0.50750  0.94200  0.72300  Biso   1.000  O
  H227     1.0000 0.43770  0.70460  0.61600  Biso   1.000  H
  H228     1.0000 0.46690  0.77000  0.62240  Biso   1.000  H
  H229     1.0000 0.51230  0.77300  0.62820  Biso   1.000  H
  H230     1.0000 0.51550  0.70230  0.63020  Biso   1.000  H
  O231     1.0000 0.48720  0.35370  0.13780  Biso   1.000  O
  O232     1.0000 0.52590  0.30500  0.23390  Biso   1.000  O
  C323     1.0000 0.41250  0.09990  0.14230  Biso   1.000  C
  H231     1.0000 0.42770  0.09300  0.16370  Biso   1.000  H
  C324     1.0000 0.49180  0.38280  0.25680  Biso   1.000  C
  H232     1.0000 0.46710  0.37720  0.26960  Biso   1.000  H
  H233     1.0000 0.51250  0.37160  0.27260  Biso   1.000  H
  N47      1.0000 0.45850  0.19380  0.12550  Biso   1.000  N
  O233     1.0000 0.49120  0.28640  0.05560  Biso   1.000  O
  C325     1.0000 0.42270  0.13280  0.12010  Biso   1.000  C
  C326     1.0000 0.42270  0.37950  0.13230  Biso   1.000  C
  O234     1.0000 0.52510  0.23380  0.19530  Biso   1.000  O
  C327     1.0000 0.45810  0.36830  0.15470  Biso   1.000  C
  N48      1.0000 0.45800  0.37460  0.19350  Biso   1.000  N
  H234     1.0000 0.43810  0.38540  0.20460  Biso   1.000  H
  C328     1.0000 0.49200  0.36300  0.21650  Biso   1.000  C
  H235     1.0000 0.51590  0.37040  0.20240  Biso   1.000  H
  C329     1.0000 0.49210  0.25660  0.11730  Biso   1.000  C
  C330     1.0000 0.40010  0.41250  0.14260  Biso   1.000  C
  H236     1.0000 0.40690  0.42740  0.16430  Biso   1.000  H
  C331     1.0000 0.49260  0.31900  0.22450  Biso   1.000  C
  O235     1.0000 0.48740  0.13790  0.14580  Biso   1.000  O
  C332     1.0000 0.49270  0.22450  0.18140  Biso   1.000  C
  C333     1.0000 0.49700  0.25450  0.07360  Biso   1.000  C
  C334     1.0000 0.45830  0.15470  0.13150  Biso   1.000  C
  O236     1.0000 0.46070  0.22420  0.19930  Biso   1.000  O
  C335     1.0000 0.49720  0.42650  0.25460  Biso   1.000  C
  O237     1.0000 0.49110  0.44400  0.28640  Biso   1.000  O
  O238     1.0000 0.46050  0.30079  0.22420  Biso   1.000  O
  O239     1.0000 0.50730  0.22300  0.05790  Biso   1.000  O
  C336     1.0000 0.49200  0.21670  0.13750  Biso   1.000  C
  O240     1.0000 0.50750  0.44200  0.22300  Biso   1.000  O
  H237     1.0000 0.43770  0.20460  0.11600  Biso   1.000  H
  H238     1.0000 0.46690  0.27000  0.12240  Biso   1.000  H
  H239     1.0000 0.51230  0.27300  0.12820  Biso   1.000  H
  H240     1.0000 0.51550  0.20230  0.13020  Biso   1.000  H
  O241     1.0000 0.01280  0.85370  0.86220  Biso   1.000  O
  O242     1.0000 0.97410  0.80500  0.76610  Biso   1.000  O
  C337     1.0000 0.08750  0.59990  0.85770  Biso   1.000  C
  H241     1.0000 0.07230  0.59300  0.83630  Biso   1.000  H
  C338     1.0000 0.00820  0.88280  0.74320  Biso   1.000  C
  H242     1.0000 0.03290  0.87720  0.73040  Biso   1.000  H
  H243     1.0000 0.98750  0.87160  0.72740  Biso   1.000  H
  N49      1.0000 0.04150  0.69380  0.87450  Biso   1.000  N
  O243     1.0000 0.00880  0.78640  0.94440  Biso   1.000  O
  C339     1.0000 0.07730  0.63280  0.87990  Biso   1.000  C
  C340     1.0000 0.07730  0.87950  0.86770  Biso   1.000  C
  O244     1.0000 0.97490  0.73380  0.80470  Biso   1.000  O
  C341     1.0000 0.04190  0.86830  0.84530  Biso   1.000  C
  N50      1.0000 0.04200  0.87460  0.80650  Biso   1.000  N
  H244     1.0000 0.06190  0.88540  0.79540  Biso   1.000  H
  C342     1.0000 0.00800  0.86300  0.78350  Biso   1.000  C
  H245     1.0000 0.98410  0.87040  0.79760  Biso   1.000  H
  C343     1.0000 0.00790  0.75660  0.88270  Biso   1.000  C
  C344     1.0000 0.09990  0.91250  0.85740  Biso   1.000  C
  H246     1.0000 0.09310  0.92740  0.83570  Biso   1.000  H
  C345     1.0000 0.00740  0.81900  0.77550  Biso   1.000  C
  O245     1.0000 0.01260  0.63790  0.85420  Biso   1.000  O
  C346     1.0000 0.00730  0.72450  0.81860  Biso   1.000  C
  C347     1.0000 0.00300  0.75450  0.92640  Biso   1.000  C
  C348     1.0000 0.04170  0.65470  0.86850  Biso   1.000  C
  O246     1.0000 0.03930  0.72420  0.80070  Biso   1.000  O
  C349     1.0000 0.00280  0.92650  0.74540  Biso   1.000  C
  O247     1.0000 0.00890  0.94400  0.71360  Biso   1.000  O
  O248     1.0000 0.03950  0.80079  0.77580  Biso   1.000  O
  O249     1.0000 0.99270  0.72300  0.94210  Biso   1.000  O
  C350     1.0000 0.00800  0.71670  0.86250  Biso   1.000  C
  O250     1.0000 0.99250  0.94200  0.77700  Biso   1.000  O
  H247     1.0000 0.06230  0.70460  0.88400  Biso   1.000  H
  H248     1.0000 0.03310  0.77000  0.87760  Biso   1.000  H
  H249     1.0000 0.98770  0.77300  0.87180  Biso   1.000  H
  H250     1.0000 0.98450  0.70230  0.86980  Biso   1.000  H
  O251     1.0000 0.01280  0.35370  0.36220  Biso   1.000  O
  O252     1.0000 0.97410  0.30500  0.26610  Biso   1.000  O
  C351     1.0000 0.08750  0.09990  0.35770  Biso   1.000  C
  H251     1.0000 0.07230  0.09300  0.33630  Biso   1.000  H
  C352     1.0000 0.00820  0.38280  0.24320  Biso   1.000  C
  H252     1.0000 0.03290  0.37720  0.23040  Biso   1.000  H
  H253     1.0000 0.98750  0.37160  0.22740  Biso   1.000  H
  N51      1.0000 0.04150  0.19380  0.37450  Biso   1.000  N
  O253     1.0000 0.00880  0.28640  0.44440  Biso   1.000  O
  C353     1.0000 0.07730  0.13280  0.37990  Biso   1.000  C
  C354     1.0000 0.07730  0.37950  0.36770  Biso   1.000  C
  O254     1.0000 0.97490  0.23380  0.30470  Biso   1.000  O
  C355     1.0000 0.04190  0.36830  0.34530  Biso   1.000  C
  N52      1.0000 0.04200  0.37460  0.30650  Biso   1.000  N
  H254     1.0000 0.06190  0.38540  0.29540  Biso   1.000  H
  C356     1.0000 0.00800  0.36300  0.28350  Biso   1.000  C
  H255     1.0000 0.98410  0.37040  0.29760  Biso   1.000  H
  C357     1.0000 0.00790  0.25660  0.38270  Biso   1.000  C
  C358     1.0000 0.09990  0.41250  0.35740  Biso   1.000  C
  H256     1.0000 0.09310  0.42740  0.33570  Biso   1.000  H
  C359     1.0000 0.00740  0.31900  0.27550  Biso   1.000  C
  O255     1.0000 0.01260  0.13790  0.35420  Biso   1.000  O
  C360     1.0000 0.00730  0.22450  0.31860  Biso   1.000  C
  C361     1.0000 0.00300  0.25450  0.42640  Biso   1.000  C
  C362     1.0000 0.04170  0.15470  0.36850  Biso   1.000  C
  O256     1.0000 0.03930  0.22420  0.30070  Biso   1.000  O
  C363     1.0000 0.00280  0.42650  0.24540  Biso   1.000  C
  O257     1.0000 0.00890  0.44400  0.21360  Biso   1.000  O
  O258     1.0000 0.03950  0.30079  0.27580  Biso   1.000  O
  O259     1.0000 0.99270  0.22300  0.44210  Biso   1.000  O
  C364     1.0000 0.00800  0.21670  0.36250  Biso   1.000  C
  O260     1.0000 0.99250  0.44200  0.27700  Biso   1.000  O
  H257     1.0000 0.06230  0.20460  0.38400  Biso   1.000  H
  H258     1.0000 0.03310  0.27000  0.37760  Biso   1.000  H
  H259     1.0000 0.98770  0.27300  0.37180  Biso   1.000  H
  H260     1.0000 0.98450  0.20230  0.36980  Biso   1.000  H
  O261     1.0000 0.51280  0.85370  0.36220  Biso   1.000  O
  O262     1.0000 0.47410  0.80500  0.26610  Biso   1.000  O
  C365     1.0000 0.58750  0.59990  0.35770  Biso   1.000  C
  H261     1.0000 0.57230  0.59300  0.33630  Biso   1.000  H
  C366     1.0000 0.50820  0.88280  0.24320  Biso   1.000  C
  H262     1.0000 0.53290  0.87720  0.23040  Biso   1.000  H
  H263     1.0000 0.48750  0.87160  0.22740  Biso   1.000  H
  N53      1.0000 0.54150  0.69380  0.37450  Biso   1.000  N
  O263     1.0000 0.50880  0.78640  0.44440  Biso   1.000  O
  C367     1.0000 0.57730  0.63280  0.37990  Biso   1.000  C
  C368     1.0000 0.57730  0.87950  0.36770  Biso   1.000  C
  O264     1.0000 0.47490  0.73380  0.30470  Biso   1.000  O
  C369     1.0000 0.54190  0.86830  0.34530  Biso   1.000  C
  N54      1.0000 0.54200  0.87460  0.30650  Biso   1.000  N
  H264     1.0000 0.56190  0.88540  0.29540  Biso   1.000  H
  C370     1.0000 0.50800  0.86300  0.28350  Biso   1.000  C
  H265     1.0000 0.48410  0.87040  0.29760  Biso   1.000  H
  C371     1.0000 0.50790  0.75660  0.38270  Biso   1.000  C
  C372     1.0000 0.59990  0.91250  0.35740  Biso   1.000  C
  H266     1.0000 0.59310  0.92740  0.33570  Biso   1.000  H
  C373     1.0000 0.50740  0.81900  0.27550  Biso   1.000  C
  O265     1.0000 0.51260  0.63790  0.35420  Biso   1.000  O
  C374     1.0000 0.50730  0.72450  0.31860  Biso   1.000  C
  C375     1.0000 0.50300  0.75450  0.42640  Biso   1.000  C
  C376     1.0000 0.54170  0.65470  0.36850  Biso   1.000  C
  O266     1.0000 0.53930  0.72420  0.30070  Biso   1.000  O
  C377     1.0000 0.50280  0.92650  0.24540  Biso   1.000  C
  O267     1.0000 0.50890  0.94400  0.21360  Biso   1.000  O
  O268     1.0000 0.53950  0.80079  0.27580  Biso   1.000  O
  O269     1.0000 0.49270  0.72300  0.44210  Biso   1.000  O
  C378     1.0000 0.50800  0.71670  0.36250  Biso   1.000  C
  O270     1.0000 0.49250  0.94200  0.27700  Biso   1.000  O
  H267     1.0000 0.56230  0.70460  0.38400  Biso   1.000  H
  H268     1.0000 0.53310  0.77000  0.37760  Biso   1.000  H
  H269     1.0000 0.48770  0.77300  0.37180  Biso   1.000  H
  H270     1.0000 0.48450  0.70230  0.36980  Biso   1.000  H
  O271     1.0000 0.51280  0.35370  0.86220  Biso   1.000  O
  O272     1.0000 0.47410  0.30500  0.76610  Biso   1.000  O
  C379     1.0000 0.58750  0.09990  0.85770  Biso   1.000  C
  H271     1.0000 0.57230  0.09300  0.83630  Biso   1.000  H
  C380     1.0000 0.50820  0.38280  0.74320  Biso   1.000  C
  H272     1.0000 0.53290  0.37720  0.73040  Biso   1.000  H
  H273     1.0000 0.48750  0.37160  0.72740  Biso   1.000  H
  N55      1.0000 0.54150  0.19380  0.87450  Biso   1.000  N
  O273     1.0000 0.50880  0.28640  0.94440  Biso   1.000  O
  C381     1.0000 0.57730  0.13280  0.87990  Biso   1.000  C
  C382     1.0000 0.57730  0.37950  0.86770  Biso   1.000  C
  O274     1.0000 0.47490  0.23380  0.80470  Biso   1.000  O
  C383     1.0000 0.54190  0.36830  0.84530  Biso   1.000  C
  N56      1.0000 0.54200  0.37460  0.80650  Biso   1.000  N
  H274     1.0000 0.56190  0.38540  0.79540  Biso   1.000  H
  C384     1.0000 0.50800  0.36300  0.78350  Biso   1.000  C
  H275     1.0000 0.48410  0.37040  0.79760  Biso   1.000  H
  C385     1.0000 0.50790  0.25660  0.88270  Biso   1.000  C
  C386     1.0000 0.59990  0.41250  0.85740  Biso   1.000  C
  H276     1.0000 0.59310  0.42740  0.83570  Biso   1.000  H
  C387     1.0000 0.50740  0.31900  0.77550  Biso   1.000  C
  O275     1.0000 0.51260  0.13790  0.85420  Biso   1.000  O
  C388     1.0000 0.50730  0.22450  0.81860  Biso   1.000  C
  C389     1.0000 0.50300  0.25450  0.92640  Biso   1.000  C
  C390     1.0000 0.54170  0.15470  0.86850  Biso   1.000  C
  O276     1.0000 0.53930  0.22420  0.80070  Biso   1.000  O
  C391     1.0000 0.50280  0.42650  0.74540  Biso   1.000  C
  O277     1.0000 0.50890  0.44400  0.71360  Biso   1.000  O
  O278     1.0000 0.53950  0.30079  0.77580  Biso   1.000  O
  O279     1.0000 0.49270  0.22300  0.94210  Biso   1.000  O
  C392     1.0000 0.50800  0.21670  0.86250  Biso   1.000  C
  O280     1.0000 0.49250  0.44200  0.77700  Biso   1.000  O
  H277     1.0000 0.56230  0.20460  0.88400  Biso   1.000  H
  H278     1.0000 0.53310  0.27000  0.87760  Biso   1.000  H
  H279     1.0000 0.48770  0.27300  0.87180  Biso   1.000  H
  H280     1.0000 0.48450  0.20230  0.86980  Biso   1.000  H
  O281     1.0000 0.01280  0.14630  0.13780  Biso   1.000  O
  O282     1.0000 0.97410  0.19500  0.23390  Biso   1.000  O
  C393     1.0000 0.08750  0.40010  0.14230  Biso   1.000  C
  H281     1.0000 0.07230  0.40700  0.16370  Biso   1.000  H
  C394     1.0000 0.00820  0.11720  0.25680  Biso   1.000  C
  H282     1.0000 0.03290  0.12280  0.26960  Biso   1.000  H
  H283     1.0000 0.98750  0.12840  0.27260  Biso   1.000  H
  N57      1.0000 0.04150  0.30620  0.12550  Biso   1.000  N
  O283     1.0000 0.00880  0.21360  0.05560  Biso   1.000  O
  C395     1.0000 0.07730  0.36720  0.12010  Biso   1.000  C
  C396     1.0000 0.07730  0.12050  0.13230  Biso   1.000  C
  O284     1.0000 0.97490  0.26620  0.19530  Biso   1.000  O
  C397     1.0000 0.04190  0.13170  0.15470  Biso   1.000  C
  N58      1.0000 0.04200  0.12540  0.19350  Biso   1.000  N
  H284     1.0000 0.06190  0.11460  0.20460  Biso   1.000  H
  C398     1.0000 0.00800  0.13700  0.21650  Biso   1.000  C
  H285     1.0000 0.98410  0.12960  0.20240  Biso   1.000  H
  C399     1.0000 0.00790  0.24340  0.11730  Biso   1.000  C
  C400     1.0000 0.09990  0.08750  0.14260  Biso   1.000  C
  H286     1.0000 0.09310  0.07260  0.16430  Biso   1.000  H
  C401     1.0000 0.00740  0.18100  0.22450  Biso   1.000  C
  O285     1.0000 0.01260  0.36210  0.14580  Biso   1.000  O
  C402     1.0000 0.00730  0.27550  0.18140  Biso   1.000  C
  C403     1.0000 0.00300  0.24550  0.07360  Biso   1.000  C
  C404     1.0000 0.04170  0.34530  0.13150  Biso   1.000  C
  O286     1.0000 0.03930  0.27580  0.19930  Biso   1.000  O
  C405     1.0000 0.00280  0.07350  0.25460  Biso   1.000  C
  O287     1.0000 0.00890  0.05600  0.28640  Biso   1.000  O
  O288     1.0000 0.03950  0.19921  0.22420  Biso   1.000  O
  O289     1.0000 0.99270  0.27700  0.05790  Biso   1.000  O
  C406     1.0000 0.00800  0.28330  0.13750  Biso   1.000  C
  O290     1.0000 0.99250  0.05800  0.22300  Biso   1.000  O
  H287     1.0000 0.06230  0.29540  0.11600  Biso   1.000  H
  H288     1.0000 0.03310  0.23000  0.12240  Biso   1.000  H
  H289     1.0000 0.98770  0.22700  0.12820  Biso   1.000  H
  H290     1.0000 0.98450  0.29770  0.13020  Biso   1.000  H
  O291     1.0000 0.01280  0.64630  0.63780  Biso   1.000  O
  O292     1.0000 0.97410  0.69500  0.73390  Biso   1.000  O
  C407     1.0000 0.08750  0.90010  0.64230  Biso   1.000  C
  H291     1.0000 0.07230  0.90700  0.66370  Biso   1.000  H
  C408     1.0000 0.00820  0.61720  0.75680  Biso   1.000  C
  H292     1.0000 0.03290  0.62280  0.76960  Biso   1.000  H
  H293     1.0000 0.98750  0.62840  0.77260  Biso   1.000  H
  N59      1.0000 0.04150  0.80620  0.62550  Biso   1.000  N
  O293     1.0000 0.00880  0.71360  0.55560  Biso   1.000  O
  C409     1.0000 0.07730  0.86720  0.62010  Biso   1.000  C
  C410     1.0000 0.07730  0.62050  0.63230  Biso   1.000  C
  O294     1.0000 0.97490  0.76620  0.69530  Biso   1.000  O
  C411     1.0000 0.04190  0.63170  0.65470  Biso   1.000  C
  N60      1.0000 0.04200  0.62540  0.69350  Biso   1.000  N
  H294     1.0000 0.06190  0.61460  0.70460  Biso   1.000  H
  C412     1.0000 0.00800  0.63700  0.71650  Biso   1.000  C
  H295     1.0000 0.98410  0.62960  0.70240  Biso   1.000  H
  C413     1.0000 0.00790  0.74340  0.61730  Biso   1.000  C
  C414     1.0000 0.09990  0.58750  0.64260  Biso   1.000  C
  H296     1.0000 0.09310  0.57260  0.66430  Biso   1.000  H
  C415     1.0000 0.00740  0.68100  0.72450  Biso   1.000  C
  O295     1.0000 0.01260  0.86210  0.64580  Biso   1.000  O
  C416     1.0000 0.00730  0.77550  0.68140  Biso   1.000  C
  C417     1.0000 0.00300  0.74550  0.57360  Biso   1.000  C
  C418     1.0000 0.04170  0.84530  0.63150  Biso   1.000  C
  O296     1.0000 0.03930  0.77580  0.69930  Biso   1.000  O
  C419     1.0000 0.00280  0.57350  0.75460  Biso   1.000  C
  O297     1.0000 0.00890  0.55600  0.78640  Biso   1.000  O
  O298     1.0000 0.03950  0.69921  0.72420  Biso   1.000  O
  O299     1.0000 0.99270  0.77700  0.55790  Biso   1.000  O
  C420     1.0000 0.00800  0.78330  0.63750  Biso   1.000  C
  O300     1.0000 0.99250  0.55800  0.72300  Biso   1.000  O
  H297     1.0000 0.06230  0.79540  0.61600  Biso   1.000  H
  H298     1.0000 0.03310  0.73000  0.62240  Biso   1.000  H
  H299     1.0000 0.98770  0.72700  0.62820  Biso   1.000  H
  H300     1.0000 0.98450  0.79770  0.63020  Biso   1.000  H
  O301     1.0000 0.51280  0.14630  0.63780  Biso   1.000  O
  O302     1.0000 0.47410  0.19500  0.73390  Biso   1.000  O
  C421     1.0000 0.58750  0.40010  0.64230  Biso   1.000  C
  H301     1.0000 0.57230  0.40700  0.66370  Biso   1.000  H
  C422     1.0000 0.50820  0.11720  0.75680  Biso   1.000  C
  H302     1.0000 0.53290  0.12280  0.76960  Biso   1.000  H
  H303     1.0000 0.48750  0.12840  0.77260  Biso   1.000  H
  N61      1.0000 0.54150  0.30620  0.62550  Biso   1.000  N
  O303     1.0000 0.50880  0.21360  0.55560  Biso   1.000  O
  C423     1.0000 0.57730  0.36720  0.62010  Biso   1.000  C
  C424     1.0000 0.57730  0.12050  0.63230  Biso   1.000  C
  O304     1.0000 0.47490  0.26620  0.69530  Biso   1.000  O
  C425     1.0000 0.54190  0.13170  0.65470  Biso   1.000  C
  N62      1.0000 0.54200  0.12540  0.69350  Biso   1.000  N
  H304     1.0000 0.56190  0.11460  0.70460  Biso   1.000  H
  C426     1.0000 0.50800  0.13700  0.71650  Biso   1.000  C
  H305     1.0000 0.48410  0.12960  0.70240  Biso   1.000  H
  C427     1.0000 0.50790  0.24340  0.61730  Biso   1.000  C
  C428     1.0000 0.59990  0.08750  0.64260  Biso   1.000  C
  H306     1.0000 0.59310  0.07260  0.66430  Biso   1.000  H
  C429     1.0000 0.50740  0.18100  0.72450  Biso   1.000  C
  O305     1.0000 0.51260  0.36210  0.64580  Biso   1.000  O
  C430     1.0000 0.50730  0.27550  0.68140  Biso   1.000  C
  C431     1.0000 0.50300  0.24550  0.57360  Biso   1.000  C
  C432     1.0000 0.54170  0.34530  0.63150  Biso   1.000  C
  O306     1.0000 0.53930  0.27580  0.69930  Biso   1.000  O
  C433     1.0000 0.50280  0.07350  0.75460  Biso   1.000  C
  O307     1.0000 0.50890  0.05600  0.78640  Biso   1.000  O
  O308     1.0000 0.53950  0.19921  0.72420  Biso   1.000  O
  O309     1.0000 0.49270  0.27700  0.55790  Biso   1.000  O
  C434     1.0000 0.50800  0.28330  0.63750  Biso   1.000  C
  O310     1.0000 0.49250  0.05800  0.72300  Biso   1.000  O
  H307     1.0000 0.56230  0.29540  0.61600  Biso   1.000  H
  H308     1.0000 0.53310  0.23000  0.62240  Biso   1.000  H
  H309     1.0000 0.48770  0.22700  0.62820  Biso   1.000  H
  H310     1.0000 0.48450  0.29770  0.63020  Biso   1.000  H
  O311     1.0000 0.51280  0.64630  0.13780  Biso   1.000  O
  O312     1.0000 0.47410  0.69500  0.23390  Biso   1.000  O
  C435     1.0000 0.58750  0.90010  0.14230  Biso   1.000  C
  H311     1.0000 0.57230  0.90700  0.16370  Biso   1.000  H
  C436     1.0000 0.50820  0.61720  0.25680  Biso   1.000  C
  H312     1.0000 0.53290  0.62280  0.26960  Biso   1.000  H
  H313     1.0000 0.48750  0.62840  0.27260  Biso   1.000  H
  N63      1.0000 0.54150  0.80620  0.12550  Biso   1.000  N
  O313     1.0000 0.50880  0.71360  0.05560  Biso   1.000  O
  C437     1.0000 0.57730  0.86720  0.12010  Biso   1.000  C
  C438     1.0000 0.57730  0.62050  0.13230  Biso   1.000  C
  O314     1.0000 0.47490  0.76620  0.19530  Biso   1.000  O
  C439     1.0000 0.54190  0.63170  0.15470  Biso   1.000  C
  N64      1.0000 0.54200  0.62540  0.19350  Biso   1.000  N
  H314     1.0000 0.56190  0.61460  0.20460  Biso   1.000  H
  C440     1.0000 0.50800  0.63700  0.21650  Biso   1.000  C
  H315     1.0000 0.48410  0.62960  0.20240  Biso   1.000  H
  C441     1.0000 0.50790  0.74340  0.11730  Biso   1.000  C
  C442     1.0000 0.59990  0.58750  0.14260  Biso   1.000  C
  H316     1.0000 0.59310  0.57260  0.16430  Biso   1.000  H
  C443     1.0000 0.50740  0.68100  0.22450  Biso   1.000  C
  O315     1.0000 0.51260  0.86210  0.14580  Biso   1.000  O
  C444     1.0000 0.50730  0.77550  0.18140  Biso   1.000  C
  C445     1.0000 0.50300  0.74550  0.07360  Biso   1.000  C
  C446     1.0000 0.54170  0.84530  0.13150  Biso   1.000  C
  O316     1.0000 0.53930  0.77580  0.19930  Biso   1.000  O
  C447     1.0000 0.50280  0.57350  0.25460  Biso   1.000  C
  O317     1.0000 0.50890  0.55600  0.28640  Biso   1.000  O
  O318     1.0000 0.53950  0.69921  0.22420  Biso   1.000  O
  O319     1.0000 0.49270  0.77700  0.05790  Biso   1.000  O
  C448     1.0000 0.50800  0.78330  0.13750  Biso   1.000  C
  O320     1.0000 0.49250  0.55800  0.22300  Biso   1.000  O
  H317     1.0000 0.56230  0.79540  0.11600  Biso   1.000  H
  H318     1.0000 0.53310  0.73000  0.12240  Biso   1.000  H
  H319     1.0000 0.48770  0.72700  0.12820  Biso   1.000  H
  H320     1.0000 0.48450  0.79770  0.13020  Biso   1.000  H
  O321     1.0000 0.86220  0.98720  0.14630  Biso   1.000  O
  O322     1.0000 0.76610  0.02590  0.19500  Biso   1.000  O
  C449     1.0000 0.85770  0.91250  0.40010  Biso   1.000  C
  H321     1.0000 0.83630  0.92770  0.40700  Biso   1.000  H
  C450     1.0000 0.74320  0.99180  0.11720  Biso   1.000  C
  H322     1.0000 0.73040  0.96710  0.12280  Biso   1.000  H
  H323     1.0000 0.72740  0.01250  0.12840  Biso   1.000  H
  N65      1.0000 0.87450  0.95850  0.30620  Biso   1.000  N
  O323     1.0000 0.94440  0.99120  0.21360  Biso   1.000  O
  C451     1.0000 0.87990  0.92270  0.36720  Biso   1.000  C
  C452     1.0000 0.86770  0.92270  0.12050  Biso   1.000  C
  O324     1.0000 0.80470  0.02510  0.26620  Biso   1.000  O
  C453     1.0000 0.84530  0.95810  0.13170  Biso   1.000  C
  N66      1.0000 0.80650  0.95800  0.12540  Biso   1.000  N
  H324     1.0000 0.79540  0.93810  0.11460  Biso   1.000  H
  C454     1.0000 0.78350  0.99200  0.13700  Biso   1.000  C
  H325     1.0000 0.79760  0.01590  0.12960  Biso   1.000  H
  C455     1.0000 0.88270  0.99210  0.24340  Biso   1.000  C
  C456     1.0000 0.85740  0.90010  0.08750  Biso   1.000  C
  H326     1.0000 0.83570  0.90690  0.07260  Biso   1.000  H
  C457     1.0000 0.77550  0.99260  0.18100  Biso   1.000  C
  O325     1.0000 0.85420  0.98740  0.36210  Biso   1.000  O
  C458     1.0000 0.81860  0.99270  0.27550  Biso   1.000  C
  C459     1.0000 0.92640  0.99700  0.24550  Biso   1.000  C
  C460     1.0000 0.86850  0.95830  0.34530  Biso   1.000  C
  O326     1.0000 0.80070  0.96070  0.27580  Biso   1.000  O
  C461     1.0000 0.74540  0.99720  0.07350  Biso   1.000  C
  O327     1.0000 0.71360  0.99110  0.05600  Biso   1.000  O
  O328     1.0000 0.77580  0.96050  0.19921  Biso   1.000  O
  O329     1.0000 0.94210  0.00730  0.27700  Biso   1.000  O
  C462     1.0000 0.86250  0.99200  0.28330  Biso   1.000  C
  O330     1.0000 0.77700  0.00750  0.05800  Biso   1.000  O
  H327     1.0000 0.88400  0.93770  0.29540  Biso   1.000  H
  H328     1.0000 0.87760  0.96690  0.23000  Biso   1.000  H
  H329     1.0000 0.87180  0.01230  0.22700  Biso   1.000  H
  H330     1.0000 0.86980  0.01550  0.29770  Biso   1.000  H
  O331     1.0000 0.86220  0.48720  0.64630  Biso   1.000  O
  O332     1.0000 0.76610  0.52590  0.69500  Biso   1.000  O
  C463     1.0000 0.85770  0.41250  0.90010  Biso   1.000  C
  H331     1.0000 0.83630  0.42770  0.90700  Biso   1.000  H
  C464     1.0000 0.74320  0.49180  0.61720  Biso   1.000  C
  H332     1.0000 0.73040  0.46710  0.62280  Biso   1.000  H
  H333     1.0000 0.72740  0.51250  0.62840  Biso   1.000  H
  N67      1.0000 0.87450  0.45850  0.80620  Biso   1.000  N
  O333     1.0000 0.94440  0.49120  0.71360  Biso   1.000  O
  C465     1.0000 0.87990  0.42270  0.86720  Biso   1.000  C
  C466     1.0000 0.86770  0.42270  0.62050  Biso   1.000  C
  O334     1.0000 0.80470  0.52510  0.76620  Biso   1.000  O
  C467     1.0000 0.84530  0.45810  0.63170  Biso   1.000  C
  N68      1.0000 0.80650  0.45800  0.62540  Biso   1.000  N
  H334     1.0000 0.79540  0.43810  0.61460  Biso   1.000  H
  C468     1.0000 0.78350  0.49200  0.63700  Biso   1.000  C
  H335     1.0000 0.79760  0.51590  0.62960  Biso   1.000  H
  C469     1.0000 0.88270  0.49210  0.74340  Biso   1.000  C
  C470     1.0000 0.85740  0.40010  0.58750  Biso   1.000  C
  H336     1.0000 0.83570  0.40690  0.57260  Biso   1.000  H
  C471     1.0000 0.77550  0.49260  0.68100  Biso   1.000  C
  O335     1.0000 0.85420  0.48740  0.86210  Biso   1.000  O
  C472     1.0000 0.81860  0.49270  0.77550  Biso   1.000  C
  C473     1.0000 0.92640  0.49700  0.74550  Biso   1.000  C
  C474     1.0000 0.86850  0.45830  0.84530  Biso   1.000  C
  O336     1.0000 0.80070  0.46070  0.77580  Biso   1.000  O
  C475     1.0000 0.74540  0.49720  0.57350  Biso   1.000  C
  O337     1.0000 0.71360  0.49110  0.55600  Biso   1.000  O
  O338     1.0000 0.77580  0.46050  0.69921  Biso   1.000  O
  O339     1.0000 0.94210  0.50730  0.77700  Biso   1.000  O
  C476     1.0000 0.86250  0.49200  0.78330  Biso   1.000  C
  O340     1.0000 0.77700  0.50750  0.55800  Biso   1.000  O
  H337     1.0000 0.88400  0.43770  0.79540  Biso   1.000  H
  H338     1.0000 0.87760  0.46690  0.73000  Biso   1.000  H
  H339     1.0000 0.87180  0.51230  0.72700  Biso   1.000  H
  H340     1.0000 0.86980  0.51550  0.79770  Biso   1.000  H
  O341     1.0000 0.36220  0.98720  0.64630  Biso   1.000  O
  O342     1.0000 0.26610  0.02590  0.69500  Biso   1.000  O
  C477     1.0000 0.35770  0.91250  0.90010  Biso   1.000  C
  H341     1.0000 0.33630  0.92770  0.90700  Biso   1.000  H
  C478     1.0000 0.24320  0.99180  0.61720  Biso   1.000  C
  H342     1.0000 0.23040  0.96710  0.62280  Biso   1.000  H
  H343     1.0000 0.22740  0.01250  0.62840  Biso   1.000  H
  N69      1.0000 0.37450  0.95850  0.80620  Biso   1.000  N
  O343     1.0000 0.44440  0.99120  0.71360  Biso   1.000  O
  C479     1.0000 0.37990  0.92270  0.86720  Biso   1.000  C
  C480     1.0000 0.36770  0.92270  0.62050  Biso   1.000  C
  O344     1.0000 0.30470  0.02510  0.76620  Biso   1.000  O
  C481     1.0000 0.34530  0.95810  0.63170  Biso   1.000  C
  N70      1.0000 0.30650  0.95800  0.62540  Biso   1.000  N
  H344     1.0000 0.29540  0.93810  0.61460  Biso   1.000  H
  C482     1.0000 0.28350  0.99200  0.63700  Biso   1.000  C
  H345     1.0000 0.29760  0.01590  0.62960  Biso   1.000  H
  C483     1.0000 0.38270  0.99210  0.74340  Biso   1.000  C
  C484     1.0000 0.35740  0.90010  0.58750  Biso   1.000  C
  H346     1.0000 0.33570  0.90690  0.57260  Biso   1.000  H
  C485     1.0000 0.27550  0.99260  0.68100  Biso   1.000  C
  O345     1.0000 0.35420  0.98740  0.86210  Biso   1.000  O
  C486     1.0000 0.31860  0.99270  0.77550  Biso   1.000  C
  C487     1.0000 0.42640  0.99700  0.74550  Biso   1.000  C
  C488     1.0000 0.36850  0.95830  0.84530  Biso   1.000  C
  O346     1.0000 0.30070  0.96070  0.77580  Biso   1.000  O
  C489     1.0000 0.24540  0.99720  0.57350  Biso   1.000  C
  O347     1.0000 0.21360  0.99110  0.55600  Biso   1.000  O
  O348     1.0000 0.27580  0.96050  0.69921  Biso   1.000  O
  O349     1.0000 0.44210  0.00730  0.77700  Biso   1.000  O
  C490     1.0000 0.36250  0.99200  0.78330  Biso   1.000  C
  O350     1.0000 0.27700  0.00750  0.55800  Biso   1.000  O
  H347     1.0000 0.38400  0.93770  0.79540  Biso   1.000  H
  H348     1.0000 0.37760  0.96690  0.73000  Biso   1.000  H
  H349     1.0000 0.37180  0.01230  0.72700  Biso   1.000  H
  H350     1.0000 0.36980  0.01550  0.79770  Biso   1.000  H
  O351     1.0000 0.36220  0.48720  0.14630  Biso   1.000  O
  O352     1.0000 0.26610  0.52590  0.19500  Biso   1.000  O
  C491     1.0000 0.35770  0.41250  0.40010  Biso   1.000  C
  H351     1.0000 0.33630  0.42770  0.40700  Biso   1.000  H
  C492     1.0000 0.24320  0.49180  0.11720  Biso   1.000  C
  H352     1.0000 0.23040  0.46710  0.12280  Biso   1.000  H
  H353     1.0000 0.22740  0.51250  0.12840  Biso   1.000  H
  N71      1.0000 0.37450  0.45850  0.30620  Biso   1.000  N
  O353     1.0000 0.44440  0.49120  0.21360  Biso   1.000  O
  C493     1.0000 0.37990  0.42270  0.36720  Biso   1.000  C
  C494     1.0000 0.36770  0.42270  0.12050  Biso   1.000  C
  O354     1.0000 0.30470  0.52510  0.26620  Biso   1.000  O
  C495     1.0000 0.34530  0.45810  0.13170  Biso   1.000  C
  N72      1.0000 0.30650  0.45800  0.12540  Biso   1.000  N
  H354     1.0000 0.29540  0.43810  0.11460  Biso   1.000  H
  C496     1.0000 0.28350  0.49200  0.13700  Biso   1.000  C
  H355     1.0000 0.29760  0.51590  0.12960  Biso   1.000  H
  C497     1.0000 0.38270  0.49210  0.24340  Biso   1.000  C
  C498     1.0000 0.35740  0.40010  0.08750  Biso   1.000  C
  H356     1.0000 0.33570  0.40690  0.07260  Biso   1.000  H
  C499     1.0000 0.27550  0.49260  0.18100  Biso   1.000  C
  O355     1.0000 0.35420  0.48740  0.36210  Biso   1.000  O
  C500     1.0000 0.31860  0.49270  0.27550  Biso   1.000  C
  C501     1.0000 0.42640  0.49700  0.24550  Biso   1.000  C
  C502     1.0000 0.36850  0.45830  0.34530  Biso   1.000  C
  O356     1.0000 0.30070  0.46070  0.27580  Biso   1.000  O
  C503     1.0000 0.24540  0.49720  0.07350  Biso   1.000  C
  O357     1.0000 0.21360  0.49110  0.05600  Biso   1.000  O
  O358     1.0000 0.27580  0.46050  0.19921  Biso   1.000  O
  O359     1.0000 0.44210  0.50730  0.27700  Biso   1.000  O
  C504     1.0000 0.36250  0.49200  0.28330  Biso   1.000  C
  O360     1.0000 0.27700  0.50750  0.05800  Biso   1.000  O
  H357     1.0000 0.38400  0.43770  0.29540  Biso   1.000  H
  H358     1.0000 0.37760  0.46690  0.23000  Biso   1.000  H
  H359     1.0000 0.37180  0.51230  0.22700  Biso   1.000  H
  H360     1.0000 0.36980  0.51550  0.29770  Biso   1.000  H
  O361     1.0000 0.13780  0.98720  0.85370  Biso   1.000  O
  O362     1.0000 0.23390  0.02590  0.80500  Biso   1.000  O
  C505     1.0000 0.14230  0.91250  0.59990  Biso   1.000  C
  H361     1.0000 0.16370  0.92770  0.59300  Biso   1.000  H
  C506     1.0000 0.25680  0.99180  0.88280  Biso   1.000  C
  H362     1.0000 0.26960  0.96710  0.87720  Biso   1.000  H
  H363     1.0000 0.27260  0.01250  0.87160  Biso   1.000  H
  N73      1.0000 0.12550  0.95850  0.69380  Biso   1.000  N
  O363     1.0000 0.05560  0.99120  0.78640  Biso   1.000  O
  C507     1.0000 0.12010  0.92270  0.63280  Biso   1.000  C
  C508     1.0000 0.13230  0.92270  0.87950  Biso   1.000  C
  O364     1.0000 0.19530  0.02510  0.73380  Biso   1.000  O
  C509     1.0000 0.15470  0.95810  0.86830  Biso   1.000  C
  N74      1.0000 0.19350  0.95800  0.87460  Biso   1.000  N
  H364     1.0000 0.20460  0.93810  0.88540  Biso   1.000  H
  C510     1.0000 0.21650  0.99200  0.86300  Biso   1.000  C
  H365     1.0000 0.20240  0.01590  0.87040  Biso   1.000  H
  C511     1.0000 0.11730  0.99210  0.75660  Biso   1.000  C
  C512     1.0000 0.14260  0.90010  0.91250  Biso   1.000  C
  H366     1.0000 0.16430  0.90690  0.92740  Biso   1.000  H
  C513     1.0000 0.22450  0.99260  0.81900  Biso   1.000  C
  O365     1.0000 0.14580  0.98740  0.63790  Biso   1.000  O
  C514     1.0000 0.18140  0.99270  0.72450  Biso   1.000  C
  C515     1.0000 0.07360  0.99700  0.75450  Biso   1.000  C
  C516     1.0000 0.13150  0.95830  0.65470  Biso   1.000  C
  O366     1.0000 0.19930  0.96070  0.72420  Biso   1.000  O
  C517     1.0000 0.25460  0.99720  0.92650  Biso   1.000  C
  O367     1.0000 0.28640  0.99110  0.94400  Biso   1.000  O
  O368     1.0000 0.22420  0.96050  0.80079  Biso   1.000  O
  O369     1.0000 0.05790  0.00730  0.72300  Biso   1.000  O
  C518     1.0000 0.13750  0.99200  0.71670  Biso   1.000  C
  O370     1.0000 0.22300  0.00750  0.94200  Biso   1.000  O
  H367     1.0000 0.11600  0.93770  0.70460  Biso   1.000  H
  H368     1.0000 0.12240  0.96690  0.77000  Biso   1.000  H
  H369     1.0000 0.12820  0.01230  0.77300  Biso   1.000  H
  H370     1.0000 0.13020  0.01550  0.70230  Biso   1.000  H
  O371     1.0000 0.13780  0.48720  0.35370  Biso   1.000  O
  O372     1.0000 0.23390  0.52590  0.30500  Biso   1.000  O
  C519     1.0000 0.14230  0.41250  0.09990  Biso   1.000  C
  H371     1.0000 0.16370  0.42770  0.09300  Biso   1.000  H
  C520     1.0000 0.25680  0.49180  0.38280  Biso   1.000  C
  H372     1.0000 0.26960  0.46710  0.37720  Biso   1.000  H
  H373     1.0000 0.27260  0.51250  0.37160  Biso   1.000  H
  N75      1.0000 0.12550  0.45850  0.19380  Biso   1.000  N
  O373     1.0000 0.05560  0.49120  0.28640  Biso   1.000  O
  C521     1.0000 0.12010  0.42270  0.13280  Biso   1.000  C
  C522     1.0000 0.13230  0.42270  0.37950  Biso   1.000  C
  O374     1.0000 0.19530  0.52510  0.23380  Biso   1.000  O
  C523     1.0000 0.15470  0.45810  0.36830  Biso   1.000  C
  N76      1.0000 0.19350  0.45800  0.37460  Biso   1.000  N
  H374     1.0000 0.20460  0.43810  0.38540  Biso   1.000  H
  C524     1.0000 0.21650  0.49200  0.36300  Biso   1.000  C
  H375     1.0000 0.20240  0.51590  0.37040  Biso   1.000  H
  C525     1.0000 0.11730  0.49210  0.25660  Biso   1.000  C
  C526     1.0000 0.14260  0.40010  0.41250  Biso   1.000  C
  H376     1.0000 0.16430  0.40690  0.42740  Biso   1.000  H
  C527     1.0000 0.22450  0.49260  0.31900  Biso   1.000  C
  O375     1.0000 0.14580  0.48740  0.13790  Biso   1.000  O
  C528     1.0000 0.18140  0.49270  0.22450  Biso   1.000  C
  C529     1.0000 0.07360  0.49700  0.25450  Biso   1.000  C
  C530     1.0000 0.13150  0.45830  0.15470  Biso   1.000  C
  O376     1.0000 0.19930  0.46070  0.22420  Biso   1.000  O
  C531     1.0000 0.25460  0.49720  0.42650  Biso   1.000  C
  O377     1.0000 0.28640  0.49110  0.44400  Biso   1.000  O
  O378     1.0000 0.22420  0.46050  0.30079  Biso   1.000  O
  O379     1.0000 0.05790  0.50730  0.22300  Biso   1.000  O
  C532     1.0000 0.13750  0.49200  0.21670  Biso   1.000  C
  O380     1.0000 0.22300  0.50750  0.44200  Biso   1.000  O
  H377     1.0000 0.11600  0.43770  0.20460  Biso   1.000  H
  H378     1.0000 0.12240  0.46690  0.27000  Biso   1.000  H
  H379     1.0000 0.12820  0.51230  0.27300  Biso   1.000  H
  H380     1.0000 0.13020  0.51550  0.20230  Biso   1.000  H
  O381     1.0000 0.63780  0.98720  0.35370  Biso   1.000  O
  O382     1.0000 0.73390  0.02590  0.30500  Biso   1.000  O
  C533     1.0000 0.64230  0.91250  0.09990  Biso   1.000  C
  H381     1.0000 0.66370  0.92770  0.09300  Biso   1.000  H
  C534     1.0000 0.75680  0.99180  0.38280  Biso   1.000  C
  H382     1.0000 0.76960  0.96710  0.37720  Biso   1.000  H
  H383     1.0000 0.77260  0.01250  0.37160  Biso   1.000  H
  N77      1.0000 0.62550  0.95850  0.19380  Biso   1.000  N
  O383     1.0000 0.55560  0.99120  0.28640  Biso   1.000  O
  C535     1.0000 0.62010  0.92270  0.13280  Biso   1.000  C
  C536     1.0000 0.63230  0.92270  0.37950  Biso   1.000  C
  O384     1.0000 0.69530  0.02510  0.23380  Biso   1.000  O
  C537     1.0000 0.65470  0.95810  0.36830  Biso   1.000  C
  N78      1.0000 0.69350  0.95800  0.37460  Biso   1.000  N
  H384     1.0000 0.70460  0.93810  0.38540  Biso   1.000  H
  C538     1.0000 0.71650  0.99200  0.36300  Biso   1.000  C
  H385     1.0000 0.70240  0.01590  0.37040  Biso   1.000  H
  C539     1.0000 0.61730  0.99210  0.25660  Biso   1.000  C
  C540     1.0000 0.64260  0.90010  0.41250  Biso   1.000  C
  H386     1.0000 0.66430  0.90690  0.42740  Biso   1.000  H
  C541     1.0000 0.72450  0.99260  0.31900  Biso   1.000  C
  O385     1.0000 0.64580  0.98740  0.13790  Biso   1.000  O
  C542     1.0000 0.68140  0.99270  0.22450  Biso   1.000  C
  C543     1.0000 0.57360  0.99700  0.25450  Biso   1.000  C
  C544     1.0000 0.63150  0.95830  0.15470  Biso   1.000  C
  O386     1.0000 0.69930  0.96070  0.22420  Biso   1.000  O
  C545     1.0000 0.75460  0.99720  0.42650  Biso   1.000  C
  O387     1.0000 0.78640  0.99110  0.44400  Biso   1.000  O
  O388     1.0000 0.72420  0.96050  0.30079  Biso   1.000  O
  O389     1.0000 0.55790  0.00730  0.22300  Biso   1.000  O
  C546     1.0000 0.63750  0.99200  0.21670  Biso   1.000  C
  O390     1.0000 0.72300  0.00750  0.44200  Biso   1.000  O
  H387     1.0000 0.61600  0.93770  0.20460  Biso   1.000  H
  H388     1.0000 0.62240  0.96690  0.27000  Biso   1.000  H
  H389     1.0000 0.62820  0.01230  0.27300  Biso   1.000  H
  H390     1.0000 0.63020  0.01550  0.20230  Biso   1.000  H
  O391     1.0000 0.63780  0.48720  0.85370  Biso   1.000  O
  O392     1.0000 0.73390  0.52590  0.80500  Biso   1.000  O
  C547     1.0000 0.64230  0.41250  0.59990  Biso   1.000  C
  H391     1.0000 0.66370  0.42770  0.59300  Biso   1.000  H
  C548     1.0000 0.75680  0.49180  0.88280  Biso   1.000  C
  H392     1.0000 0.76960  0.46710  0.87720  Biso   1.000  H
  H393     1.0000 0.77260  0.51250  0.87160  Biso   1.000  H
  N79      1.0000 0.62550  0.45850  0.69380  Biso   1.000  N
  O393     1.0000 0.55560  0.49120  0.78640  Biso   1.000  O
  C549     1.0000 0.62010  0.42270  0.63280  Biso   1.000  C
  C550     1.0000 0.63230  0.42270  0.87950  Biso   1.000  C
  O394     1.0000 0.69530  0.52510  0.73380  Biso   1.000  O
  C551     1.0000 0.65470  0.45810  0.86830  Biso   1.000  C
  N80      1.0000 0.69350  0.45800  0.87460  Biso   1.000  N
  H394     1.0000 0.70460  0.43810  0.88540  Biso   1.000  H
  C552     1.0000 0.71650  0.49200  0.86300  Biso   1.000  C
  H395     1.0000 0.70240  0.51590  0.87040  Biso   1.000  H
  C553     1.0000 0.61730  0.49210  0.75660  Biso   1.000  C
  C554     1.0000 0.64260  0.40010  0.91250  Biso   1.000  C
  H396     1.0000 0.66430  0.40690  0.92740  Biso   1.000  H
  C555     1.0000 0.72450  0.49260  0.81900  Biso   1.000  C
  O395     1.0000 0.64580  0.48740  0.63790  Biso   1.000  O
  C556     1.0000 0.68140  0.49270  0.72450  Biso   1.000  C
  C557     1.0000 0.57360  0.49700  0.75450  Biso   1.000  C
  C558     1.0000 0.63150  0.45830  0.65470  Biso   1.000  C
  O396     1.0000 0.69930  0.46070  0.72420  Biso   1.000  O
  C559     1.0000 0.75460  0.49720  0.92650  Biso   1.000  C
  O397     1.0000 0.78640  0.49110  0.94400  Biso   1.000  O
  O398     1.0000 0.72420  0.46050  0.80079  Biso   1.000  O
  O399     1.0000 0.55790  0.50730  0.72300  Biso   1.000  O
  C560     1.0000 0.63750  0.49200  0.71670  Biso   1.000  C
  O400     1.0000 0.72300  0.50750  0.94200  Biso   1.000  O
  H397     1.0000 0.61600  0.43770  0.70460  Biso   1.000  H
  H398     1.0000 0.62240  0.46690  0.77000  Biso   1.000  H
  H399     1.0000 0.62820  0.51230  0.77300  Biso   1.000  H
  H400     1.0000 0.63020  0.51550  0.70230  Biso   1.000  H
  O401     1.0000 0.86220  0.01280  0.85370  Biso   1.000  O
  O402     1.0000 0.76610  0.97410  0.80500  Biso   1.000  O
  C561     1.0000 0.85770  0.08750  0.59990  Biso   1.000  C
  H401     1.0000 0.83630  0.07230  0.59300  Biso   1.000  H
  C562     1.0000 0.74320  0.00820  0.88280  Biso   1.000  C
  H402     1.0000 0.73040  0.03290  0.87720  Biso   1.000  H
  H403     1.0000 0.72740  0.98750  0.87160  Biso   1.000  H
  N81      1.0000 0.87450  0.04150  0.69380  Biso   1.000  N
  O403     1.0000 0.94440  0.00880  0.78640  Biso   1.000  O
  C563     1.0000 0.87990  0.07730  0.63280  Biso   1.000  C
  C564     1.0000 0.86770  0.07730  0.87950  Biso   1.000  C
  O404     1.0000 0.80470  0.97490  0.73380  Biso   1.000  O
  C565     1.0000 0.84530  0.04190  0.86830  Biso   1.000  C
  N82      1.0000 0.80650  0.04200  0.87460  Biso   1.000  N
  H404     1.0000 0.79540  0.06190  0.88540  Biso   1.000  H
  C566     1.0000 0.78350  0.00800  0.86300  Biso   1.000  C
  H405     1.0000 0.79760  0.98410  0.87040  Biso   1.000  H
  C567     1.0000 0.88270  0.00790  0.75660  Biso   1.000  C
  C568     1.0000 0.85740  0.09990  0.91250  Biso   1.000  C
  H406     1.0000 0.83570  0.09310  0.92740  Biso   1.000  H
  C569     1.0000 0.77550  0.00740  0.81900  Biso   1.000  C
  O405     1.0000 0.85420  0.01260  0.63790  Biso   1.000  O
  C570     1.0000 0.81860  0.00730  0.72450  Biso   1.000  C
  C571     1.0000 0.92640  0.00300  0.75450  Biso   1.000  C
  C572     1.0000 0.86850  0.04170  0.65470  Biso   1.000  C
  O406     1.0000 0.80070  0.03930  0.72420  Biso   1.000  O
  C573     1.0000 0.74540  0.00280  0.92650  Biso   1.000  C
  O407     1.0000 0.71360  0.00890  0.94400  Biso   1.000  O
  O408     1.0000 0.77580  0.03950  0.80079  Biso   1.000  O
  O409     1.0000 0.94210  0.99270  0.72300  Biso   1.000  O
  C574     1.0000 0.86250  0.00800  0.71670  Biso   1.000  C
  O410     1.0000 0.77700  0.99250  0.94200  Biso   1.000  O
  H407     1.0000 0.88400  0.06230  0.70460  Biso   1.000  H
  H408     1.0000 0.87760  0.03310  0.77000  Biso   1.000  H
  H409     1.0000 0.87180  0.98770  0.77300  Biso   1.000  H
  H410     1.0000 0.86980  0.98450  0.70230  Biso   1.000  H
  O411     1.0000 0.86220  0.51280  0.35370  Biso   1.000  O
  O412     1.0000 0.76610  0.47410  0.30500  Biso   1.000  O
  C575     1.0000 0.85770  0.58750  0.09990  Biso   1.000  C
  H411     1.0000 0.83630  0.57230  0.09300  Biso   1.000  H
  C576     1.0000 0.74320  0.50820  0.38280  Biso   1.000  C
  H412     1.0000 0.73040  0.53290  0.37720  Biso   1.000  H
  H413     1.0000 0.72740  0.48750  0.37160  Biso   1.000  H
  N83      1.0000 0.87450  0.54150  0.19380  Biso   1.000  N
  O413     1.0000 0.94440  0.50880  0.28640  Biso   1.000  O
  C577     1.0000 0.87990  0.57730  0.13280  Biso   1.000  C
  C578     1.0000 0.86770  0.57730  0.37950  Biso   1.000  C
  O414     1.0000 0.80470  0.47490  0.23380  Biso   1.000  O
  C579     1.0000 0.84530  0.54190  0.36830  Biso   1.000  C
  N84      1.0000 0.80650  0.54200  0.37460  Biso   1.000  N
  H414     1.0000 0.79540  0.56190  0.38540  Biso   1.000  H
  C580     1.0000 0.78350  0.50800  0.36300  Biso   1.000  C
  H415     1.0000 0.79760  0.48410  0.37040  Biso   1.000  H
  C581     1.0000 0.88270  0.50790  0.25660  Biso   1.000  C
  C582     1.0000 0.85740  0.59990  0.41250  Biso   1.000  C
  H416     1.0000 0.83570  0.59310  0.42740  Biso   1.000  H
  C583     1.0000 0.77550  0.50740  0.31900  Biso   1.000  C
  O415     1.0000 0.85420  0.51260  0.13790  Biso   1.000  O
  C584     1.0000 0.81860  0.50730  0.22450  Biso   1.000  C
  C585     1.0000 0.92640  0.50300  0.25450  Biso   1.000  C
  C586     1.0000 0.86850  0.54170  0.15470  Biso   1.000  C
  O416     1.0000 0.80070  0.53930  0.22420  Biso   1.000  O
  C587     1.0000 0.74540  0.50280  0.42650  Biso   1.000  C
  O417     1.0000 0.71360  0.50890  0.44400  Biso   1.000  O
  O418     1.0000 0.77580  0.53950  0.30079  Biso   1.000  O
  O419     1.0000 0.94210  0.49270  0.22300  Biso   1.000  O
  C588     1.0000 0.86250  0.50800  0.21670  Biso   1.000  C
  O420     1.0000 0.77700  0.49250  0.44200  Biso   1.000  O
  H417     1.0000 0.88400  0.56230  0.20460  Biso   1.000  H
  H418     1.0000 0.87760  0.53310  0.27000  Biso   1.000  H
  H419     1.0000 0.87180  0.48770  0.27300  Biso   1.000  H
  H420     1.0000 0.86980  0.48450  0.20230  Biso   1.000  H
  O421     1.0000 0.36220  0.01280  0.35370  Biso   1.000  O
  O422     1.0000 0.26610  0.97410  0.30500  Biso   1.000  O
  C589     1.0000 0.35770  0.08750  0.09990  Biso   1.000  C
  H421     1.0000 0.33630  0.07230  0.09300  Biso   1.000  H
  C590     1.0000 0.24320  0.00820  0.38280  Biso   1.000  C
  H422     1.0000 0.23040  0.03290  0.37720  Biso   1.000  H
  H423     1.0000 0.22740  0.98750  0.37160  Biso   1.000  H
  N85      1.0000 0.37450  0.04150  0.19380  Biso   1.000  N
  O423     1.0000 0.44440  0.00880  0.28640  Biso   1.000  O
  C591     1.0000 0.37990  0.07730  0.13280  Biso   1.000  C
  C592     1.0000 0.36770  0.07730  0.37950  Biso   1.000  C
  O424     1.0000 0.30470  0.97490  0.23380  Biso   1.000  O
  C593     1.0000 0.34530  0.04190  0.36830  Biso   1.000  C
  N86      1.0000 0.30650  0.04200  0.37460  Biso   1.000  N
  H424     1.0000 0.29540  0.06190  0.38540  Biso   1.000  H
  C594     1.0000 0.28350  0.00800  0.36300  Biso   1.000  C
  H425     1.0000 0.29760  0.98410  0.37040  Biso   1.000  H
  C595     1.0000 0.38270  0.00790  0.25660  Biso   1.000  C
  C596     1.0000 0.35740  0.09990  0.41250  Biso   1.000  C
  H426     1.0000 0.33570  0.09310  0.42740  Biso   1.000  H
  C597     1.0000 0.27550  0.00740  0.31900  Biso   1.000  C
  O425     1.0000 0.35420  0.01260  0.13790  Biso   1.000  O
  C598     1.0000 0.31860  0.00730  0.22450  Biso   1.000  C
  C599     1.0000 0.42640  0.00300  0.25450  Biso   1.000  C
  C600     1.0000 0.36850  0.04170  0.15470  Biso   1.000  C
  O426     1.0000 0.30070  0.03930  0.22420  Biso   1.000  O
  C601     1.0000 0.24540  0.00280  0.42650  Biso   1.000  C
  O427     1.0000 0.21360  0.00890  0.44400  Biso   1.000  O
  O428     1.0000 0.27580  0.03950  0.30079  Biso   1.000  O
  O429     1.0000 0.44210  0.99270  0.22300  Biso   1.000  O
  C602     1.0000 0.36250  0.00800  0.21670  Biso   1.000  C
  O430     1.0000 0.27700  0.99250  0.44200  Biso   1.000  O
  H427     1.0000 0.38400  0.06230  0.20460  Biso   1.000  H
  H428     1.0000 0.37760  0.03310  0.27000  Biso   1.000  H
  H429     1.0000 0.37180  0.98770  0.27300  Biso   1.000  H
  H430     1.0000 0.36980  0.98450  0.20230  Biso   1.000  H
  O431     1.0000 0.36220  0.51280  0.85370  Biso   1.000  O
  O432     1.0000 0.26610  0.47410  0.80500  Biso   1.000  O
  C603     1.0000 0.35770  0.58750  0.59990  Biso   1.000  C
  H431     1.0000 0.33630  0.57230  0.59300  Biso   1.000  H
  C604     1.0000 0.24320  0.50820  0.88280  Biso   1.000  C
  H432     1.0000 0.23040  0.53290  0.87720  Biso   1.000  H
  H433     1.0000 0.22740  0.48750  0.87160  Biso   1.000  H
  N87      1.0000 0.37450  0.54150  0.69380  Biso   1.000  N
  O433     1.0000 0.44440  0.50880  0.78640  Biso   1.000  O
  C605     1.0000 0.37990  0.57730  0.63280  Biso   1.000  C
  C606     1.0000 0.36770  0.57730  0.87950  Biso   1.000  C
  O434     1.0000 0.30470  0.47490  0.73380  Biso   1.000  O
  C607     1.0000 0.34530  0.54190  0.86830  Biso   1.000  C
  N88      1.0000 0.30650  0.54200  0.87460  Biso   1.000  N
  H434     1.0000 0.29540  0.56190  0.88540  Biso   1.000  H
  C608     1.0000 0.28350  0.50800  0.86300  Biso   1.000  C
  H435     1.0000 0.29760  0.48410  0.87040  Biso   1.000  H
  C609     1.0000 0.38270  0.50790  0.75660  Biso   1.000  C
  C610     1.0000 0.35740  0.59990  0.91250  Biso   1.000  C
  H436     1.0000 0.33570  0.59310  0.92740  Biso   1.000  H
  C611     1.0000 0.27550  0.50740  0.81900  Biso   1.000  C
  O435     1.0000 0.35420  0.51260  0.63790  Biso   1.000  O
  C612     1.0000 0.31860  0.50730  0.72450  Biso   1.000  C
  C613     1.0000 0.42640  0.50300  0.75450  Biso   1.000  C
  C614     1.0000 0.36850  0.54170  0.65470  Biso   1.000  C
  O436     1.0000 0.30070  0.53930  0.72420  Biso   1.000  O
  C615     1.0000 0.24540  0.50280  0.92650  Biso   1.000  C
  O437     1.0000 0.21360  0.50890  0.94400  Biso   1.000  O
  O438     1.0000 0.27580  0.53950  0.80079  Biso   1.000  O
  O439     1.0000 0.44210  0.49270  0.72300  Biso   1.000  O
  C616     1.0000 0.36250  0.50800  0.71670  Biso   1.000  C
  O440     1.0000 0.27700  0.49250  0.94200  Biso   1.000  O
  H437     1.0000 0.38400  0.56230  0.70460  Biso   1.000  H
  H438     1.0000 0.37760  0.53310  0.77000  Biso   1.000  H
  H439     1.0000 0.37180  0.48770  0.77300  Biso   1.000  H
  H440     1.0000 0.36980  0.48450  0.70230  Biso   1.000  H
  O441     1.0000 0.13780  0.01280  0.14630  Biso   1.000  O
  O442     1.0000 0.23390  0.97410  0.19500  Biso   1.000  O
  C617     1.0000 0.14230  0.08750  0.40010  Biso   1.000  C
  H441     1.0000 0.16370  0.07230  0.40700  Biso   1.000  H
  C618     1.0000 0.25680  0.00820  0.11720  Biso   1.000  C
  H442     1.0000 0.26960  0.03290  0.12280  Biso   1.000  H
  H443     1.0000 0.27260  0.98750  0.12840  Biso   1.000  H
  N89      1.0000 0.12550  0.04150  0.30620  Biso   1.000  N
  O443     1.0000 0.05560  0.00880  0.21360  Biso   1.000  O
  C619     1.0000 0.12010  0.07730  0.36720  Biso   1.000  C
  C620     1.0000 0.13230  0.07730  0.12050  Biso   1.000  C
  O444     1.0000 0.19530  0.97490  0.26620  Biso   1.000  O
  C621     1.0000 0.15470  0.04190  0.13170  Biso   1.000  C
  N90      1.0000 0.19350  0.04200  0.12540  Biso   1.000  N
  H444     1.0000 0.20460  0.06190  0.11460  Biso   1.000  H
  C622     1.0000 0.21650  0.00800  0.13700  Biso   1.000  C
  H445     1.0000 0.20240  0.98410  0.12960  Biso   1.000  H
  C623     1.0000 0.11730  0.00790  0.24340  Biso   1.000  C
  C624     1.0000 0.14260  0.09990  0.08750  Biso   1.000  C
  H446     1.0000 0.16430  0.09310  0.07260  Biso   1.000  H
  C625     1.0000 0.22450  0.00740  0.18100  Biso   1.000  C
  O445     1.0000 0.14580  0.01260  0.36210  Biso   1.000  O
  C626     1.0000 0.18140  0.00730  0.27550  Biso   1.000  C
  C627     1.0000 0.07360  0.00300  0.24550  Biso   1.000  C
  C628     1.0000 0.13150  0.04170  0.34530  Biso   1.000  C
  O446     1.0000 0.19930  0.03930  0.27580  Biso   1.000  O
  C629     1.0000 0.25460  0.00280  0.07350  Biso   1.000  C
  O447     1.0000 0.28640  0.00890  0.05600  Biso   1.000  O
  O448     1.0000 0.22420  0.03950  0.19921  Biso   1.000  O
  O449     1.0000 0.05790  0.99270  0.27700  Biso   1.000  O
  C630     1.0000 0.13750  0.00800  0.28330  Biso   1.000  C
  O450     1.0000 0.22300  0.99250  0.05800  Biso   1.000  O
  H447     1.0000 0.11600  0.06230  0.29540  Biso   1.000  H
  H448     1.0000 0.12240  0.03310  0.23000  Biso   1.000  H
  H449     1.0000 0.12820  0.98770  0.22700  Biso   1.000  H
  H450     1.0000 0.13020  0.98450  0.29770  Biso   1.000  H
  O451     1.0000 0.13780  0.51280  0.64630  Biso   1.000  O
  O452     1.0000 0.23390  0.47410  0.69500  Biso   1.000  O
  C631     1.0000 0.14230  0.58750  0.90010  Biso   1.000  C
  H451     1.0000 0.16370  0.57230  0.90700  Biso   1.000  H
  C632     1.0000 0.25680  0.50820  0.61720  Biso   1.000  C
  H452     1.0000 0.26960  0.53290  0.62280  Biso   1.000  H
  H453     1.0000 0.27260  0.48750  0.62840  Biso   1.000  H
  N91      1.0000 0.12550  0.54150  0.80620  Biso   1.000  N
  O453     1.0000 0.05560  0.50880  0.71360  Biso   1.000  O
  C633     1.0000 0.12010  0.57730  0.86720  Biso   1.000  C
  C634     1.0000 0.13230  0.57730  0.62050  Biso   1.000  C
  O454     1.0000 0.19530  0.47490  0.76620  Biso   1.000  O
  C635     1.0000 0.15470  0.54190  0.63170  Biso   1.000  C
  N92      1.0000 0.19350  0.54200  0.62540  Biso   1.000  N
  H454     1.0000 0.20460  0.56190  0.61460  Biso   1.000  H
  C636     1.0000 0.21650  0.50800  0.63700  Biso   1.000  C
  H455     1.0000 0.20240  0.48410  0.62960  Biso   1.000  H
  C637     1.0000 0.11730  0.50790  0.74340  Biso   1.000  C
  C638     1.0000 0.14260  0.59990  0.58750  Biso   1.000  C
  H456     1.0000 0.16430  0.59310  0.57260  Biso   1.000  H
  C639     1.0000 0.22450  0.50740  0.68100  Biso   1.000  C
  O455     1.0000 0.14580  0.51260  0.86210  Biso   1.000  O
  C640     1.0000 0.18140  0.50730  0.77550  Biso   1.000  C
  C641     1.0000 0.07360  0.50300  0.74550  Biso   1.000  C
  C642     1.0000 0.13150  0.54170  0.84530  Biso   1.000  C
  O456     1.0000 0.19930  0.53930  0.77580  Biso   1.000  O
  C643     1.0000 0.25460  0.50280  0.57350  Biso   1.000  C
  O457     1.0000 0.28640  0.50890  0.55600  Biso   1.000  O
  O458     1.0000 0.22420  0.53950  0.69921  Biso   1.000  O
  O459     1.0000 0.05790  0.49270  0.77700  Biso   1.000  O
  C644     1.0000 0.13750  0.50800  0.78330  Biso   1.000  C
  O460     1.0000 0.22300  0.49250  0.55800  Biso   1.000  O
  H457     1.0000 0.11600  0.56230  0.79540  Biso   1.000  H
  H458     1.0000 0.12240  0.53310  0.73000  Biso   1.000  H
  H459     1.0000 0.12820  0.48770  0.72700  Biso   1.000  H
  H460     1.0000 0.13020  0.48450  0.79770  Biso   1.000  H
  O461     1.0000 0.63780  0.01280  0.64630  Biso   1.000  O
  O462     1.0000 0.73390  0.97410  0.69500  Biso   1.000  O
  C645     1.0000 0.64230  0.08750  0.90010  Biso   1.000  C
  H461     1.0000 0.66370  0.07230  0.90700  Biso   1.000  H
  C646     1.0000 0.75680  0.00820  0.61720  Biso   1.000  C
  H462     1.0000 0.76960  0.03290  0.62280  Biso   1.000  H
  H463     1.0000 0.77260  0.98750  0.62840  Biso   1.000  H
  N93      1.0000 0.62550  0.04150  0.80620  Biso   1.000  N
  O463     1.0000 0.55560  0.00880  0.71360  Biso   1.000  O
  C647     1.0000 0.62010  0.07730  0.86720  Biso   1.000  C
  C648     1.0000 0.63230  0.07730  0.62050  Biso   1.000  C
  O464     1.0000 0.69530  0.97490  0.76620  Biso   1.000  O
  C649     1.0000 0.65470  0.04190  0.63170  Biso   1.000  C
  N94      1.0000 0.69350  0.04200  0.62540  Biso   1.000  N
  H464     1.0000 0.70460  0.06190  0.61460  Biso   1.000  H
  C650     1.0000 0.71650  0.00800  0.63700  Biso   1.000  C
  H465     1.0000 0.70240  0.98410  0.62960  Biso   1.000  H
  C651     1.0000 0.61730  0.00790  0.74340  Biso   1.000  C
  C652     1.0000 0.64260  0.09990  0.58750  Biso   1.000  C
  H466     1.0000 0.66430  0.09310  0.57260  Biso   1.000  H
  C653     1.0000 0.72450  0.00740  0.68100  Biso   1.000  C
  O465     1.0000 0.64580  0.01260  0.86210  Biso   1.000  O
  C654     1.0000 0.68140  0.00730  0.77550  Biso   1.000  C
  C655     1.0000 0.57360  0.00300  0.74550  Biso   1.000  C
  C656     1.0000 0.63150  0.04170  0.84530  Biso   1.000  C
  O466     1.0000 0.69930  0.03930  0.77580  Biso   1.000  O
  C657     1.0000 0.75460  0.00280  0.57350  Biso   1.000  C
  O467     1.0000 0.78640  0.00890  0.55600  Biso   1.000  O
  O468     1.0000 0.72420  0.03950  0.69921  Biso   1.000  O
  O469     1.0000 0.55790  0.99270  0.77700  Biso   1.000  O
  C658     1.0000 0.63750  0.00800  0.78330  Biso   1.000  C
  O470     1.0000 0.72300  0.99250  0.55800  Biso   1.000  O
  H467     1.0000 0.61600  0.06230  0.79540  Biso   1.000  H
  H468     1.0000 0.62240  0.03310  0.73000  Biso   1.000  H
  H469     1.0000 0.62820  0.98770  0.72700  Biso   1.000  H
  H470     1.0000 0.63020  0.98450  0.79770  Biso   1.000  H
  O471     1.0000 0.63780  0.51280  0.14630  Biso   1.000  O
  O472     1.0000 0.73390  0.47410  0.19500  Biso   1.000  O
  C659     1.0000 0.64230  0.58750  0.40010  Biso   1.000  C
  H471     1.0000 0.66370  0.57230  0.40700  Biso   1.000  H
  C660     1.0000 0.75680  0.50820  0.11720  Biso   1.000  C
  H472     1.0000 0.76960  0.53290  0.12280  Biso   1.000  H
  H473     1.0000 0.77260  0.48750  0.12840  Biso   1.000  H
  N95      1.0000 0.62550  0.54150  0.30620  Biso   1.000  N
  O473     1.0000 0.55560  0.50880  0.21360  Biso   1.000  O
  C661     1.0000 0.62010  0.57730  0.36720  Biso   1.000  C
  C662     1.0000 0.63230  0.57730  0.12050  Biso   1.000  C
  O474     1.0000 0.69530  0.47490  0.26620  Biso   1.000  O
  C663     1.0000 0.65470  0.54190  0.13170  Biso   1.000  C
  N96      1.0000 0.69350  0.54200  0.12540  Biso   1.000  N
  H474     1.0000 0.70460  0.56190  0.11460  Biso   1.000  H
  C664     1.0000 0.71650  0.50800  0.13700  Biso   1.000  C
  H475     1.0000 0.70240  0.48410  0.12960  Biso   1.000  H
  C665     1.0000 0.61730  0.50790  0.24340  Biso   1.000  C
  C666     1.0000 0.64260  0.59990  0.08750  Biso   1.000  C
  H476     1.0000 0.66430  0.59310  0.07260  Biso   1.000  H
  C667     1.0000 0.72450  0.50740  0.18100  Biso   1.000  C
  O475     1.0000 0.64580  0.51260  0.36210  Biso   1.000  O
  C668     1.0000 0.68140  0.50730  0.27550  Biso   1.000  C
  C669     1.0000 0.57360  0.50300  0.24550  Biso   1.000  C
  C670     1.0000 0.63150  0.54170  0.34530  Biso   1.000  C
  O476     1.0000 0.69930  0.53930  0.27580  Biso   1.000  O
  C671     1.0000 0.75460  0.50280  0.07350  Biso   1.000  C
  O477     1.0000 0.78640  0.50890  0.05600  Biso   1.000  O
  O478     1.0000 0.72420  0.53950  0.19921  Biso   1.000  O
  O479     1.0000 0.55790  0.49270  0.27700  Biso   1.000  O
  C672     1.0000 0.63750  0.50800  0.28330  Biso   1.000  C
  O480     1.0000 0.72300  0.49250  0.05800  Biso   1.000  O
  H477     1.0000 0.61600  0.56230  0.29540  Biso   1.000  H
  H478     1.0000 0.62240  0.53310  0.23000  Biso   1.000  H
  H479     1.0000 0.62820  0.48770  0.22700  Biso   1.000  H
  H480     1.0000 0.63020  0.48450  0.29770  Biso   1.000  H
  Cu1      1.0000 0.25000  0.75000  0.95473  Biso   1.000  Cu
  Cu2      1.0000 0.25000  0.75000  0.03162  Biso   1.000  Cu
  Cu3      1.0000 0.25000  0.25000  0.45473  Biso   1.000  Cu
  Cu4      1.0000 0.25000  0.25000  0.53162  Biso   1.000  Cu
  Cu5      1.0000 0.75000  0.25000  0.95473  Biso   1.000  Cu
  Cu6      1.0000 0.75000  0.25000  0.03162  Biso   1.000  Cu
  Cu7      1.0000 0.75000  0.75000  0.45473  Biso   1.000  Cu
  Cu8      1.0000 0.75000  0.75000  0.53162  Biso   1.000  Cu
  Cu9      1.0000 0.75000  0.75000  0.04527  Biso   1.000  Cu
  Cu10     1.0000 0.75000  0.75000  0.96838  Biso   1.000  Cu
  Cu11     1.0000 0.75000  0.25000  0.54527  Biso   1.000  Cu
  Cu12     1.0000 0.75000  0.25000  0.46838  Biso   1.000  Cu
  Cu13     1.0000 0.25000  0.25000  0.04527  Biso   1.000  Cu
  Cu14     1.0000 0.25000  0.25000  0.96838  Biso   1.000  Cu
  Cu15     1.0000 0.25000  0.75000  0.54527  Biso   1.000  Cu
  Cu16     1.0000 0.25000  0.75000  0.46838  Biso   1.000  Cu
  Cu17     1.0000 0.95473  0.25000  0.75000  Biso   1.000  Cu
  Cu18     1.0000 0.03162  0.25000  0.75000  Biso   1.000  Cu
  Cu19     1.0000 0.45473  0.25000  0.25000  Biso   1.000  Cu
  Cu20     1.0000 0.53162  0.25000  0.25000  Biso   1.000  Cu
  Cu21     1.0000 0.95473  0.75000  0.25000  Biso   1.000  Cu
  Cu22     1.0000 0.03162  0.75000  0.25000  Biso   1.000  Cu
  Cu23     1.0000 0.45473  0.75000  0.75000  Biso   1.000  Cu
  Cu24     1.0000 0.53162  0.75000  0.75000  Biso   1.000  Cu
  Cu25     1.0000 0.04527  0.75000  0.75000  Biso   1.000  Cu
  Cu26     1.0000 0.96838  0.75000  0.75000  Biso   1.000  Cu
  Cu27     1.0000 0.54527  0.75000  0.25000  Biso   1.000  Cu
  Cu28     1.0000 0.46838  0.75000  0.25000  Biso   1.000  Cu
  Cu29     1.0000 0.04527  0.25000  0.25000  Biso   1.000  Cu
  Cu30     1.0000 0.96838  0.25000  0.25000  Biso   1.000  Cu
  Cu31     1.0000 0.54527  0.25000  0.75000  Biso   1.000  Cu
  Cu32     1.0000 0.46838  0.25000  0.75000  Biso   1.000  Cu
  Cu33     1.0000 0.75000  0.95473  0.25000  Biso   1.000  Cu
  Cu34     1.0000 0.75000  0.03162  0.25000  Biso   1.000  Cu
  Cu35     1.0000 0.75000  0.45473  0.75000  Biso   1.000  Cu
  Cu36     1.0000 0.75000  0.53162  0.75000  Biso   1.000  Cu
  Cu37     1.0000 0.25000  0.95473  0.75000  Biso   1.000  Cu
  Cu38     1.0000 0.25000  0.03162  0.75000  Biso   1.000  Cu
  Cu39     1.0000 0.25000  0.45473  0.25000  Biso   1.000  Cu
  Cu40     1.0000 0.25000  0.53162  0.25000  Biso   1.000  Cu
  Cu41     1.0000 0.75000  0.04527  0.75000  Biso   1.000  Cu
  Cu42     1.0000 0.75000  0.96838  0.75000  Biso   1.000  Cu
  Cu43     1.0000 0.75000  0.54527  0.25000  Biso   1.000  Cu
  Cu44     1.0000 0.75000  0.46838  0.25000  Biso   1.000  Cu
  Cu45     1.0000 0.25000  0.04527  0.25000  Biso   1.000  Cu
  Cu46     1.0000 0.25000  0.96838  0.25000  Biso   1.000  Cu
  Cu47     1.0000 0.25000  0.54527  0.75000  Biso   1.000  Cu
  Cu48     1.0000 0.25000  0.46838  0.75000  Biso   1.000  Cu
  Cu49     1.0000 0.28920  0.00000  0.00000  Biso   1.000  Cu
  Cu50     1.0000 0.21095  0.00000  0.00000  Biso   1.000  Cu
  Cu51     1.0000 0.28920  0.50000  0.50000  Biso   1.000  Cu
  Cu52     1.0000 0.21095  0.50000  0.50000  Biso   1.000  Cu
  Cu53     1.0000 0.78920  0.00000  0.50000  Biso   1.000  Cu
  Cu54     1.0000 0.71095  0.00000  0.50000  Biso   1.000  Cu
  Cu55     1.0000 0.78920  0.50000  0.00000  Biso   1.000  Cu
  Cu56     1.0000 0.71095  0.50000  0.00000  Biso   1.000  Cu
  Cu57     1.0000 0.71080  0.00000  0.00000  Biso   1.000  Cu
  Cu58     1.0000 0.78905  0.00000  0.00000  Biso   1.000  Cu
  Cu59     1.0000 0.71080  0.50000  0.50000  Biso   1.000  Cu
  Cu60     1.0000 0.78905  0.50000  0.50000  Biso   1.000  Cu
  Cu61     1.0000 0.21080  0.00000  0.50000  Biso   1.000  Cu
  Cu62     1.0000 0.28905  0.00000  0.50000  Biso   1.000  Cu
  Cu63     1.0000 0.21080  0.50000  0.00000  Biso   1.000  Cu
  Cu64     1.0000 0.28905  0.50000  0.00000  Biso   1.000  Cu
  Cu65     1.0000 0.00000  0.28920  0.00000  Biso   1.000  Cu
  Cu66     1.0000 0.00000  0.21095  0.00000  Biso   1.000  Cu
  Cu67     1.0000 0.00000  0.78920  0.50000  Biso   1.000  Cu
  Cu68     1.0000 0.00000  0.71095  0.50000  Biso   1.000  Cu
  Cu69     1.0000 0.50000  0.28920  0.50000  Biso   1.000  Cu
  Cu70     1.0000 0.50000  0.21095  0.50000  Biso   1.000  Cu
  Cu71     1.0000 0.50000  0.78920  0.00000  Biso   1.000  Cu
  Cu72     1.0000 0.50000  0.71095  0.00000  Biso   1.000  Cu
  Cu73     1.0000 0.00000  0.71080  0.00000  Biso   1.000  Cu
  Cu74     1.0000 0.00000  0.78905  0.00000  Biso   1.000  Cu
  Cu75     1.0000 0.00000  0.21080  0.50000  Biso   1.000  Cu
  Cu76     1.0000 0.00000  0.28905  0.50000  Biso   1.000  Cu
  Cu77     1.0000 0.50000  0.71080  0.50000  Biso   1.000  Cu
  Cu78     1.0000 0.50000  0.78905  0.50000  Biso   1.000  Cu
  Cu79     1.0000 0.50000  0.21080  0.00000  Biso   1.000  Cu
  Cu80     1.0000 0.50000  0.28905  0.00000  Biso   1.000  Cu
  Cu81     1.0000 0.00000  0.00000  0.28920  Biso   1.000  Cu
  Cu82     1.0000 0.00000  0.00000  0.21095  Biso   1.000  Cu
  Cu83     1.0000 0.00000  0.50000  0.78920  Biso   1.000  Cu
  Cu84     1.0000 0.00000  0.50000  0.71095  Biso   1.000  Cu
  Cu85     1.0000 0.50000  0.00000  0.78920  Biso   1.000  Cu
  Cu86     1.0000 0.50000  0.00000  0.71095  Biso   1.000  Cu
  Cu87     1.0000 0.50000  0.50000  0.28920  Biso   1.000  Cu
  Cu88     1.0000 0.50000  0.50000  0.21095  Biso   1.000  Cu
  Cu89     1.0000 0.00000  0.00000  0.71080  Biso   1.000  Cu
  Cu90     1.0000 0.00000  0.00000  0.78905  Biso   1.000  Cu
  Cu91     1.0000 0.00000  0.50000  0.21080  Biso   1.000  Cu
  Cu92     1.0000 0.00000  0.50000  0.28905  Biso   1.000  Cu
  Cu93     1.0000 0.50000  0.00000  0.21080  Biso   1.000  Cu
  Cu94     1.0000 0.50000  0.00000  0.28905  Biso   1.000  Cu
  Cu95     1.0000 0.50000  0.50000  0.71080  Biso   1.000  Cu
  Cu96     1.0000 0.50000  0.50000  0.78905  Biso   1.000  Cu
