data_image0
_cell_length_a       34.182
_cell_length_b       34.182
_cell_length_c       34.182
_cell_angle_alpha    90
_cell_angle_beta     90
_cell_angle_gamma    90

_symmetry_space_group_name_H-M    "P 1"
_symmetry_int_tables_number       1

loop_
  _symmetry_equiv_pos_as_xyz
  'x, y, z'

loop_
  _atom_site_label
  _atom_site_occupancy
  _atom_site_fract_x
  _atom_site_fract_y
  _atom_site_fract_z
  _atom_site_thermal_displace_type
  _atom_site_B_iso_or_equiv
  _atom_site_type_symbol
  O1       1.0000 0.85400  0.13750  0.01270  Biso   1.000  O
  O2       1.0000 0.80520  0.23400  0.97440  Biso   1.000  O
  C1       1.0000 0.59970  0.14230  0.08780  Biso   1.000  C
  H1       1.0000 0.59280  0.16380  0.07270  Biso   1.000  H
  C2       1.0000 0.88270  0.25670  0.00790  Biso   1.000  C
  H2       1.0000 0.87180  0.27210  0.98680  Biso   1.000  H
  H3       1.0000 0.87700  0.27020  0.03230  Biso   1.000  H
  N1       1.0000 0.69390  0.12540  0.04130  Biso   1.000  N
  O3       1.0000 0.78640  0.05550  0.00880  Biso   1.000  O
  C3       1.0000 0.63260  0.12010  0.07760  Biso   1.000  C
  C4       1.0000 0.87970  0.13220  0.07700  Biso   1.000  C
  O4       1.0000 0.73370  0.19540  0.97450  Biso   1.000  O
  C5       1.0000 0.86830  0.15480  0.04140  Biso   1.000  C
  N2       1.0000 0.87460  0.19340  0.04150  Biso   1.000  N
  H4       1.0000 0.88560  0.20430  0.06130  Biso   1.000  H
  C6       1.0000 0.86300  0.21680  0.00850  Biso   1.000  C
  H5       1.0000 0.87030  0.20280  0.98460  Biso   1.000  H
  C7       1.0000 0.75620  0.11730  0.00740  Biso   1.000  C
  C8       1.0000 0.91270  0.14250  0.10010  Biso   1.000  C
  H6       1.0000 0.92750  0.16440  0.09340  Biso   1.000  H
  C9       1.0000 0.81890  0.22460  0.00710  Biso   1.000  C
  O5       1.0000 0.63780  0.14570  0.01260  Biso   1.000  O
  C10      1.0000 0.72460  0.18170  0.00700  Biso   1.000  C
  C11      1.0000 0.75460  0.07370  0.00300  Biso   1.000  C
  C12      1.0000 0.65490  0.13150  0.04150  Biso   1.000  C
  O6       1.0000 0.72370  0.19925  0.03900  Biso   1.000  O
  C13      1.0000 0.92650  0.25450  0.00280  Biso   1.000  C
  O7       1.0000 0.94410  0.28630  0.00890  Biso   1.000  O
  O8       1.0000 0.80070  0.22390  0.03930  Biso   1.000  O
  O9       1.0000 0.72280  0.05780  0.99260  Biso   1.000  O
  C14      1.0000 0.71640  0.13680  0.00770  Biso   1.000  C
  O10      1.0000 0.94190  0.22250  0.99260  Biso   1.000  O
  H7       1.0000 0.70460  0.11600  0.06230  Biso   1.000  H
  H8       1.0000 0.77000  0.12240  0.03310  Biso   1.000  H
  H9       1.0000 0.77300  0.12820  0.98770  Biso   1.000  H
  H10      1.0000 0.70230  0.13020  0.98450  Biso   1.000  H
  O11      1.0000 0.85400  0.63750  0.51270  Biso   1.000  O
  O12      1.0000 0.80520  0.73400  0.47440  Biso   1.000  O
  C15      1.0000 0.59970  0.64230  0.58780  Biso   1.000  C
  H11      1.0000 0.59280  0.66380  0.57270  Biso   1.000  H
  C16      1.0000 0.88270  0.75670  0.50790  Biso   1.000  C
  H12      1.0000 0.87180  0.77210  0.48680  Biso   1.000  H
  H13      1.0000 0.87700  0.77020  0.53230  Biso   1.000  H
  N3       1.0000 0.69390  0.62540  0.54130  Biso   1.000  N
  O13      1.0000 0.78640  0.55550  0.50880  Biso   1.000  O
  C17      1.0000 0.63260  0.62010  0.57760  Biso   1.000  C
  C18      1.0000 0.87970  0.63220  0.57700  Biso   1.000  C
  O14      1.0000 0.73370  0.69540  0.47450  Biso   1.000  O
  C19      1.0000 0.86830  0.65480  0.54140  Biso   1.000  C
  N4       1.0000 0.87460  0.69340  0.54150  Biso   1.000  N
  H14      1.0000 0.88560  0.70430  0.56130  Biso   1.000  H
  C20      1.0000 0.86300  0.71680  0.50850  Biso   1.000  C
  H15      1.0000 0.87030  0.70280  0.48460  Biso   1.000  H
  C21      1.0000 0.75620  0.61730  0.50740  Biso   1.000  C
  C22      1.0000 0.91270  0.64250  0.60010  Biso   1.000  C
  H16      1.0000 0.92750  0.66440  0.59340  Biso   1.000  H
  C23      1.0000 0.81890  0.72460  0.50710  Biso   1.000  C
  O15      1.0000 0.63780  0.64570  0.51260  Biso   1.000  O
  C24      1.0000 0.72460  0.68170  0.50700  Biso   1.000  C
  C25      1.0000 0.75460  0.57370  0.50300  Biso   1.000  C
  C26      1.0000 0.65490  0.63150  0.54150  Biso   1.000  C
  O16      1.0000 0.72370  0.69925  0.53900  Biso   1.000  O
  C27      1.0000 0.92650  0.75450  0.50280  Biso   1.000  C
  O17      1.0000 0.94410  0.78630  0.50890  Biso   1.000  O
  O18      1.0000 0.80070  0.72390  0.53930  Biso   1.000  O
  O19      1.0000 0.72280  0.55780  0.49260  Biso   1.000  O
  C28      1.0000 0.71640  0.63680  0.50770  Biso   1.000  C
  O20      1.0000 0.94190  0.72250  0.49260  Biso   1.000  O
  H17      1.0000 0.70460  0.61600  0.56230  Biso   1.000  H
  H18      1.0000 0.77000  0.62240  0.53310  Biso   1.000  H
  H19      1.0000 0.77300  0.62820  0.48770  Biso   1.000  H
  H20      1.0000 0.70230  0.63020  0.48450  Biso   1.000  H
  O21      1.0000 0.35400  0.13750  0.51270  Biso   1.000  O
  O22      1.0000 0.30520  0.23400  0.47440  Biso   1.000  O
  C29      1.0000 0.09970  0.14230  0.58780  Biso   1.000  C
  H21      1.0000 0.09280  0.16380  0.57270  Biso   1.000  H
  C30      1.0000 0.38270  0.25670  0.50790  Biso   1.000  C
  H22      1.0000 0.37180  0.27210  0.48680  Biso   1.000  H
  H23      1.0000 0.37700  0.27020  0.53230  Biso   1.000  H
  N5       1.0000 0.19390  0.12540  0.54130  Biso   1.000  N
  O23      1.0000 0.28640  0.05550  0.50880  Biso   1.000  O
  C31      1.0000 0.13260  0.12010  0.57760  Biso   1.000  C
  C32      1.0000 0.37970  0.13220  0.57700  Biso   1.000  C
  O24      1.0000 0.23370  0.19540  0.47450  Biso   1.000  O
  C33      1.0000 0.36830  0.15480  0.54140  Biso   1.000  C
  N6       1.0000 0.37460  0.19340  0.54150  Biso   1.000  N
  H24      1.0000 0.38560  0.20430  0.56130  Biso   1.000  H
  C34      1.0000 0.36300  0.21680  0.50850  Biso   1.000  C
  H25      1.0000 0.37030  0.20280  0.48460  Biso   1.000  H
  C35      1.0000 0.25620  0.11730  0.50740  Biso   1.000  C
  C36      1.0000 0.41270  0.14250  0.60010  Biso   1.000  C
  H26      1.0000 0.42750  0.16440  0.59340  Biso   1.000  H
  C37      1.0000 0.31890  0.22460  0.50710  Biso   1.000  C
  O25      1.0000 0.13780  0.14570  0.51260  Biso   1.000  O
  C38      1.0000 0.22460  0.18170  0.50700  Biso   1.000  C
  C39      1.0000 0.25460  0.07370  0.50300  Biso   1.000  C
  C40      1.0000 0.15490  0.13150  0.54150  Biso   1.000  C
  O26      1.0000 0.22370  0.19925  0.53900  Biso   1.000  O
  C41      1.0000 0.42650  0.25450  0.50280  Biso   1.000  C
  O27      1.0000 0.44410  0.28630  0.50890  Biso   1.000  O
  O28      1.0000 0.30070  0.22390  0.53930  Biso   1.000  O
  O29      1.0000 0.22280  0.05780  0.49260  Biso   1.000  O
  C42      1.0000 0.21640  0.13680  0.50770  Biso   1.000  C
  O30      1.0000 0.44190  0.22250  0.49260  Biso   1.000  O
  H27      1.0000 0.20460  0.11600  0.56230  Biso   1.000  H
  H28      1.0000 0.27000  0.12240  0.53310  Biso   1.000  H
  H29      1.0000 0.27300  0.12820  0.48770  Biso   1.000  H
  H30      1.0000 0.20230  0.13020  0.48450  Biso   1.000  H
  O31      1.0000 0.35400  0.63750  0.01270  Biso   1.000  O
  O32      1.0000 0.30520  0.73400  0.97440  Biso   1.000  O
  C43      1.0000 0.09970  0.64230  0.08780  Biso   1.000  C
  H31      1.0000 0.09280  0.66380  0.07270  Biso   1.000  H
  C44      1.0000 0.38270  0.75670  0.00790  Biso   1.000  C
  H32      1.0000 0.37180  0.77210  0.98680  Biso   1.000  H
  H33      1.0000 0.37700  0.77020  0.03230  Biso   1.000  H
  N7       1.0000 0.19390  0.62540  0.04130  Biso   1.000  N
  O33      1.0000 0.28640  0.55550  0.00880  Biso   1.000  O
  C45      1.0000 0.13260  0.62010  0.07760  Biso   1.000  C
  C46      1.0000 0.37970  0.63220  0.07700  Biso   1.000  C
  O34      1.0000 0.23370  0.69540  0.97450  Biso   1.000  O
  C47      1.0000 0.36830  0.65480  0.04140  Biso   1.000  C
  N8       1.0000 0.37460  0.69340  0.04150  Biso   1.000  N
  H34      1.0000 0.38560  0.70430  0.06130  Biso   1.000  H
  C48      1.0000 0.36300  0.71680  0.00850  Biso   1.000  C
  H35      1.0000 0.37030  0.70280  0.98460  Biso   1.000  H
  C49      1.0000 0.25620  0.61730  0.00740  Biso   1.000  C
  C50      1.0000 0.41270  0.64250  0.10010  Biso   1.000  C
  H36      1.0000 0.42750  0.66440  0.09340  Biso   1.000  H
  C51      1.0000 0.31890  0.72460  0.00710  Biso   1.000  C
  O35      1.0000 0.13780  0.64570  0.01260  Biso   1.000  O
  C52      1.0000 0.22460  0.68170  0.00700  Biso   1.000  C
  C53      1.0000 0.25460  0.57370  0.00300  Biso   1.000  C
  C54      1.0000 0.15490  0.63150  0.04150  Biso   1.000  C
  O36      1.0000 0.22370  0.69925  0.03900  Biso   1.000  O
  C55      1.0000 0.42650  0.75450  0.00280  Biso   1.000  C
  O37      1.0000 0.44410  0.78630  0.00890  Biso   1.000  O
  O38      1.0000 0.30070  0.72390  0.03930  Biso   1.000  O
  O39      1.0000 0.22280  0.55780  0.99260  Biso   1.000  O
  C56      1.0000 0.21640  0.63680  0.00770  Biso   1.000  C
  O40      1.0000 0.44190  0.72250  0.99260  Biso   1.000  O
  H37      1.0000 0.20460  0.61600  0.06230  Biso   1.000  H
  H38      1.0000 0.27000  0.62240  0.03310  Biso   1.000  H
  H39      1.0000 0.27300  0.62820  0.98770  Biso   1.000  H
  H40      1.0000 0.20230  0.63020  0.98450  Biso   1.000  H
  O41      1.0000 0.14600  0.86250  0.01270  Biso   1.000  O
  O42      1.0000 0.19480  0.76600  0.97440  Biso   1.000  O
  C57      1.0000 0.40030  0.85770  0.08780  Biso   1.000  C
  H41      1.0000 0.40720  0.83620  0.07270  Biso   1.000  H
  C58      1.0000 0.11730  0.74330  0.00790  Biso   1.000  C
  H42      1.0000 0.12820  0.72790  0.98680  Biso   1.000  H
  H43      1.0000 0.12300  0.72980  0.03230  Biso   1.000  H
  N9       1.0000 0.30610  0.87460  0.04130  Biso   1.000  N
  O43      1.0000 0.21360  0.94450  0.00880  Biso   1.000  O
  C59      1.0000 0.36740  0.87990  0.07760  Biso   1.000  C
  C60      1.0000 0.12030  0.86780  0.07700  Biso   1.000  C
  O44      1.0000 0.26630  0.80460  0.97450  Biso   1.000  O
  C61      1.0000 0.13170  0.84520  0.04140  Biso   1.000  C
  N10      1.0000 0.12540  0.80660  0.04150  Biso   1.000  N
  H44      1.0000 0.11440  0.79570  0.06130  Biso   1.000  H
  C62      1.0000 0.13700  0.78320  0.00850  Biso   1.000  C
  H45      1.0000 0.12970  0.79720  0.98460  Biso   1.000  H
  C63      1.0000 0.24380  0.88270  0.00740  Biso   1.000  C
  C64      1.0000 0.08730  0.85750  0.10010  Biso   1.000  C
  H46      1.0000 0.07250  0.83560  0.09340  Biso   1.000  H
  C65      1.0000 0.18110  0.77540  0.00710  Biso   1.000  C
  O45      1.0000 0.36220  0.85430  0.01260  Biso   1.000  O
  C66      1.0000 0.27540  0.81830  0.00700  Biso   1.000  C
  C67      1.0000 0.24540  0.92630  0.00300  Biso   1.000  C
  C68      1.0000 0.34510  0.86850  0.04150  Biso   1.000  C
  O46      1.0000 0.27630  0.80075  0.03900  Biso   1.000  O
  C69      1.0000 0.07350  0.74550  0.00280  Biso   1.000  C
  O47      1.0000 0.05590  0.71370  0.00890  Biso   1.000  O
  O48      1.0000 0.19930  0.77610  0.03930  Biso   1.000  O
  O49      1.0000 0.27720  0.94220  0.99260  Biso   1.000  O
  C70      1.0000 0.28360  0.86320  0.00770  Biso   1.000  C
  O50      1.0000 0.05810  0.77750  0.99260  Biso   1.000  O
  H47      1.0000 0.29540  0.88400  0.06230  Biso   1.000  H
  H48      1.0000 0.23000  0.87760  0.03310  Biso   1.000  H
  H49      1.0000 0.22700  0.87180  0.98770  Biso   1.000  H
  H50      1.0000 0.29770  0.86980  0.98450  Biso   1.000  H
  O51      1.0000 0.14600  0.36250  0.51270  Biso   1.000  O
  O52      1.0000 0.19480  0.26600  0.47440  Biso   1.000  O
  C71      1.0000 0.40030  0.35770  0.58780  Biso   1.000  C
  H51      1.0000 0.40720  0.33620  0.57270  Biso   1.000  H
  C72      1.0000 0.11730  0.24330  0.50790  Biso   1.000  C
  H52      1.0000 0.12820  0.22790  0.48680  Biso   1.000  H
  H53      1.0000 0.12300  0.22980  0.53230  Biso   1.000  H
  N11      1.0000 0.30610  0.37460  0.54130  Biso   1.000  N
  O53      1.0000 0.21360  0.44450  0.50880  Biso   1.000  O
  C73      1.0000 0.36740  0.37990  0.57760  Biso   1.000  C
  C74      1.0000 0.12030  0.36780  0.57700  Biso   1.000  C
  O54      1.0000 0.26630  0.30460  0.47450  Biso   1.000  O
  C75      1.0000 0.13170  0.34520  0.54140  Biso   1.000  C
  N12      1.0000 0.12540  0.30660  0.54150  Biso   1.000  N
  H54      1.0000 0.11440  0.29570  0.56130  Biso   1.000  H
  C76      1.0000 0.13700  0.28320  0.50850  Biso   1.000  C
  H55      1.0000 0.12970  0.29720  0.48460  Biso   1.000  H
  C77      1.0000 0.24380  0.38270  0.50740  Biso   1.000  C
  C78      1.0000 0.08730  0.35750  0.60010  Biso   1.000  C
  H56      1.0000 0.07250  0.33560  0.59340  Biso   1.000  H
  C79      1.0000 0.18110  0.27540  0.50710  Biso   1.000  C
  O55      1.0000 0.36220  0.35430  0.51260  Biso   1.000  O
  C80      1.0000 0.27540  0.31830  0.50700  Biso   1.000  C
  C81      1.0000 0.24540  0.42630  0.50300  Biso   1.000  C
  C82      1.0000 0.34510  0.36850  0.54150  Biso   1.000  C
  O56      1.0000 0.27630  0.30075  0.53900  Biso   1.000  O
  C83      1.0000 0.07350  0.24550  0.50280  Biso   1.000  C
  O57      1.0000 0.05590  0.21370  0.50890  Biso   1.000  O
  O58      1.0000 0.19930  0.27610  0.53930  Biso   1.000  O
  O59      1.0000 0.27720  0.44220  0.49260  Biso   1.000  O
  C84      1.0000 0.28360  0.36320  0.50770  Biso   1.000  C
  O60      1.0000 0.05810  0.27750  0.49260  Biso   1.000  O
  H57      1.0000 0.29540  0.38400  0.56230  Biso   1.000  H
  H58      1.0000 0.23000  0.37760  0.53310  Biso   1.000  H
  H59      1.0000 0.22700  0.37180  0.48770  Biso   1.000  H
  H60      1.0000 0.29770  0.36980  0.48450  Biso   1.000  H
  O61      1.0000 0.64600  0.86250  0.51270  Biso   1.000  O
  O62      1.0000 0.69480  0.76600  0.47440  Biso   1.000  O
  C85      1.0000 0.90030  0.85770  0.58780  Biso   1.000  C
  H61      1.0000 0.90720  0.83620  0.57270  Biso   1.000  H
  C86      1.0000 0.61730  0.74330  0.50790  Biso   1.000  C
  H62      1.0000 0.62820  0.72790  0.48680  Biso   1.000  H
  H63      1.0000 0.62300  0.72980  0.53230  Biso   1.000  H
  N13      1.0000 0.80610  0.87460  0.54130  Biso   1.000  N
  O63      1.0000 0.71360  0.94450  0.50880  Biso   1.000  O
  C87      1.0000 0.86740  0.87990  0.57760  Biso   1.000  C
  C88      1.0000 0.62030  0.86780  0.57700  Biso   1.000  C
  O64      1.0000 0.76630  0.80460  0.47450  Biso   1.000  O
  C89      1.0000 0.63170  0.84520  0.54140  Biso   1.000  C
  N14      1.0000 0.62540  0.80660  0.54150  Biso   1.000  N
  H64      1.0000 0.61440  0.79570  0.56130  Biso   1.000  H
  C90      1.0000 0.63700  0.78320  0.50850  Biso   1.000  C
  H65      1.0000 0.62970  0.79720  0.48460  Biso   1.000  H
  C91      1.0000 0.74380  0.88270  0.50740  Biso   1.000  C
  C92      1.0000 0.58730  0.85750  0.60010  Biso   1.000  C
  H66      1.0000 0.57250  0.83560  0.59340  Biso   1.000  H
  C93      1.0000 0.68110  0.77540  0.50710  Biso   1.000  C
  O65      1.0000 0.86220  0.85430  0.51260  Biso   1.000  O
  C94      1.0000 0.77540  0.81830  0.50700  Biso   1.000  C
  C95      1.0000 0.74540  0.92630  0.50300  Biso   1.000  C
  C96      1.0000 0.84510  0.86850  0.54150  Biso   1.000  C
  O66      1.0000 0.77630  0.80075  0.53900  Biso   1.000  O
  C97      1.0000 0.57350  0.74550  0.50280  Biso   1.000  C
  O67      1.0000 0.55590  0.71370  0.50890  Biso   1.000  O
  O68      1.0000 0.69930  0.77610  0.53930  Biso   1.000  O
  O69      1.0000 0.77720  0.94220  0.49260  Biso   1.000  O
  C98      1.0000 0.78360  0.86320  0.50770  Biso   1.000  C
  O70      1.0000 0.55810  0.77750  0.49260  Biso   1.000  O
  H67      1.0000 0.79540  0.88400  0.56230  Biso   1.000  H
  H68      1.0000 0.73000  0.87760  0.53310  Biso   1.000  H
  H69      1.0000 0.72700  0.87180  0.48770  Biso   1.000  H
  H70      1.0000 0.79770  0.86980  0.48450  Biso   1.000  H
  O71      1.0000 0.64600  0.36250  0.01270  Biso   1.000  O
  O72      1.0000 0.69480  0.26600  0.97440  Biso   1.000  O
  C99      1.0000 0.90030  0.35770  0.08780  Biso   1.000  C
  H71      1.0000 0.90720  0.33620  0.07270  Biso   1.000  H
  C100     1.0000 0.61730  0.24330  0.00790  Biso   1.000  C
  H72      1.0000 0.62820  0.22790  0.98680  Biso   1.000  H
  H73      1.0000 0.62300  0.22980  0.03230  Biso   1.000  H
  N15      1.0000 0.80610  0.37460  0.04130  Biso   1.000  N
  O73      1.0000 0.71360  0.44450  0.00880  Biso   1.000  O
  C101     1.0000 0.86740  0.37990  0.07760  Biso   1.000  C
  C102     1.0000 0.62030  0.36780  0.07700  Biso   1.000  C
  O74      1.0000 0.76630  0.30460  0.97450  Biso   1.000  O
  C103     1.0000 0.63170  0.34520  0.04140  Biso   1.000  C
  N16      1.0000 0.62540  0.30660  0.04150  Biso   1.000  N
  H74      1.0000 0.61440  0.29570  0.06130  Biso   1.000  H
  C104     1.0000 0.63700  0.28320  0.00850  Biso   1.000  C
  H75      1.0000 0.62970  0.29720  0.98460  Biso   1.000  H
  C105     1.0000 0.74380  0.38270  0.00740  Biso   1.000  C
  C106     1.0000 0.58730  0.35750  0.10010  Biso   1.000  C
  H76      1.0000 0.57250  0.33560  0.09340  Biso   1.000  H
  C107     1.0000 0.68110  0.27540  0.00710  Biso   1.000  C
  O75      1.0000 0.86220  0.35430  0.01260  Biso   1.000  O
  C108     1.0000 0.77540  0.31830  0.00700  Biso   1.000  C
  C109     1.0000 0.74540  0.42630  0.00300  Biso   1.000  C
  C110     1.0000 0.84510  0.36850  0.04150  Biso   1.000  C
  O76      1.0000 0.77630  0.30075  0.03900  Biso   1.000  O
  C111     1.0000 0.57350  0.24550  0.00280  Biso   1.000  C
  O77      1.0000 0.55590  0.21370  0.00890  Biso   1.000  O
  O78      1.0000 0.69930  0.27610  0.03930  Biso   1.000  O
  O79      1.0000 0.77720  0.44220  0.99260  Biso   1.000  O
  C112     1.0000 0.78360  0.36320  0.00770  Biso   1.000  C
  O80      1.0000 0.55810  0.27750  0.99260  Biso   1.000  O
  H77      1.0000 0.79540  0.38400  0.06230  Biso   1.000  H
  H78      1.0000 0.73000  0.37760  0.03310  Biso   1.000  H
  H79      1.0000 0.72700  0.37180  0.98770  Biso   1.000  H
  H80      1.0000 0.79770  0.36980  0.98450  Biso   1.000  H
  O81      1.0000 0.14600  0.13750  0.98730  Biso   1.000  O
  O82      1.0000 0.19480  0.23400  0.02560  Biso   1.000  O
  C113     1.0000 0.40030  0.14230  0.91220  Biso   1.000  C
  H81      1.0000 0.40720  0.16380  0.92730  Biso   1.000  H
  C114     1.0000 0.11730  0.25670  0.99210  Biso   1.000  C
  H82      1.0000 0.12820  0.27210  0.01320  Biso   1.000  H
  H83      1.0000 0.12300  0.27020  0.96770  Biso   1.000  H
  N17      1.0000 0.30610  0.12540  0.95870  Biso   1.000  N
  O83      1.0000 0.21360  0.05550  0.99120  Biso   1.000  O
  C115     1.0000 0.36740  0.12010  0.92240  Biso   1.000  C
  C116     1.0000 0.12030  0.13220  0.92300  Biso   1.000  C
  O84      1.0000 0.26630  0.19540  0.02550  Biso   1.000  O
  C117     1.0000 0.13170  0.15480  0.95860  Biso   1.000  C
  N18      1.0000 0.12540  0.19340  0.95850  Biso   1.000  N
  H84      1.0000 0.11440  0.20430  0.93870  Biso   1.000  H
  C118     1.0000 0.13700  0.21680  0.99150  Biso   1.000  C
  H85      1.0000 0.12970  0.20280  0.01540  Biso   1.000  H
  C119     1.0000 0.24380  0.11730  0.99260  Biso   1.000  C
  C120     1.0000 0.08730  0.14250  0.89990  Biso   1.000  C
  H86      1.0000 0.07250  0.16440  0.90660  Biso   1.000  H
  C121     1.0000 0.18110  0.22460  0.99290  Biso   1.000  C
  O85      1.0000 0.36220  0.14570  0.98740  Biso   1.000  O
  C122     1.0000 0.27540  0.18170  0.99300  Biso   1.000  C
  C123     1.0000 0.24540  0.07370  0.99700  Biso   1.000  C
  C124     1.0000 0.34510  0.13150  0.95850  Biso   1.000  C
  O86      1.0000 0.27630  0.19925  0.96100  Biso   1.000  O
  C125     1.0000 0.07350  0.25450  0.99720  Biso   1.000  C
  O87      1.0000 0.05590  0.28630  0.99110  Biso   1.000  O
  O88      1.0000 0.19930  0.22390  0.96070  Biso   1.000  O
  O89      1.0000 0.27720  0.05780  0.00740  Biso   1.000  O
  C126     1.0000 0.28360  0.13680  0.99230  Biso   1.000  C
  O90      1.0000 0.05810  0.22250  0.00740  Biso   1.000  O
  H87      1.0000 0.29540  0.11600  0.93770  Biso   1.000  H
  H88      1.0000 0.23000  0.12240  0.96690  Biso   1.000  H
  H89      1.0000 0.22700  0.12820  0.01230  Biso   1.000  H
  H90      1.0000 0.29770  0.13020  0.01550  Biso   1.000  H
  O91      1.0000 0.14600  0.63750  0.48730  Biso   1.000  O
  O92      1.0000 0.19480  0.73400  0.52560  Biso   1.000  O
  C127     1.0000 0.40030  0.64230  0.41220  Biso   1.000  C
  H91      1.0000 0.40720  0.66380  0.42730  Biso   1.000  H
  C128     1.0000 0.11730  0.75670  0.49210  Biso   1.000  C
  H92      1.0000 0.12820  0.77210  0.51320  Biso   1.000  H
  H93      1.0000 0.12300  0.77020  0.46770  Biso   1.000  H
  N19      1.0000 0.30610  0.62540  0.45870  Biso   1.000  N
  O93      1.0000 0.21360  0.55550  0.49120  Biso   1.000  O
  C129     1.0000 0.36740  0.62010  0.42240  Biso   1.000  C
  C130     1.0000 0.12030  0.63220  0.42300  Biso   1.000  C
  O94      1.0000 0.26630  0.69540  0.52550  Biso   1.000  O
  C131     1.0000 0.13170  0.65480  0.45860  Biso   1.000  C
  N20      1.0000 0.12540  0.69340  0.45850  Biso   1.000  N
  H94      1.0000 0.11440  0.70430  0.43870  Biso   1.000  H
  C132     1.0000 0.13700  0.71680  0.49150  Biso   1.000  C
  H95      1.0000 0.12970  0.70280  0.51540  Biso   1.000  H
  C133     1.0000 0.24380  0.61730  0.49260  Biso   1.000  C
  C134     1.0000 0.08730  0.64250  0.39990  Biso   1.000  C
  H96      1.0000 0.07250  0.66440  0.40660  Biso   1.000  H
  C135     1.0000 0.18110  0.72460  0.49290  Biso   1.000  C
  O95      1.0000 0.36220  0.64570  0.48740  Biso   1.000  O
  C136     1.0000 0.27540  0.68170  0.49300  Biso   1.000  C
  C137     1.0000 0.24540  0.57370  0.49700  Biso   1.000  C
  C138     1.0000 0.34510  0.63150  0.45850  Biso   1.000  C
  O96      1.0000 0.27630  0.69925  0.46100  Biso   1.000  O
  C139     1.0000 0.07350  0.75450  0.49720  Biso   1.000  C
  O97      1.0000 0.05590  0.78630  0.49110  Biso   1.000  O
  O98      1.0000 0.19930  0.72390  0.46070  Biso   1.000  O
  O99      1.0000 0.27720  0.55780  0.50740  Biso   1.000  O
  C140     1.0000 0.28360  0.63680  0.49230  Biso   1.000  C
  O100     1.0000 0.05810  0.72250  0.50740  Biso   1.000  O
  H97      1.0000 0.29540  0.61600  0.43770  Biso   1.000  H
  H98      1.0000 0.23000  0.62240  0.46690  Biso   1.000  H
  H99      1.0000 0.22700  0.62820  0.51230  Biso   1.000  H
  H100     1.0000 0.29770  0.63020  0.51550  Biso   1.000  H
  O101     1.0000 0.64600  0.13750  0.48730  Biso   1.000  O
  O102     1.0000 0.69480  0.23400  0.52560  Biso   1.000  O
  C141     1.0000 0.90030  0.14230  0.41220  Biso   1.000  C
  H101     1.0000 0.90720  0.16380  0.42730  Biso   1.000  H
  C142     1.0000 0.61730  0.25670  0.49210  Biso   1.000  C
  H102     1.0000 0.62820  0.27210  0.51320  Biso   1.000  H
  H103     1.0000 0.62300  0.27020  0.46770  Biso   1.000  H
  N21      1.0000 0.80610  0.12540  0.45870  Biso   1.000  N
  O103     1.0000 0.71360  0.05550  0.49120  Biso   1.000  O
  C143     1.0000 0.86740  0.12010  0.42240  Biso   1.000  C
  C144     1.0000 0.62030  0.13220  0.42300  Biso   1.000  C
  O104     1.0000 0.76630  0.19540  0.52550  Biso   1.000  O
  C145     1.0000 0.63170  0.15480  0.45860  Biso   1.000  C
  N22      1.0000 0.62540  0.19340  0.45850  Biso   1.000  N
  H104     1.0000 0.61440  0.20430  0.43870  Biso   1.000  H
  C146     1.0000 0.63700  0.21680  0.49150  Biso   1.000  C
  H105     1.0000 0.62970  0.20280  0.51540  Biso   1.000  H
  C147     1.0000 0.74380  0.11730  0.49260  Biso   1.000  C
  C148     1.0000 0.58730  0.14250  0.39990  Biso   1.000  C
  H106     1.0000 0.57250  0.16440  0.40660  Biso   1.000  H
  C149     1.0000 0.68110  0.22460  0.49290  Biso   1.000  C
  O105     1.0000 0.86220  0.14570  0.48740  Biso   1.000  O
  C150     1.0000 0.77540  0.18170  0.49300  Biso   1.000  C
  C151     1.0000 0.74540  0.07370  0.49700  Biso   1.000  C
  C152     1.0000 0.84510  0.13150  0.45850  Biso   1.000  C
  O106     1.0000 0.77630  0.19925  0.46100  Biso   1.000  O
  C153     1.0000 0.57350  0.25450  0.49720  Biso   1.000  C
  O107     1.0000 0.55590  0.28630  0.49110  Biso   1.000  O
  O108     1.0000 0.69930  0.22390  0.46070  Biso   1.000  O
  O109     1.0000 0.77720  0.05780  0.50740  Biso   1.000  O
  C154     1.0000 0.78360  0.13680  0.49230  Biso   1.000  C
  O110     1.0000 0.55810  0.22250  0.50740  Biso   1.000  O
  H107     1.0000 0.79540  0.11600  0.43770  Biso   1.000  H
  H108     1.0000 0.73000  0.12240  0.46690  Biso   1.000  H
  H109     1.0000 0.72700  0.12820  0.51230  Biso   1.000  H
  H110     1.0000 0.79770  0.13020  0.51550  Biso   1.000  H
  O111     1.0000 0.64600  0.63750  0.98730  Biso   1.000  O
  O112     1.0000 0.69480  0.73400  0.02560  Biso   1.000  O
  C155     1.0000 0.90030  0.64230  0.91220  Biso   1.000  C
  H111     1.0000 0.90720  0.66380  0.92730  Biso   1.000  H
  C156     1.0000 0.61730  0.75670  0.99210  Biso   1.000  C
  H112     1.0000 0.62820  0.77210  0.01320  Biso   1.000  H
  H113     1.0000 0.62300  0.77020  0.96770  Biso   1.000  H
  N23      1.0000 0.80610  0.62540  0.95870  Biso   1.000  N
  O113     1.0000 0.71360  0.55550  0.99120  Biso   1.000  O
  C157     1.0000 0.86740  0.62010  0.92240  Biso   1.000  C
  C158     1.0000 0.62030  0.63220  0.92300  Biso   1.000  C
  O114     1.0000 0.76630  0.69540  0.02550  Biso   1.000  O
  C159     1.0000 0.63170  0.65480  0.95860  Biso   1.000  C
  N24      1.0000 0.62540  0.69340  0.95850  Biso   1.000  N
  H114     1.0000 0.61440  0.70430  0.93870  Biso   1.000  H
  C160     1.0000 0.63700  0.71680  0.99150  Biso   1.000  C
  H115     1.0000 0.62970  0.70280  0.01540  Biso   1.000  H
  C161     1.0000 0.74380  0.61730  0.99260  Biso   1.000  C
  C162     1.0000 0.58730  0.64250  0.89990  Biso   1.000  C
  H116     1.0000 0.57250  0.66440  0.90660  Biso   1.000  H
  C163     1.0000 0.68110  0.72460  0.99290  Biso   1.000  C
  O115     1.0000 0.86220  0.64570  0.98740  Biso   1.000  O
  C164     1.0000 0.77540  0.68170  0.99300  Biso   1.000  C
  C165     1.0000 0.74540  0.57370  0.99700  Biso   1.000  C
  C166     1.0000 0.84510  0.63150  0.95850  Biso   1.000  C
  O116     1.0000 0.77630  0.69925  0.96100  Biso   1.000  O
  C167     1.0000 0.57350  0.75450  0.99720  Biso   1.000  C
  O117     1.0000 0.55590  0.78630  0.99110  Biso   1.000  O
  O118     1.0000 0.69930  0.72390  0.96070  Biso   1.000  O
  O119     1.0000 0.77720  0.55780  0.00740  Biso   1.000  O
  C168     1.0000 0.78360  0.63680  0.99230  Biso   1.000  C
  O120     1.0000 0.55810  0.72250  0.00740  Biso   1.000  O
  H117     1.0000 0.79540  0.61600  0.93770  Biso   1.000  H
  H118     1.0000 0.73000  0.62240  0.96690  Biso   1.000  H
  H119     1.0000 0.72700  0.62820  0.01230  Biso   1.000  H
  H120     1.0000 0.79770  0.63020  0.01550  Biso   1.000  H
  O121     1.0000 0.85400  0.86250  0.98730  Biso   1.000  O
  O122     1.0000 0.80520  0.76600  0.02560  Biso   1.000  O
  C169     1.0000 0.59970  0.85770  0.91220  Biso   1.000  C
  H121     1.0000 0.59280  0.83620  0.92730  Biso   1.000  H
  C170     1.0000 0.88270  0.74330  0.99210  Biso   1.000  C
  H122     1.0000 0.87180  0.72790  0.01320  Biso   1.000  H
  H123     1.0000 0.87700  0.72980  0.96770  Biso   1.000  H
  N25      1.0000 0.69390  0.87460  0.95870  Biso   1.000  N
  O123     1.0000 0.78640  0.94450  0.99120  Biso   1.000  O
  C171     1.0000 0.63260  0.87990  0.92240  Biso   1.000  C
  C172     1.0000 0.87970  0.86780  0.92300  Biso   1.000  C
  O124     1.0000 0.73370  0.80460  0.02550  Biso   1.000  O
  C173     1.0000 0.86830  0.84520  0.95860  Biso   1.000  C
  N26      1.0000 0.87460  0.80660  0.95850  Biso   1.000  N
  H124     1.0000 0.88560  0.79570  0.93870  Biso   1.000  H
  C174     1.0000 0.86300  0.78320  0.99150  Biso   1.000  C
  H125     1.0000 0.87030  0.79720  0.01540  Biso   1.000  H
  C175     1.0000 0.75620  0.88270  0.99260  Biso   1.000  C
  C176     1.0000 0.91270  0.85750  0.89990  Biso   1.000  C
  H126     1.0000 0.92750  0.83560  0.90660  Biso   1.000  H
  C177     1.0000 0.81890  0.77540  0.99290  Biso   1.000  C
  O125     1.0000 0.63780  0.85430  0.98740  Biso   1.000  O
  C178     1.0000 0.72460  0.81830  0.99300  Biso   1.000  C
  C179     1.0000 0.75460  0.92630  0.99700  Biso   1.000  C
  C180     1.0000 0.65490  0.86850  0.95850  Biso   1.000  C
  O126     1.0000 0.72370  0.80075  0.96100  Biso   1.000  O
  C181     1.0000 0.92650  0.74550  0.99720  Biso   1.000  C
  O127     1.0000 0.94410  0.71370  0.99110  Biso   1.000  O
  O128     1.0000 0.80070  0.77610  0.96070  Biso   1.000  O
  O129     1.0000 0.72280  0.94220  0.00740  Biso   1.000  O
  C182     1.0000 0.71640  0.86320  0.99230  Biso   1.000  C
  O130     1.0000 0.94190  0.77750  0.00740  Biso   1.000  O
  H127     1.0000 0.70460  0.88400  0.93770  Biso   1.000  H
  H128     1.0000 0.77000  0.87760  0.96690  Biso   1.000  H
  H129     1.0000 0.77300  0.87180  0.01230  Biso   1.000  H
  H130     1.0000 0.70230  0.86980  0.01550  Biso   1.000  H
  O131     1.0000 0.85400  0.36250  0.48730  Biso   1.000  O
  O132     1.0000 0.80520  0.26600  0.52560  Biso   1.000  O
  C183     1.0000 0.59970  0.35770  0.41220  Biso   1.000  C
  H131     1.0000 0.59280  0.33620  0.42730  Biso   1.000  H
  C184     1.0000 0.88270  0.24330  0.49210  Biso   1.000  C
  H132     1.0000 0.87180  0.22790  0.51320  Biso   1.000  H
  H133     1.0000 0.87700  0.22980  0.46770  Biso   1.000  H
  N27      1.0000 0.69390  0.37460  0.45870  Biso   1.000  N
  O133     1.0000 0.78640  0.44450  0.49120  Biso   1.000  O
  C185     1.0000 0.63260  0.37990  0.42240  Biso   1.000  C
  C186     1.0000 0.87970  0.36780  0.42300  Biso   1.000  C
  O134     1.0000 0.73370  0.30460  0.52550  Biso   1.000  O
  C187     1.0000 0.86830  0.34520  0.45860  Biso   1.000  C
  N28      1.0000 0.87460  0.30660  0.45850  Biso   1.000  N
  H134     1.0000 0.88560  0.29570  0.43870  Biso   1.000  H
  C188     1.0000 0.86300  0.28320  0.49150  Biso   1.000  C
  H135     1.0000 0.87030  0.29720  0.51540  Biso   1.000  H
  C189     1.0000 0.75620  0.38270  0.49260  Biso   1.000  C
  C190     1.0000 0.91270  0.35750  0.39990  Biso   1.000  C
  H136     1.0000 0.92750  0.33560  0.40660  Biso   1.000  H
  C191     1.0000 0.81890  0.27540  0.49290  Biso   1.000  C
  O135     1.0000 0.63780  0.35430  0.48740  Biso   1.000  O
  C192     1.0000 0.72460  0.31830  0.49300  Biso   1.000  C
  C193     1.0000 0.75460  0.42630  0.49700  Biso   1.000  C
  C194     1.0000 0.65490  0.36850  0.45850  Biso   1.000  C
  O136     1.0000 0.72370  0.30075  0.46100  Biso   1.000  O
  C195     1.0000 0.92650  0.24550  0.49720  Biso   1.000  C
  O137     1.0000 0.94410  0.21370  0.49110  Biso   1.000  O
  O138     1.0000 0.80070  0.27610  0.46070  Biso   1.000  O
  O139     1.0000 0.72280  0.44220  0.50740  Biso   1.000  O
  C196     1.0000 0.71640  0.36320  0.49230  Biso   1.000  C
  O140     1.0000 0.94190  0.27750  0.50740  Biso   1.000  O
  H137     1.0000 0.70460  0.38400  0.43770  Biso   1.000  H
  H138     1.0000 0.77000  0.37760  0.46690  Biso   1.000  H
  H139     1.0000 0.77300  0.37180  0.51230  Biso   1.000  H
  H140     1.0000 0.70230  0.36980  0.51550  Biso   1.000  H
  O141     1.0000 0.35400  0.86250  0.48730  Biso   1.000  O
  O142     1.0000 0.30520  0.76600  0.52560  Biso   1.000  O
  C197     1.0000 0.09970  0.85770  0.41220  Biso   1.000  C
  H141     1.0000 0.09280  0.83620  0.42730  Biso   1.000  H
  C198     1.0000 0.38270  0.74330  0.49210  Biso   1.000  C
  H142     1.0000 0.37180  0.72790  0.51320  Biso   1.000  H
  H143     1.0000 0.37700  0.72980  0.46770  Biso   1.000  H
  N29      1.0000 0.19390  0.87460  0.45870  Biso   1.000  N
  O143     1.0000 0.28640  0.94450  0.49120  Biso   1.000  O
  C199     1.0000 0.13260  0.87990  0.42240  Biso   1.000  C
  C200     1.0000 0.37970  0.86780  0.42300  Biso   1.000  C
  O144     1.0000 0.23370  0.80460  0.52550  Biso   1.000  O
  C201     1.0000 0.36830  0.84520  0.45860  Biso   1.000  C
  N30      1.0000 0.37460  0.80660  0.45850  Biso   1.000  N
  H144     1.0000 0.38560  0.79570  0.43870  Biso   1.000  H
  C202     1.0000 0.36300  0.78320  0.49150  Biso   1.000  C
  H145     1.0000 0.37030  0.79720  0.51540  Biso   1.000  H
  C203     1.0000 0.25620  0.88270  0.49260  Biso   1.000  C
  C204     1.0000 0.41270  0.85750  0.39990  Biso   1.000  C
  H146     1.0000 0.42750  0.83560  0.40660  Biso   1.000  H
  C205     1.0000 0.31890  0.77540  0.49290  Biso   1.000  C
  O145     1.0000 0.13780  0.85430  0.48740  Biso   1.000  O
  C206     1.0000 0.22460  0.81830  0.49300  Biso   1.000  C
  C207     1.0000 0.25460  0.92630  0.49700  Biso   1.000  C
  C208     1.0000 0.15490  0.86850  0.45850  Biso   1.000  C
  O146     1.0000 0.22370  0.80075  0.46100  Biso   1.000  O
  C209     1.0000 0.42650  0.74550  0.49720  Biso   1.000  C
  O147     1.0000 0.44410  0.71370  0.49110  Biso   1.000  O
  O148     1.0000 0.30070  0.77610  0.46070  Biso   1.000  O
  O149     1.0000 0.22280  0.94220  0.50740  Biso   1.000  O
  C210     1.0000 0.21640  0.86320  0.49230  Biso   1.000  C
  O150     1.0000 0.44190  0.77750  0.50740  Biso   1.000  O
  H147     1.0000 0.20460  0.88400  0.43770  Biso   1.000  H
  H148     1.0000 0.27000  0.87760  0.46690  Biso   1.000  H
  H149     1.0000 0.27300  0.87180  0.51230  Biso   1.000  H
  H150     1.0000 0.20230  0.86980  0.51550  Biso   1.000  H
  O151     1.0000 0.35400  0.36250  0.98730  Biso   1.000  O
  O152     1.0000 0.30520  0.26600  0.02560  Biso   1.000  O
  C211     1.0000 0.09970  0.35770  0.91220  Biso   1.000  C
  H151     1.0000 0.09280  0.33620  0.92730  Biso   1.000  H
  C212     1.0000 0.38270  0.24330  0.99210  Biso   1.000  C
  H152     1.0000 0.37180  0.22790  0.01320  Biso   1.000  H
  H153     1.0000 0.37700  0.22980  0.96770  Biso   1.000  H
  N31      1.0000 0.19390  0.37460  0.95870  Biso   1.000  N
  O153     1.0000 0.28640  0.44450  0.99120  Biso   1.000  O
  C213     1.0000 0.13260  0.37990  0.92240  Biso   1.000  C
  C214     1.0000 0.37970  0.36780  0.92300  Biso   1.000  C
  O154     1.0000 0.23370  0.30460  0.02550  Biso   1.000  O
  C215     1.0000 0.36830  0.34520  0.95860  Biso   1.000  C
  N32      1.0000 0.37460  0.30660  0.95850  Biso   1.000  N
  H154     1.0000 0.38560  0.29570  0.93870  Biso   1.000  H
  C216     1.0000 0.36300  0.28320  0.99150  Biso   1.000  C
  H155     1.0000 0.37030  0.29720  0.01540  Biso   1.000  H
  C217     1.0000 0.25620  0.38270  0.99260  Biso   1.000  C
  C218     1.0000 0.41270  0.35750  0.89990  Biso   1.000  C
  H156     1.0000 0.42750  0.33560  0.90660  Biso   1.000  H
  C219     1.0000 0.31890  0.27540  0.99290  Biso   1.000  C
  O155     1.0000 0.13780  0.35430  0.98740  Biso   1.000  O
  C220     1.0000 0.22460  0.31830  0.99300  Biso   1.000  C
  C221     1.0000 0.25460  0.42630  0.99700  Biso   1.000  C
  C222     1.0000 0.15490  0.36850  0.95850  Biso   1.000  C
  O156     1.0000 0.22370  0.30075  0.96100  Biso   1.000  O
  C223     1.0000 0.42650  0.24550  0.99720  Biso   1.000  C
  O157     1.0000 0.44410  0.21370  0.99110  Biso   1.000  O
  O158     1.0000 0.30070  0.27610  0.96070  Biso   1.000  O
  O159     1.0000 0.22280  0.44220  0.00740  Biso   1.000  O
  C224     1.0000 0.21640  0.36320  0.99230  Biso   1.000  C
  O160     1.0000 0.44190  0.27750  0.00740  Biso   1.000  O
  H157     1.0000 0.20460  0.38400  0.93770  Biso   1.000  H
  H158     1.0000 0.27000  0.37760  0.96690  Biso   1.000  H
  H159     1.0000 0.27300  0.37180  0.01230  Biso   1.000  H
  H160     1.0000 0.20230  0.36980  0.01550  Biso   1.000  H
  O161     1.0000 0.01270  0.85400  0.13750  Biso   1.000  O
  O162     1.0000 0.97440  0.80520  0.23400  Biso   1.000  O
  C225     1.0000 0.08780  0.59970  0.14230  Biso   1.000  C
  H161     1.0000 0.07270  0.59280  0.16380  Biso   1.000  H
  C226     1.0000 0.00790  0.88270  0.25670  Biso   1.000  C
  H162     1.0000 0.98680  0.87180  0.27210  Biso   1.000  H
  H163     1.0000 0.03230  0.87700  0.27020  Biso   1.000  H
  N33      1.0000 0.04130  0.69390  0.12540  Biso   1.000  N
  O163     1.0000 0.00880  0.78640  0.05550  Biso   1.000  O
  C227     1.0000 0.07760  0.63260  0.12010  Biso   1.000  C
  C228     1.0000 0.07700  0.87970  0.13220  Biso   1.000  C
  O164     1.0000 0.97450  0.73370  0.19540  Biso   1.000  O
  C229     1.0000 0.04140  0.86830  0.15480  Biso   1.000  C
  N34      1.0000 0.04150  0.87460  0.19340  Biso   1.000  N
  H164     1.0000 0.06130  0.88560  0.20430  Biso   1.000  H
  C230     1.0000 0.00850  0.86300  0.21680  Biso   1.000  C
  H165     1.0000 0.98460  0.87030  0.20280  Biso   1.000  H
  C231     1.0000 0.00740  0.75620  0.11730  Biso   1.000  C
  C232     1.0000 0.10010  0.91270  0.14250  Biso   1.000  C
  H166     1.0000 0.09340  0.92750  0.16440  Biso   1.000  H
  C233     1.0000 0.00710  0.81890  0.22460  Biso   1.000  C
  O165     1.0000 0.01260  0.63780  0.14570  Biso   1.000  O
  C234     1.0000 0.00700  0.72460  0.18170  Biso   1.000  C
  C235     1.0000 0.00300  0.75460  0.07370  Biso   1.000  C
  C236     1.0000 0.04150  0.65490  0.13150  Biso   1.000  C
  O166     1.0000 0.03900  0.72370  0.19925  Biso   1.000  O
  C237     1.0000 0.00280  0.92650  0.25450  Biso   1.000  C
  O167     1.0000 0.00890  0.94410  0.28630  Biso   1.000  O
  O168     1.0000 0.03930  0.80070  0.22390  Biso   1.000  O
  O169     1.0000 0.99260  0.72280  0.05780  Biso   1.000  O
  C238     1.0000 0.00770  0.71640  0.13680  Biso   1.000  C
  O170     1.0000 0.99260  0.94190  0.22250  Biso   1.000  O
  H167     1.0000 0.06230  0.70460  0.11600  Biso   1.000  H
  H168     1.0000 0.03310  0.77000  0.12240  Biso   1.000  H
  H169     1.0000 0.98770  0.77300  0.12820  Biso   1.000  H
  H170     1.0000 0.98450  0.70230  0.13020  Biso   1.000  H
  O171     1.0000 0.01270  0.35400  0.63750  Biso   1.000  O
  O172     1.0000 0.97440  0.30520  0.73400  Biso   1.000  O
  C239     1.0000 0.08780  0.09970  0.64230  Biso   1.000  C
  H171     1.0000 0.07270  0.09280  0.66380  Biso   1.000  H
  C240     1.0000 0.00790  0.38270  0.75670  Biso   1.000  C
  H172     1.0000 0.98680  0.37180  0.77210  Biso   1.000  H
  H173     1.0000 0.03230  0.37700  0.77020  Biso   1.000  H
  N35      1.0000 0.04130  0.19390  0.62540  Biso   1.000  N
  O173     1.0000 0.00880  0.28640  0.55550  Biso   1.000  O
  C241     1.0000 0.07760  0.13260  0.62010  Biso   1.000  C
  C242     1.0000 0.07700  0.37970  0.63220  Biso   1.000  C
  O174     1.0000 0.97450  0.23370  0.69540  Biso   1.000  O
  C243     1.0000 0.04140  0.36830  0.65480  Biso   1.000  C
  N36      1.0000 0.04150  0.37460  0.69340  Biso   1.000  N
  H174     1.0000 0.06130  0.38560  0.70430  Biso   1.000  H
  C244     1.0000 0.00850  0.36300  0.71680  Biso   1.000  C
  H175     1.0000 0.98460  0.37030  0.70280  Biso   1.000  H
  C245     1.0000 0.00740  0.25620  0.61730  Biso   1.000  C
  C246     1.0000 0.10010  0.41270  0.64250  Biso   1.000  C
  H176     1.0000 0.09340  0.42750  0.66440  Biso   1.000  H
  C247     1.0000 0.00710  0.31890  0.72460  Biso   1.000  C
  O175     1.0000 0.01260  0.13780  0.64570  Biso   1.000  O
  C248     1.0000 0.00700  0.22460  0.68170  Biso   1.000  C
  C249     1.0000 0.00300  0.25460  0.57370  Biso   1.000  C
  C250     1.0000 0.04150  0.15490  0.63150  Biso   1.000  C
  O176     1.0000 0.03900  0.22370  0.69925  Biso   1.000  O
  C251     1.0000 0.00280  0.42650  0.75450  Biso   1.000  C
  O177     1.0000 0.00890  0.44410  0.78630  Biso   1.000  O
  O178     1.0000 0.03930  0.30070  0.72390  Biso   1.000  O
  O179     1.0000 0.99260  0.22280  0.55780  Biso   1.000  O
  C252     1.0000 0.00770  0.21640  0.63680  Biso   1.000  C
  O180     1.0000 0.99260  0.44190  0.72250  Biso   1.000  O
  H177     1.0000 0.06230  0.20460  0.61600  Biso   1.000  H
  H178     1.0000 0.03310  0.27000  0.62240  Biso   1.000  H
  H179     1.0000 0.98770  0.27300  0.62820  Biso   1.000  H
  H180     1.0000 0.98450  0.20230  0.63020  Biso   1.000  H
  O181     1.0000 0.51270  0.85400  0.63750  Biso   1.000  O
  O182     1.0000 0.47440  0.80520  0.73400  Biso   1.000  O
  C253     1.0000 0.58780  0.59970  0.64230  Biso   1.000  C
  H181     1.0000 0.57270  0.59280  0.66380  Biso   1.000  H
  C254     1.0000 0.50790  0.88270  0.75670  Biso   1.000  C
  H182     1.0000 0.48680  0.87180  0.77210  Biso   1.000  H
  H183     1.0000 0.53230  0.87700  0.77020  Biso   1.000  H
  N37      1.0000 0.54130  0.69390  0.62540  Biso   1.000  N
  O183     1.0000 0.50880  0.78640  0.55550  Biso   1.000  O
  C255     1.0000 0.57760  0.63260  0.62010  Biso   1.000  C
  C256     1.0000 0.57700  0.87970  0.63220  Biso   1.000  C
  O184     1.0000 0.47450  0.73370  0.69540  Biso   1.000  O
  C257     1.0000 0.54140  0.86830  0.65480  Biso   1.000  C
  N38      1.0000 0.54150  0.87460  0.69340  Biso   1.000  N
  H184     1.0000 0.56130  0.88560  0.70430  Biso   1.000  H
  C258     1.0000 0.50850  0.86300  0.71680  Biso   1.000  C
  H185     1.0000 0.48460  0.87030  0.70280  Biso   1.000  H
  C259     1.0000 0.50740  0.75620  0.61730  Biso   1.000  C
  C260     1.0000 0.60010  0.91270  0.64250  Biso   1.000  C
  H186     1.0000 0.59340  0.92750  0.66440  Biso   1.000  H
  C261     1.0000 0.50710  0.81890  0.72460  Biso   1.000  C
  O185     1.0000 0.51260  0.63780  0.64570  Biso   1.000  O
  C262     1.0000 0.50700  0.72460  0.68170  Biso   1.000  C
  C263     1.0000 0.50300  0.75460  0.57370  Biso   1.000  C
  C264     1.0000 0.54150  0.65490  0.63150  Biso   1.000  C
  O186     1.0000 0.53900  0.72370  0.69925  Biso   1.000  O
  C265     1.0000 0.50280  0.92650  0.75450  Biso   1.000  C
  O187     1.0000 0.50890  0.94410  0.78630  Biso   1.000  O
  O188     1.0000 0.53930  0.80070  0.72390  Biso   1.000  O
  O189     1.0000 0.49260  0.72280  0.55780  Biso   1.000  O
  C266     1.0000 0.50770  0.71640  0.63680  Biso   1.000  C
  O190     1.0000 0.49260  0.94190  0.72250  Biso   1.000  O
  H187     1.0000 0.56230  0.70460  0.61600  Biso   1.000  H
  H188     1.0000 0.53310  0.77000  0.62240  Biso   1.000  H
  H189     1.0000 0.48770  0.77300  0.62820  Biso   1.000  H
  H190     1.0000 0.48450  0.70230  0.63020  Biso   1.000  H
  O191     1.0000 0.51270  0.35400  0.13750  Biso   1.000  O
  O192     1.0000 0.47440  0.30520  0.23400  Biso   1.000  O
  C267     1.0000 0.58780  0.09970  0.14230  Biso   1.000  C
  H191     1.0000 0.57270  0.09280  0.16380  Biso   1.000  H
  C268     1.0000 0.50790  0.38270  0.25670  Biso   1.000  C
  H192     1.0000 0.48680  0.37180  0.27210  Biso   1.000  H
  H193     1.0000 0.53230  0.37700  0.27020  Biso   1.000  H
  N39      1.0000 0.54130  0.19390  0.12540  Biso   1.000  N
  O193     1.0000 0.50880  0.28640  0.05550  Biso   1.000  O
  C269     1.0000 0.57760  0.13260  0.12010  Biso   1.000  C
  C270     1.0000 0.57700  0.37970  0.13220  Biso   1.000  C
  O194     1.0000 0.47450  0.23370  0.19540  Biso   1.000  O
  C271     1.0000 0.54140  0.36830  0.15480  Biso   1.000  C
  N40      1.0000 0.54150  0.37460  0.19340  Biso   1.000  N
  H194     1.0000 0.56130  0.38560  0.20430  Biso   1.000  H
  C272     1.0000 0.50850  0.36300  0.21680  Biso   1.000  C
  H195     1.0000 0.48460  0.37030  0.20280  Biso   1.000  H
  C273     1.0000 0.50740  0.25620  0.11730  Biso   1.000  C
  C274     1.0000 0.60010  0.41270  0.14250  Biso   1.000  C
  H196     1.0000 0.59340  0.42750  0.16440  Biso   1.000  H
  C275     1.0000 0.50710  0.31890  0.22460  Biso   1.000  C
  O195     1.0000 0.51260  0.13780  0.14570  Biso   1.000  O
  C276     1.0000 0.50700  0.22460  0.18170  Biso   1.000  C
  C277     1.0000 0.50300  0.25460  0.07370  Biso   1.000  C
  C278     1.0000 0.54150  0.15490  0.13150  Biso   1.000  C
  O196     1.0000 0.53900  0.22370  0.19925  Biso   1.000  O
  C279     1.0000 0.50280  0.42650  0.25450  Biso   1.000  C
  O197     1.0000 0.50890  0.44410  0.28630  Biso   1.000  O
  O198     1.0000 0.53930  0.30070  0.22390  Biso   1.000  O
  O199     1.0000 0.49260  0.22280  0.05780  Biso   1.000  O
  C280     1.0000 0.50770  0.21640  0.13680  Biso   1.000  C
  O200     1.0000 0.49260  0.44190  0.22250  Biso   1.000  O
  H197     1.0000 0.56230  0.20460  0.11600  Biso   1.000  H
  H198     1.0000 0.53310  0.27000  0.12240  Biso   1.000  H
  H199     1.0000 0.48770  0.27300  0.12820  Biso   1.000  H
  H200     1.0000 0.48450  0.20230  0.13020  Biso   1.000  H
  O201     1.0000 0.01270  0.14600  0.86250  Biso   1.000  O
  O202     1.0000 0.97440  0.19480  0.76600  Biso   1.000  O
  C281     1.0000 0.08780  0.40030  0.85770  Biso   1.000  C
  H201     1.0000 0.07270  0.40720  0.83620  Biso   1.000  H
  C282     1.0000 0.00790  0.11730  0.74330  Biso   1.000  C
  H202     1.0000 0.98680  0.12820  0.72790  Biso   1.000  H
  H203     1.0000 0.03230  0.12300  0.72980  Biso   1.000  H
  N41      1.0000 0.04130  0.30610  0.87460  Biso   1.000  N
  O203     1.0000 0.00880  0.21360  0.94450  Biso   1.000  O
  C283     1.0000 0.07760  0.36740  0.87990  Biso   1.000  C
  C284     1.0000 0.07700  0.12030  0.86780  Biso   1.000  C
  O204     1.0000 0.97450  0.26630  0.80460  Biso   1.000  O
  C285     1.0000 0.04140  0.13170  0.84520  Biso   1.000  C
  N42      1.0000 0.04150  0.12540  0.80660  Biso   1.000  N
  H204     1.0000 0.06130  0.11440  0.79570  Biso   1.000  H
  C286     1.0000 0.00850  0.13700  0.78320  Biso   1.000  C
  H205     1.0000 0.98460  0.12970  0.79720  Biso   1.000  H
  C287     1.0000 0.00740  0.24380  0.88270  Biso   1.000  C
  C288     1.0000 0.10010  0.08730  0.85750  Biso   1.000  C
  H206     1.0000 0.09340  0.07250  0.83560  Biso   1.000  H
  C289     1.0000 0.00710  0.18110  0.77540  Biso   1.000  C
  O205     1.0000 0.01260  0.36220  0.85430  Biso   1.000  O
  C290     1.0000 0.00700  0.27540  0.81830  Biso   1.000  C
  C291     1.0000 0.00300  0.24540  0.92630  Biso   1.000  C
  C292     1.0000 0.04150  0.34510  0.86850  Biso   1.000  C
  O206     1.0000 0.03900  0.27630  0.80075  Biso   1.000  O
  C293     1.0000 0.00280  0.07350  0.74550  Biso   1.000  C
  O207     1.0000 0.00890  0.05590  0.71370  Biso   1.000  O
  O208     1.0000 0.03930  0.19930  0.77610  Biso   1.000  O
  O209     1.0000 0.99260  0.27720  0.94220  Biso   1.000  O
  C294     1.0000 0.00770  0.28360  0.86320  Biso   1.000  C
  O210     1.0000 0.99260  0.05810  0.77750  Biso   1.000  O
  H207     1.0000 0.06230  0.29540  0.88400  Biso   1.000  H
  H208     1.0000 0.03310  0.23000  0.87760  Biso   1.000  H
  H209     1.0000 0.98770  0.22700  0.87180  Biso   1.000  H
  H210     1.0000 0.98450  0.29770  0.86980  Biso   1.000  H
  O211     1.0000 0.01270  0.64600  0.36250  Biso   1.000  O
  O212     1.0000 0.97440  0.69480  0.26600  Biso   1.000  O
  C295     1.0000 0.08780  0.90030  0.35770  Biso   1.000  C
  H211     1.0000 0.07270  0.90720  0.33620  Biso   1.000  H
  C296     1.0000 0.00790  0.61730  0.24330  Biso   1.000  C
  H212     1.0000 0.98680  0.62820  0.22790  Biso   1.000  H
  H213     1.0000 0.03230  0.62300  0.22980  Biso   1.000  H
  N43      1.0000 0.04130  0.80610  0.37460  Biso   1.000  N
  O213     1.0000 0.00880  0.71360  0.44450  Biso   1.000  O
  C297     1.0000 0.07760  0.86740  0.37990  Biso   1.000  C
  C298     1.0000 0.07700  0.62030  0.36780  Biso   1.000  C
  O214     1.0000 0.97450  0.76630  0.30460  Biso   1.000  O
  C299     1.0000 0.04140  0.63170  0.34520  Biso   1.000  C
  N44      1.0000 0.04150  0.62540  0.30660  Biso   1.000  N
  H214     1.0000 0.06130  0.61440  0.29570  Biso   1.000  H
  C300     1.0000 0.00850  0.63700  0.28320  Biso   1.000  C
  H215     1.0000 0.98460  0.62970  0.29720  Biso   1.000  H
  C301     1.0000 0.00740  0.74380  0.38270  Biso   1.000  C
  C302     1.0000 0.10010  0.58730  0.35750  Biso   1.000  C
  H216     1.0000 0.09340  0.57250  0.33560  Biso   1.000  H
  C303     1.0000 0.00710  0.68110  0.27540  Biso   1.000  C
  O215     1.0000 0.01260  0.86220  0.35430  Biso   1.000  O
  C304     1.0000 0.00700  0.77540  0.31830  Biso   1.000  C
  C305     1.0000 0.00300  0.74540  0.42630  Biso   1.000  C
  C306     1.0000 0.04150  0.84510  0.36850  Biso   1.000  C
  O216     1.0000 0.03900  0.77630  0.30075  Biso   1.000  O
  C307     1.0000 0.00280  0.57350  0.24550  Biso   1.000  C
  O217     1.0000 0.00890  0.55590  0.21370  Biso   1.000  O
  O218     1.0000 0.03930  0.69930  0.27610  Biso   1.000  O
  O219     1.0000 0.99260  0.77720  0.44220  Biso   1.000  O
  C308     1.0000 0.00770  0.78360  0.36320  Biso   1.000  C
  O220     1.0000 0.99260  0.55810  0.27750  Biso   1.000  O
  H217     1.0000 0.06230  0.79540  0.38400  Biso   1.000  H
  H218     1.0000 0.03310  0.73000  0.37760  Biso   1.000  H
  H219     1.0000 0.98770  0.72700  0.37180  Biso   1.000  H
  H220     1.0000 0.98450  0.79770  0.36980  Biso   1.000  H
  O221     1.0000 0.51270  0.14600  0.36250  Biso   1.000  O
  O222     1.0000 0.47440  0.19480  0.26600  Biso   1.000  O
  C309     1.0000 0.58780  0.40030  0.35770  Biso   1.000  C
  H221     1.0000 0.57270  0.40720  0.33620  Biso   1.000  H
  C310     1.0000 0.50790  0.11730  0.24330  Biso   1.000  C
  H222     1.0000 0.48680  0.12820  0.22790  Biso   1.000  H
  H223     1.0000 0.53230  0.12300  0.22980  Biso   1.000  H
  N45      1.0000 0.54130  0.30610  0.37460  Biso   1.000  N
  O223     1.0000 0.50880  0.21360  0.44450  Biso   1.000  O
  C311     1.0000 0.57760  0.36740  0.37990  Biso   1.000  C
  C312     1.0000 0.57700  0.12030  0.36780  Biso   1.000  C
  O224     1.0000 0.47450  0.26630  0.30460  Biso   1.000  O
  C313     1.0000 0.54140  0.13170  0.34520  Biso   1.000  C
  N46      1.0000 0.54150  0.12540  0.30660  Biso   1.000  N
  H224     1.0000 0.56130  0.11440  0.29570  Biso   1.000  H
  C314     1.0000 0.50850  0.13700  0.28320  Biso   1.000  C
  H225     1.0000 0.48460  0.12970  0.29720  Biso   1.000  H
  C315     1.0000 0.50740  0.24380  0.38270  Biso   1.000  C
  C316     1.0000 0.60010  0.08730  0.35750  Biso   1.000  C
  H226     1.0000 0.59340  0.07250  0.33560  Biso   1.000  H
  C317     1.0000 0.50710  0.18110  0.27540  Biso   1.000  C
  O225     1.0000 0.51260  0.36220  0.35430  Biso   1.000  O
  C318     1.0000 0.50700  0.27540  0.31830  Biso   1.000  C
  C319     1.0000 0.50300  0.24540  0.42630  Biso   1.000  C
  C320     1.0000 0.54150  0.34510  0.36850  Biso   1.000  C
  O226     1.0000 0.53900  0.27630  0.30075  Biso   1.000  O
  C321     1.0000 0.50280  0.07350  0.24550  Biso   1.000  C
  O227     1.0000 0.50890  0.05590  0.21370  Biso   1.000  O
  O228     1.0000 0.53930  0.19930  0.27610  Biso   1.000  O
  O229     1.0000 0.49260  0.27720  0.44220  Biso   1.000  O
  C322     1.0000 0.50770  0.28360  0.36320  Biso   1.000  C
  O230     1.0000 0.49260  0.05810  0.27750  Biso   1.000  O
  H227     1.0000 0.56230  0.29540  0.38400  Biso   1.000  H
  H228     1.0000 0.53310  0.23000  0.37760  Biso   1.000  H
  H229     1.0000 0.48770  0.22700  0.37180  Biso   1.000  H
  H230     1.0000 0.48450  0.29770  0.36980  Biso   1.000  H
  O231     1.0000 0.51270  0.64600  0.86250  Biso   1.000  O
  O232     1.0000 0.47440  0.69480  0.76600  Biso   1.000  O
  C323     1.0000 0.58780  0.90030  0.85770  Biso   1.000  C
  H231     1.0000 0.57270  0.90720  0.83620  Biso   1.000  H
  C324     1.0000 0.50790  0.61730  0.74330  Biso   1.000  C
  H232     1.0000 0.48680  0.62820  0.72790  Biso   1.000  H
  H233     1.0000 0.53230  0.62300  0.72980  Biso   1.000  H
  N47      1.0000 0.54130  0.80610  0.87460  Biso   1.000  N
  O233     1.0000 0.50880  0.71360  0.94450  Biso   1.000  O
  C325     1.0000 0.57760  0.86740  0.87990  Biso   1.000  C
  C326     1.0000 0.57700  0.62030  0.86780  Biso   1.000  C
  O234     1.0000 0.47450  0.76630  0.80460  Biso   1.000  O
  C327     1.0000 0.54140  0.63170  0.84520  Biso   1.000  C
  N48      1.0000 0.54150  0.62540  0.80660  Biso   1.000  N
  H234     1.0000 0.56130  0.61440  0.79570  Biso   1.000  H
  C328     1.0000 0.50850  0.63700  0.78320  Biso   1.000  C
  H235     1.0000 0.48460  0.62970  0.79720  Biso   1.000  H
  C329     1.0000 0.50740  0.74380  0.88270  Biso   1.000  C
  C330     1.0000 0.60010  0.58730  0.85750  Biso   1.000  C
  H236     1.0000 0.59340  0.57250  0.83560  Biso   1.000  H
  C331     1.0000 0.50710  0.68110  0.77540  Biso   1.000  C
  O235     1.0000 0.51260  0.86220  0.85430  Biso   1.000  O
  C332     1.0000 0.50700  0.77540  0.81830  Biso   1.000  C
  C333     1.0000 0.50300  0.74540  0.92630  Biso   1.000  C
  C334     1.0000 0.54150  0.84510  0.86850  Biso   1.000  C
  O236     1.0000 0.53900  0.77630  0.80075  Biso   1.000  O
  C335     1.0000 0.50280  0.57350  0.74550  Biso   1.000  C
  O237     1.0000 0.50890  0.55590  0.71370  Biso   1.000  O
  O238     1.0000 0.53930  0.69930  0.77610  Biso   1.000  O
  O239     1.0000 0.49260  0.77720  0.94220  Biso   1.000  O
  C336     1.0000 0.50770  0.78360  0.86320  Biso   1.000  C
  O240     1.0000 0.49260  0.55810  0.77750  Biso   1.000  O
  H237     1.0000 0.56230  0.79540  0.88400  Biso   1.000  H
  H238     1.0000 0.53310  0.73000  0.87760  Biso   1.000  H
  H239     1.0000 0.48770  0.72700  0.87180  Biso   1.000  H
  H240     1.0000 0.48450  0.79770  0.86980  Biso   1.000  H
  O241     1.0000 0.98730  0.14600  0.13750  Biso   1.000  O
  O242     1.0000 0.02560  0.19480  0.23400  Biso   1.000  O
  C337     1.0000 0.91220  0.40030  0.14230  Biso   1.000  C
  H241     1.0000 0.92730  0.40720  0.16380  Biso   1.000  H
  C338     1.0000 0.99210  0.11730  0.25670  Biso   1.000  C
  H242     1.0000 0.01320  0.12820  0.27210  Biso   1.000  H
  H243     1.0000 0.96770  0.12300  0.27020  Biso   1.000  H
  N49      1.0000 0.95870  0.30610  0.12540  Biso   1.000  N
  O243     1.0000 0.99120  0.21360  0.05550  Biso   1.000  O
  C339     1.0000 0.92240  0.36740  0.12010  Biso   1.000  C
  C340     1.0000 0.92300  0.12030  0.13220  Biso   1.000  C
  O244     1.0000 0.02550  0.26630  0.19540  Biso   1.000  O
  C341     1.0000 0.95860  0.13170  0.15480  Biso   1.000  C
  N50      1.0000 0.95850  0.12540  0.19340  Biso   1.000  N
  H244     1.0000 0.93870  0.11440  0.20430  Biso   1.000  H
  C342     1.0000 0.99150  0.13700  0.21680  Biso   1.000  C
  H245     1.0000 0.01540  0.12970  0.20280  Biso   1.000  H
  C343     1.0000 0.99260  0.24380  0.11730  Biso   1.000  C
  C344     1.0000 0.89990  0.08730  0.14250  Biso   1.000  C
  H246     1.0000 0.90660  0.07250  0.16440  Biso   1.000  H
  C345     1.0000 0.99290  0.18110  0.22460  Biso   1.000  C
  O245     1.0000 0.98740  0.36220  0.14570  Biso   1.000  O
  C346     1.0000 0.99300  0.27540  0.18170  Biso   1.000  C
  C347     1.0000 0.99700  0.24540  0.07370  Biso   1.000  C
  C348     1.0000 0.95850  0.34510  0.13150  Biso   1.000  C
  O246     1.0000 0.96100  0.27630  0.19925  Biso   1.000  O
  C349     1.0000 0.99720  0.07350  0.25450  Biso   1.000  C
  O247     1.0000 0.99110  0.05590  0.28630  Biso   1.000  O
  O248     1.0000 0.96070  0.19930  0.22390  Biso   1.000  O
  O249     1.0000 0.00740  0.27720  0.05780  Biso   1.000  O
  C350     1.0000 0.99230  0.28360  0.13680  Biso   1.000  C
  O250     1.0000 0.00740  0.05810  0.22250  Biso   1.000  O
  H247     1.0000 0.93770  0.29540  0.11600  Biso   1.000  H
  H248     1.0000 0.96690  0.23000  0.12240  Biso   1.000  H
  H249     1.0000 0.01230  0.22700  0.12820  Biso   1.000  H
  H250     1.0000 0.01550  0.29770  0.13020  Biso   1.000  H
  O251     1.0000 0.98730  0.64600  0.63750  Biso   1.000  O
  O252     1.0000 0.02560  0.69480  0.73400  Biso   1.000  O
  C351     1.0000 0.91220  0.90030  0.64230  Biso   1.000  C
  H251     1.0000 0.92730  0.90720  0.66380  Biso   1.000  H
  C352     1.0000 0.99210  0.61730  0.75670  Biso   1.000  C
  H252     1.0000 0.01320  0.62820  0.77210  Biso   1.000  H
  H253     1.0000 0.96770  0.62300  0.77020  Biso   1.000  H
  N51      1.0000 0.95870  0.80610  0.62540  Biso   1.000  N
  O253     1.0000 0.99120  0.71360  0.55550  Biso   1.000  O
  C353     1.0000 0.92240  0.86740  0.62010  Biso   1.000  C
  C354     1.0000 0.92300  0.62030  0.63220  Biso   1.000  C
  O254     1.0000 0.02550  0.76630  0.69540  Biso   1.000  O
  C355     1.0000 0.95860  0.63170  0.65480  Biso   1.000  C
  N52      1.0000 0.95850  0.62540  0.69340  Biso   1.000  N
  H254     1.0000 0.93870  0.61440  0.70430  Biso   1.000  H
  C356     1.0000 0.99150  0.63700  0.71680  Biso   1.000  C
  H255     1.0000 0.01540  0.62970  0.70280  Biso   1.000  H
  C357     1.0000 0.99260  0.74380  0.61730  Biso   1.000  C
  C358     1.0000 0.89990  0.58730  0.64250  Biso   1.000  C
  H256     1.0000 0.90660  0.57250  0.66440  Biso   1.000  H
  C359     1.0000 0.99290  0.68110  0.72460  Biso   1.000  C
  O255     1.0000 0.98740  0.86220  0.64570  Biso   1.000  O
  C360     1.0000 0.99300  0.77540  0.68170  Biso   1.000  C
  C361     1.0000 0.99700  0.74540  0.57370  Biso   1.000  C
  C362     1.0000 0.95850  0.84510  0.63150  Biso   1.000  C
  O256     1.0000 0.96100  0.77630  0.69925  Biso   1.000  O
  C363     1.0000 0.99720  0.57350  0.75450  Biso   1.000  C
  O257     1.0000 0.99110  0.55590  0.78630  Biso   1.000  O
  O258     1.0000 0.96070  0.69930  0.72390  Biso   1.000  O
  O259     1.0000 0.00740  0.77720  0.55780  Biso   1.000  O
  C364     1.0000 0.99230  0.78360  0.63680  Biso   1.000  C
  O260     1.0000 0.00740  0.55810  0.72250  Biso   1.000  O
  H257     1.0000 0.93770  0.79540  0.61600  Biso   1.000  H
  H258     1.0000 0.96690  0.73000  0.62240  Biso   1.000  H
  H259     1.0000 0.01230  0.72700  0.62820  Biso   1.000  H
  H260     1.0000 0.01550  0.79770  0.63020  Biso   1.000  H
  O261     1.0000 0.48730  0.14600  0.63750  Biso   1.000  O
  O262     1.0000 0.52560  0.19480  0.73400  Biso   1.000  O
  C365     1.0000 0.41220  0.40030  0.64230  Biso   1.000  C
  H261     1.0000 0.42730  0.40720  0.66380  Biso   1.000  H
  C366     1.0000 0.49210  0.11730  0.75670  Biso   1.000  C
  H262     1.0000 0.51320  0.12820  0.77210  Biso   1.000  H
  H263     1.0000 0.46770  0.12300  0.77020  Biso   1.000  H
  N53      1.0000 0.45870  0.30610  0.62540  Biso   1.000  N
  O263     1.0000 0.49120  0.21360  0.55550  Biso   1.000  O
  C367     1.0000 0.42240  0.36740  0.62010  Biso   1.000  C
  C368     1.0000 0.42300  0.12030  0.63220  Biso   1.000  C
  O264     1.0000 0.52550  0.26630  0.69540  Biso   1.000  O
  C369     1.0000 0.45860  0.13170  0.65480  Biso   1.000  C
  N54      1.0000 0.45850  0.12540  0.69340  Biso   1.000  N
  H264     1.0000 0.43870  0.11440  0.70430  Biso   1.000  H
  C370     1.0000 0.49150  0.13700  0.71680  Biso   1.000  C
  H265     1.0000 0.51540  0.12970  0.70280  Biso   1.000  H
  C371     1.0000 0.49260  0.24380  0.61730  Biso   1.000  C
  C372     1.0000 0.39990  0.08730  0.64250  Biso   1.000  C
  H266     1.0000 0.40660  0.07250  0.66440  Biso   1.000  H
  C373     1.0000 0.49290  0.18110  0.72460  Biso   1.000  C
  O265     1.0000 0.48740  0.36220  0.64570  Biso   1.000  O
  C374     1.0000 0.49300  0.27540  0.68170  Biso   1.000  C
  C375     1.0000 0.49700  0.24540  0.57370  Biso   1.000  C
  C376     1.0000 0.45850  0.34510  0.63150  Biso   1.000  C
  O266     1.0000 0.46100  0.27630  0.69925  Biso   1.000  O
  C377     1.0000 0.49720  0.07350  0.75450  Biso   1.000  C
  O267     1.0000 0.49110  0.05590  0.78630  Biso   1.000  O
  O268     1.0000 0.46070  0.19930  0.72390  Biso   1.000  O
  O269     1.0000 0.50740  0.27720  0.55780  Biso   1.000  O
  C378     1.0000 0.49230  0.28360  0.63680  Biso   1.000  C
  O270     1.0000 0.50740  0.05810  0.72250  Biso   1.000  O
  H267     1.0000 0.43770  0.29540  0.61600  Biso   1.000  H
  H268     1.0000 0.46690  0.23000  0.62240  Biso   1.000  H
  H269     1.0000 0.51230  0.22700  0.62820  Biso   1.000  H
  H270     1.0000 0.51550  0.29770  0.63020  Biso   1.000  H
  O271     1.0000 0.48730  0.64600  0.13750  Biso   1.000  O
  O272     1.0000 0.52560  0.69480  0.23400  Biso   1.000  O
  C379     1.0000 0.41220  0.90030  0.14230  Biso   1.000  C
  H271     1.0000 0.42730  0.90720  0.16380  Biso   1.000  H
  C380     1.0000 0.49210  0.61730  0.25670  Biso   1.000  C
  H272     1.0000 0.51320  0.62820  0.27210  Biso   1.000  H
  H273     1.0000 0.46770  0.62300  0.27020  Biso   1.000  H
  N55      1.0000 0.45870  0.80610  0.12540  Biso   1.000  N
  O273     1.0000 0.49120  0.71360  0.05550  Biso   1.000  O
  C381     1.0000 0.42240  0.86740  0.12010  Biso   1.000  C
  C382     1.0000 0.42300  0.62030  0.13220  Biso   1.000  C
  O274     1.0000 0.52550  0.76630  0.19540  Biso   1.000  O
  C383     1.0000 0.45860  0.63170  0.15480  Biso   1.000  C
  N56      1.0000 0.45850  0.62540  0.19340  Biso   1.000  N
  H274     1.0000 0.43870  0.61440  0.20430  Biso   1.000  H
  C384     1.0000 0.49150  0.63700  0.21680  Biso   1.000  C
  H275     1.0000 0.51540  0.62970  0.20280  Biso   1.000  H
  C385     1.0000 0.49260  0.74380  0.11730  Biso   1.000  C
  C386     1.0000 0.39990  0.58730  0.14250  Biso   1.000  C
  H276     1.0000 0.40660  0.57250  0.16440  Biso   1.000  H
  C387     1.0000 0.49290  0.68110  0.22460  Biso   1.000  C
  O275     1.0000 0.48740  0.86220  0.14570  Biso   1.000  O
  C388     1.0000 0.49300  0.77540  0.18170  Biso   1.000  C
  C389     1.0000 0.49700  0.74540  0.07370  Biso   1.000  C
  C390     1.0000 0.45850  0.84510  0.13150  Biso   1.000  C
  O276     1.0000 0.46100  0.77630  0.19925  Biso   1.000  O
  C391     1.0000 0.49720  0.57350  0.25450  Biso   1.000  C
  O277     1.0000 0.49110  0.55590  0.28630  Biso   1.000  O
  O278     1.0000 0.46070  0.69930  0.22390  Biso   1.000  O
  O279     1.0000 0.50740  0.77720  0.05780  Biso   1.000  O
  C392     1.0000 0.49230  0.78360  0.13680  Biso   1.000  C
  O280     1.0000 0.50740  0.55810  0.22250  Biso   1.000  O
  H277     1.0000 0.43770  0.79540  0.11600  Biso   1.000  H
  H278     1.0000 0.46690  0.73000  0.12240  Biso   1.000  H
  H279     1.0000 0.51230  0.72700  0.12820  Biso   1.000  H
  H280     1.0000 0.51550  0.79770  0.13020  Biso   1.000  H
  O281     1.0000 0.98730  0.85400  0.86250  Biso   1.000  O
  O282     1.0000 0.02560  0.80520  0.76600  Biso   1.000  O
  C393     1.0000 0.91220  0.59970  0.85770  Biso   1.000  C
  H281     1.0000 0.92730  0.59280  0.83620  Biso   1.000  H
  C394     1.0000 0.99210  0.88270  0.74330  Biso   1.000  C
  H282     1.0000 0.01320  0.87180  0.72790  Biso   1.000  H
  H283     1.0000 0.96770  0.87700  0.72980  Biso   1.000  H
  N57      1.0000 0.95870  0.69390  0.87460  Biso   1.000  N
  O283     1.0000 0.99120  0.78640  0.94450  Biso   1.000  O
  C395     1.0000 0.92240  0.63260  0.87990  Biso   1.000  C
  C396     1.0000 0.92300  0.87970  0.86780  Biso   1.000  C
  O284     1.0000 0.02550  0.73370  0.80460  Biso   1.000  O
  C397     1.0000 0.95860  0.86830  0.84520  Biso   1.000  C
  N58      1.0000 0.95850  0.87460  0.80660  Biso   1.000  N
  H284     1.0000 0.93870  0.88560  0.79570  Biso   1.000  H
  C398     1.0000 0.99150  0.86300  0.78320  Biso   1.000  C
  H285     1.0000 0.01540  0.87030  0.79720  Biso   1.000  H
  C399     1.0000 0.99260  0.75620  0.88270  Biso   1.000  C
  C400     1.0000 0.89990  0.91270  0.85750  Biso   1.000  C
  H286     1.0000 0.90660  0.92750  0.83560  Biso   1.000  H
  C401     1.0000 0.99290  0.81890  0.77540  Biso   1.000  C
  O285     1.0000 0.98740  0.63780  0.85430  Biso   1.000  O
  C402     1.0000 0.99300  0.72460  0.81830  Biso   1.000  C
  C403     1.0000 0.99700  0.75460  0.92630  Biso   1.000  C
  C404     1.0000 0.95850  0.65490  0.86850  Biso   1.000  C
  O286     1.0000 0.96100  0.72370  0.80075  Biso   1.000  O
  C405     1.0000 0.99720  0.92650  0.74550  Biso   1.000  C
  O287     1.0000 0.99110  0.94410  0.71370  Biso   1.000  O
  O288     1.0000 0.96070  0.80070  0.77610  Biso   1.000  O
  O289     1.0000 0.00740  0.72280  0.94220  Biso   1.000  O
  C406     1.0000 0.99230  0.71640  0.86320  Biso   1.000  C
  O290     1.0000 0.00740  0.94190  0.77750  Biso   1.000  O
  H287     1.0000 0.93770  0.70460  0.88400  Biso   1.000  H
  H288     1.0000 0.96690  0.77000  0.87760  Biso   1.000  H
  H289     1.0000 0.01230  0.77300  0.87180  Biso   1.000  H
  H290     1.0000 0.01550  0.70230  0.86980  Biso   1.000  H
  O291     1.0000 0.98730  0.35400  0.36250  Biso   1.000  O
  O292     1.0000 0.02560  0.30520  0.26600  Biso   1.000  O
  C407     1.0000 0.91220  0.09970  0.35770  Biso   1.000  C
  H291     1.0000 0.92730  0.09280  0.33620  Biso   1.000  H
  C408     1.0000 0.99210  0.38270  0.24330  Biso   1.000  C
  H292     1.0000 0.01320  0.37180  0.22790  Biso   1.000  H
  H293     1.0000 0.96770  0.37700  0.22980  Biso   1.000  H
  N59      1.0000 0.95870  0.19390  0.37460  Biso   1.000  N
  O293     1.0000 0.99120  0.28640  0.44450  Biso   1.000  O
  C409     1.0000 0.92240  0.13260  0.37990  Biso   1.000  C
  C410     1.0000 0.92300  0.37970  0.36780  Biso   1.000  C
  O294     1.0000 0.02550  0.23370  0.30460  Biso   1.000  O
  C411     1.0000 0.95860  0.36830  0.34520  Biso   1.000  C
  N60      1.0000 0.95850  0.37460  0.30660  Biso   1.000  N
  H294     1.0000 0.93870  0.38560  0.29570  Biso   1.000  H
  C412     1.0000 0.99150  0.36300  0.28320  Biso   1.000  C
  H295     1.0000 0.01540  0.37030  0.29720  Biso   1.000  H
  C413     1.0000 0.99260  0.25620  0.38270  Biso   1.000  C
  C414     1.0000 0.89990  0.41270  0.35750  Biso   1.000  C
  H296     1.0000 0.90660  0.42750  0.33560  Biso   1.000  H
  C415     1.0000 0.99290  0.31890  0.27540  Biso   1.000  C
  O295     1.0000 0.98740  0.13780  0.35430  Biso   1.000  O
  C416     1.0000 0.99300  0.22460  0.31830  Biso   1.000  C
  C417     1.0000 0.99700  0.25460  0.42630  Biso   1.000  C
  C418     1.0000 0.95850  0.15490  0.36850  Biso   1.000  C
  O296     1.0000 0.96100  0.22370  0.30075  Biso   1.000  O
  C419     1.0000 0.99720  0.42650  0.24550  Biso   1.000  C
  O297     1.0000 0.99110  0.44410  0.21370  Biso   1.000  O
  O298     1.0000 0.96070  0.30070  0.27610  Biso   1.000  O
  O299     1.0000 0.00740  0.22280  0.44220  Biso   1.000  O
  C420     1.0000 0.99230  0.21640  0.36320  Biso   1.000  C
  O300     1.0000 0.00740  0.44190  0.27750  Biso   1.000  O
  H297     1.0000 0.93770  0.20460  0.38400  Biso   1.000  H
  H298     1.0000 0.96690  0.27000  0.37760  Biso   1.000  H
  H299     1.0000 0.01230  0.27300  0.37180  Biso   1.000  H
  H300     1.0000 0.01550  0.20230  0.36980  Biso   1.000  H
  O301     1.0000 0.48730  0.85400  0.36250  Biso   1.000  O
  O302     1.0000 0.52560  0.80520  0.26600  Biso   1.000  O
  C421     1.0000 0.41220  0.59970  0.35770  Biso   1.000  C
  H301     1.0000 0.42730  0.59280  0.33620  Biso   1.000  H
  C422     1.0000 0.49210  0.88270  0.24330  Biso   1.000  C
  H302     1.0000 0.51320  0.87180  0.22790  Biso   1.000  H
  H303     1.0000 0.46770  0.87700  0.22980  Biso   1.000  H
  N61      1.0000 0.45870  0.69390  0.37460  Biso   1.000  N
  O303     1.0000 0.49120  0.78640  0.44450  Biso   1.000  O
  C423     1.0000 0.42240  0.63260  0.37990  Biso   1.000  C
  C424     1.0000 0.42300  0.87970  0.36780  Biso   1.000  C
  O304     1.0000 0.52550  0.73370  0.30460  Biso   1.000  O
  C425     1.0000 0.45860  0.86830  0.34520  Biso   1.000  C
  N62      1.0000 0.45850  0.87460  0.30660  Biso   1.000  N
  H304     1.0000 0.43870  0.88560  0.29570  Biso   1.000  H
  C426     1.0000 0.49150  0.86300  0.28320  Biso   1.000  C
  H305     1.0000 0.51540  0.87030  0.29720  Biso   1.000  H
  C427     1.0000 0.49260  0.75620  0.38270  Biso   1.000  C
  C428     1.0000 0.39990  0.91270  0.35750  Biso   1.000  C
  H306     1.0000 0.40660  0.92750  0.33560  Biso   1.000  H
  C429     1.0000 0.49290  0.81890  0.27540  Biso   1.000  C
  O305     1.0000 0.48740  0.63780  0.35430  Biso   1.000  O
  C430     1.0000 0.49300  0.72460  0.31830  Biso   1.000  C
  C431     1.0000 0.49700  0.75460  0.42630  Biso   1.000  C
  C432     1.0000 0.45850  0.65490  0.36850  Biso   1.000  C
  O306     1.0000 0.46100  0.72370  0.30075  Biso   1.000  O
  C433     1.0000 0.49720  0.92650  0.24550  Biso   1.000  C
  O307     1.0000 0.49110  0.94410  0.21370  Biso   1.000  O
  O308     1.0000 0.46070  0.80070  0.27610  Biso   1.000  O
  O309     1.0000 0.50740  0.72280  0.44220  Biso   1.000  O
  C434     1.0000 0.49230  0.71640  0.36320  Biso   1.000  C
  O310     1.0000 0.50740  0.94190  0.27750  Biso   1.000  O
  H307     1.0000 0.43770  0.70460  0.38400  Biso   1.000  H
  H308     1.0000 0.46690  0.77000  0.37760  Biso   1.000  H
  H309     1.0000 0.51230  0.77300  0.37180  Biso   1.000  H
  H310     1.0000 0.51550  0.70230  0.36980  Biso   1.000  H
  O311     1.0000 0.48730  0.35400  0.86250  Biso   1.000  O
  O312     1.0000 0.52560  0.30520  0.76600  Biso   1.000  O
  C435     1.0000 0.41220  0.09970  0.85770  Biso   1.000  C
  H311     1.0000 0.42730  0.09280  0.83620  Biso   1.000  H
  C436     1.0000 0.49210  0.38270  0.74330  Biso   1.000  C
  H312     1.0000 0.51320  0.37180  0.72790  Biso   1.000  H
  H313     1.0000 0.46770  0.37700  0.72980  Biso   1.000  H
  N63      1.0000 0.45870  0.19390  0.87460  Biso   1.000  N
  O313     1.0000 0.49120  0.28640  0.94450  Biso   1.000  O
  C437     1.0000 0.42240  0.13260  0.87990  Biso   1.000  C
  C438     1.0000 0.42300  0.37970  0.86780  Biso   1.000  C
  O314     1.0000 0.52550  0.23370  0.80460  Biso   1.000  O
  C439     1.0000 0.45860  0.36830  0.84520  Biso   1.000  C
  N64      1.0000 0.45850  0.37460  0.80660  Biso   1.000  N
  H314     1.0000 0.43870  0.38560  0.79570  Biso   1.000  H
  C440     1.0000 0.49150  0.36300  0.78320  Biso   1.000  C
  H315     1.0000 0.51540  0.37030  0.79720  Biso   1.000  H
  C441     1.0000 0.49260  0.25620  0.88270  Biso   1.000  C
  C442     1.0000 0.39990  0.41270  0.85750  Biso   1.000  C
  H316     1.0000 0.40660  0.42750  0.83560  Biso   1.000  H
  C443     1.0000 0.49290  0.31890  0.77540  Biso   1.000  C
  O315     1.0000 0.48740  0.13780  0.85430  Biso   1.000  O
  C444     1.0000 0.49300  0.22460  0.81830  Biso   1.000  C
  C445     1.0000 0.49700  0.25460  0.92630  Biso   1.000  C
  C446     1.0000 0.45850  0.15490  0.86850  Biso   1.000  C
  O316     1.0000 0.46100  0.22370  0.80075  Biso   1.000  O
  C447     1.0000 0.49720  0.42650  0.74550  Biso   1.000  C
  O317     1.0000 0.49110  0.44410  0.71370  Biso   1.000  O
  O318     1.0000 0.46070  0.30070  0.77610  Biso   1.000  O
  O319     1.0000 0.50740  0.22280  0.94220  Biso   1.000  O
  C448     1.0000 0.49230  0.21640  0.86320  Biso   1.000  C
  O320     1.0000 0.50740  0.44190  0.77750  Biso   1.000  O
  H317     1.0000 0.43770  0.20460  0.88400  Biso   1.000  H
  H318     1.0000 0.46690  0.27000  0.87760  Biso   1.000  H
  H319     1.0000 0.51230  0.27300  0.87180  Biso   1.000  H
  H320     1.0000 0.51550  0.20230  0.86980  Biso   1.000  H
  O321     1.0000 0.13750  0.01270  0.85400  Biso   1.000  O
  O322     1.0000 0.23400  0.97440  0.80520  Biso   1.000  O
  C449     1.0000 0.14230  0.08780  0.59970  Biso   1.000  C
  H321     1.0000 0.16380  0.07270  0.59280  Biso   1.000  H
  C450     1.0000 0.25670  0.00790  0.88270  Biso   1.000  C
  H322     1.0000 0.27210  0.98680  0.87180  Biso   1.000  H
  H323     1.0000 0.27020  0.03230  0.87700  Biso   1.000  H
  N65      1.0000 0.12540  0.04130  0.69390  Biso   1.000  N
  O323     1.0000 0.05550  0.00880  0.78640  Biso   1.000  O
  C451     1.0000 0.12010  0.07760  0.63260  Biso   1.000  C
  C452     1.0000 0.13220  0.07700  0.87970  Biso   1.000  C
  O324     1.0000 0.19540  0.97450  0.73370  Biso   1.000  O
  C453     1.0000 0.15480  0.04140  0.86830  Biso   1.000  C
  N66      1.0000 0.19340  0.04150  0.87460  Biso   1.000  N
  H324     1.0000 0.20430  0.06130  0.88560  Biso   1.000  H
  C454     1.0000 0.21680  0.00850  0.86300  Biso   1.000  C
  H325     1.0000 0.20280  0.98460  0.87030  Biso   1.000  H
  C455     1.0000 0.11730  0.00740  0.75620  Biso   1.000  C
  C456     1.0000 0.14250  0.10010  0.91270  Biso   1.000  C
  H326     1.0000 0.16440  0.09340  0.92750  Biso   1.000  H
  C457     1.0000 0.22460  0.00710  0.81890  Biso   1.000  C
  O325     1.0000 0.14570  0.01260  0.63780  Biso   1.000  O
  C458     1.0000 0.18170  0.00700  0.72460  Biso   1.000  C
  C459     1.0000 0.07370  0.00300  0.75460  Biso   1.000  C
  C460     1.0000 0.13150  0.04150  0.65490  Biso   1.000  C
  O326     1.0000 0.19925  0.03900  0.72370  Biso   1.000  O
  C461     1.0000 0.25450  0.00280  0.92650  Biso   1.000  C
  O327     1.0000 0.28630  0.00890  0.94410  Biso   1.000  O
  O328     1.0000 0.22390  0.03930  0.80070  Biso   1.000  O
  O329     1.0000 0.05780  0.99260  0.72280  Biso   1.000  O
  C462     1.0000 0.13680  0.00770  0.71640  Biso   1.000  C
  O330     1.0000 0.22250  0.99260  0.94190  Biso   1.000  O
  H327     1.0000 0.11600  0.06230  0.70460  Biso   1.000  H
  H328     1.0000 0.12240  0.03310  0.77000  Biso   1.000  H
  H329     1.0000 0.12820  0.98770  0.77300  Biso   1.000  H
  H330     1.0000 0.13020  0.98450  0.70230  Biso   1.000  H
  O331     1.0000 0.13750  0.51270  0.35400  Biso   1.000  O
  O332     1.0000 0.23400  0.47440  0.30520  Biso   1.000  O
  C463     1.0000 0.14230  0.58780  0.09970  Biso   1.000  C
  H331     1.0000 0.16380  0.57270  0.09280  Biso   1.000  H
  C464     1.0000 0.25670  0.50790  0.38270  Biso   1.000  C
  H332     1.0000 0.27210  0.48680  0.37180  Biso   1.000  H
  H333     1.0000 0.27020  0.53230  0.37700  Biso   1.000  H
  N67      1.0000 0.12540  0.54130  0.19390  Biso   1.000  N
  O333     1.0000 0.05550  0.50880  0.28640  Biso   1.000  O
  C465     1.0000 0.12010  0.57760  0.13260  Biso   1.000  C
  C466     1.0000 0.13220  0.57700  0.37970  Biso   1.000  C
  O334     1.0000 0.19540  0.47450  0.23370  Biso   1.000  O
  C467     1.0000 0.15480  0.54140  0.36830  Biso   1.000  C
  N68      1.0000 0.19340  0.54150  0.37460  Biso   1.000  N
  H334     1.0000 0.20430  0.56130  0.38560  Biso   1.000  H
  C468     1.0000 0.21680  0.50850  0.36300  Biso   1.000  C
  H335     1.0000 0.20280  0.48460  0.37030  Biso   1.000  H
  C469     1.0000 0.11730  0.50740  0.25620  Biso   1.000  C
  C470     1.0000 0.14250  0.60010  0.41270  Biso   1.000  C
  H336     1.0000 0.16440  0.59340  0.42750  Biso   1.000  H
  C471     1.0000 0.22460  0.50710  0.31890  Biso   1.000  C
  O335     1.0000 0.14570  0.51260  0.13780  Biso   1.000  O
  C472     1.0000 0.18170  0.50700  0.22460  Biso   1.000  C
  C473     1.0000 0.07370  0.50300  0.25460  Biso   1.000  C
  C474     1.0000 0.13150  0.54150  0.15490  Biso   1.000  C
  O336     1.0000 0.19925  0.53900  0.22370  Biso   1.000  O
  C475     1.0000 0.25450  0.50280  0.42650  Biso   1.000  C
  O337     1.0000 0.28630  0.50890  0.44410  Biso   1.000  O
  O338     1.0000 0.22390  0.53930  0.30070  Biso   1.000  O
  O339     1.0000 0.05780  0.49260  0.22280  Biso   1.000  O
  C476     1.0000 0.13680  0.50770  0.21640  Biso   1.000  C
  O340     1.0000 0.22250  0.49260  0.44190  Biso   1.000  O
  H337     1.0000 0.11600  0.56230  0.20460  Biso   1.000  H
  H338     1.0000 0.12240  0.53310  0.27000  Biso   1.000  H
  H339     1.0000 0.12820  0.48770  0.27300  Biso   1.000  H
  H340     1.0000 0.13020  0.48450  0.20230  Biso   1.000  H
  O341     1.0000 0.63750  0.01270  0.35400  Biso   1.000  O
  O342     1.0000 0.73400  0.97440  0.30520  Biso   1.000  O
  C477     1.0000 0.64230  0.08780  0.09970  Biso   1.000  C
  H341     1.0000 0.66380  0.07270  0.09280  Biso   1.000  H
  C478     1.0000 0.75670  0.00790  0.38270  Biso   1.000  C
  H342     1.0000 0.77210  0.98680  0.37180  Biso   1.000  H
  H343     1.0000 0.77020  0.03230  0.37700  Biso   1.000  H
  N69      1.0000 0.62540  0.04130  0.19390  Biso   1.000  N
  O343     1.0000 0.55550  0.00880  0.28640  Biso   1.000  O
  C479     1.0000 0.62010  0.07760  0.13260  Biso   1.000  C
  C480     1.0000 0.63220  0.07700  0.37970  Biso   1.000  C
  O344     1.0000 0.69540  0.97450  0.23370  Biso   1.000  O
  C481     1.0000 0.65480  0.04140  0.36830  Biso   1.000  C
  N70      1.0000 0.69340  0.04150  0.37460  Biso   1.000  N
  H344     1.0000 0.70430  0.06130  0.38560  Biso   1.000  H
  C482     1.0000 0.71680  0.00850  0.36300  Biso   1.000  C
  H345     1.0000 0.70280  0.98460  0.37030  Biso   1.000  H
  C483     1.0000 0.61730  0.00740  0.25620  Biso   1.000  C
  C484     1.0000 0.64250  0.10010  0.41270  Biso   1.000  C
  H346     1.0000 0.66440  0.09340  0.42750  Biso   1.000  H
  C485     1.0000 0.72460  0.00710  0.31890  Biso   1.000  C
  O345     1.0000 0.64570  0.01260  0.13780  Biso   1.000  O
  C486     1.0000 0.68170  0.00700  0.22460  Biso   1.000  C
  C487     1.0000 0.57370  0.00300  0.25460  Biso   1.000  C
  C488     1.0000 0.63150  0.04150  0.15490  Biso   1.000  C
  O346     1.0000 0.69925  0.03900  0.22370  Biso   1.000  O
  C489     1.0000 0.75450  0.00280  0.42650  Biso   1.000  C
  O347     1.0000 0.78630  0.00890  0.44410  Biso   1.000  O
  O348     1.0000 0.72390  0.03930  0.30070  Biso   1.000  O
  O349     1.0000 0.55780  0.99260  0.22280  Biso   1.000  O
  C490     1.0000 0.63680  0.00770  0.21640  Biso   1.000  C
  O350     1.0000 0.72250  0.99260  0.44190  Biso   1.000  O
  H347     1.0000 0.61600  0.06230  0.20460  Biso   1.000  H
  H348     1.0000 0.62240  0.03310  0.27000  Biso   1.000  H
  H349     1.0000 0.62820  0.98770  0.27300  Biso   1.000  H
  H350     1.0000 0.63020  0.98450  0.20230  Biso   1.000  H
  O351     1.0000 0.63750  0.51270  0.85400  Biso   1.000  O
  O352     1.0000 0.73400  0.47440  0.80520  Biso   1.000  O
  C491     1.0000 0.64230  0.58780  0.59970  Biso   1.000  C
  H351     1.0000 0.66380  0.57270  0.59280  Biso   1.000  H
  C492     1.0000 0.75670  0.50790  0.88270  Biso   1.000  C
  H352     1.0000 0.77210  0.48680  0.87180  Biso   1.000  H
  H353     1.0000 0.77020  0.53230  0.87700  Biso   1.000  H
  N71      1.0000 0.62540  0.54130  0.69390  Biso   1.000  N
  O353     1.0000 0.55550  0.50880  0.78640  Biso   1.000  O
  C493     1.0000 0.62010  0.57760  0.63260  Biso   1.000  C
  C494     1.0000 0.63220  0.57700  0.87970  Biso   1.000  C
  O354     1.0000 0.69540  0.47450  0.73370  Biso   1.000  O
  C495     1.0000 0.65480  0.54140  0.86830  Biso   1.000  C
  N72      1.0000 0.69340  0.54150  0.87460  Biso   1.000  N
  H354     1.0000 0.70430  0.56130  0.88560  Biso   1.000  H
  C496     1.0000 0.71680  0.50850  0.86300  Biso   1.000  C
  H355     1.0000 0.70280  0.48460  0.87030  Biso   1.000  H
  C497     1.0000 0.61730  0.50740  0.75620  Biso   1.000  C
  C498     1.0000 0.64250  0.60010  0.91270  Biso   1.000  C
  H356     1.0000 0.66440  0.59340  0.92750  Biso   1.000  H
  C499     1.0000 0.72460  0.50710  0.81890  Biso   1.000  C
  O355     1.0000 0.64570  0.51260  0.63780  Biso   1.000  O
  C500     1.0000 0.68170  0.50700  0.72460  Biso   1.000  C
  C501     1.0000 0.57370  0.50300  0.75460  Biso   1.000  C
  C502     1.0000 0.63150  0.54150  0.65490  Biso   1.000  C
  O356     1.0000 0.69925  0.53900  0.72370  Biso   1.000  O
  C503     1.0000 0.75450  0.50280  0.92650  Biso   1.000  C
  O357     1.0000 0.78630  0.50890  0.94410  Biso   1.000  O
  O358     1.0000 0.72390  0.53930  0.80070  Biso   1.000  O
  O359     1.0000 0.55780  0.49260  0.72280  Biso   1.000  O
  C504     1.0000 0.63680  0.50770  0.71640  Biso   1.000  C
  O360     1.0000 0.72250  0.49260  0.94190  Biso   1.000  O
  H357     1.0000 0.61600  0.56230  0.70460  Biso   1.000  H
  H358     1.0000 0.62240  0.53310  0.77000  Biso   1.000  H
  H359     1.0000 0.62820  0.48770  0.77300  Biso   1.000  H
  H360     1.0000 0.63020  0.48450  0.70230  Biso   1.000  H
  O361     1.0000 0.86250  0.01270  0.14600  Biso   1.000  O
  O362     1.0000 0.76600  0.97440  0.19480  Biso   1.000  O
  C505     1.0000 0.85770  0.08780  0.40030  Biso   1.000  C
  H361     1.0000 0.83620  0.07270  0.40720  Biso   1.000  H
  C506     1.0000 0.74330  0.00790  0.11730  Biso   1.000  C
  H362     1.0000 0.72790  0.98680  0.12820  Biso   1.000  H
  H363     1.0000 0.72980  0.03230  0.12300  Biso   1.000  H
  N73      1.0000 0.87460  0.04130  0.30610  Biso   1.000  N
  O363     1.0000 0.94450  0.00880  0.21360  Biso   1.000  O
  C507     1.0000 0.87990  0.07760  0.36740  Biso   1.000  C
  C508     1.0000 0.86780  0.07700  0.12030  Biso   1.000  C
  O364     1.0000 0.80460  0.97450  0.26630  Biso   1.000  O
  C509     1.0000 0.84520  0.04140  0.13170  Biso   1.000  C
  N74      1.0000 0.80660  0.04150  0.12540  Biso   1.000  N
  H364     1.0000 0.79570  0.06130  0.11440  Biso   1.000  H
  C510     1.0000 0.78320  0.00850  0.13700  Biso   1.000  C
  H365     1.0000 0.79720  0.98460  0.12970  Biso   1.000  H
  C511     1.0000 0.88270  0.00740  0.24380  Biso   1.000  C
  C512     1.0000 0.85750  0.10010  0.08730  Biso   1.000  C
  H366     1.0000 0.83560  0.09340  0.07250  Biso   1.000  H
  C513     1.0000 0.77540  0.00710  0.18110  Biso   1.000  C
  O365     1.0000 0.85430  0.01260  0.36220  Biso   1.000  O
  C514     1.0000 0.81830  0.00700  0.27540  Biso   1.000  C
  C515     1.0000 0.92630  0.00300  0.24540  Biso   1.000  C
  C516     1.0000 0.86850  0.04150  0.34510  Biso   1.000  C
  O366     1.0000 0.80075  0.03900  0.27630  Biso   1.000  O
  C517     1.0000 0.74550  0.00280  0.07350  Biso   1.000  C
  O367     1.0000 0.71370  0.00890  0.05590  Biso   1.000  O
  O368     1.0000 0.77610  0.03930  0.19930  Biso   1.000  O
  O369     1.0000 0.94220  0.99260  0.27720  Biso   1.000  O
  C518     1.0000 0.86320  0.00770  0.28360  Biso   1.000  C
  O370     1.0000 0.77750  0.99260  0.05810  Biso   1.000  O
  H367     1.0000 0.88400  0.06230  0.29540  Biso   1.000  H
  H368     1.0000 0.87760  0.03310  0.23000  Biso   1.000  H
  H369     1.0000 0.87180  0.98770  0.22700  Biso   1.000  H
  H370     1.0000 0.86980  0.98450  0.29770  Biso   1.000  H
  O371     1.0000 0.86250  0.51270  0.64600  Biso   1.000  O
  O372     1.0000 0.76600  0.47440  0.69480  Biso   1.000  O
  C519     1.0000 0.85770  0.58780  0.90030  Biso   1.000  C
  H371     1.0000 0.83620  0.57270  0.90720  Biso   1.000  H
  C520     1.0000 0.74330  0.50790  0.61730  Biso   1.000  C
  H372     1.0000 0.72790  0.48680  0.62820  Biso   1.000  H
  H373     1.0000 0.72980  0.53230  0.62300  Biso   1.000  H
  N75      1.0000 0.87460  0.54130  0.80610  Biso   1.000  N
  O373     1.0000 0.94450  0.50880  0.71360  Biso   1.000  O
  C521     1.0000 0.87990  0.57760  0.86740  Biso   1.000  C
  C522     1.0000 0.86780  0.57700  0.62030  Biso   1.000  C
  O374     1.0000 0.80460  0.47450  0.76630  Biso   1.000  O
  C523     1.0000 0.84520  0.54140  0.63170  Biso   1.000  C
  N76      1.0000 0.80660  0.54150  0.62540  Biso   1.000  N
  H374     1.0000 0.79570  0.56130  0.61440  Biso   1.000  H
  C524     1.0000 0.78320  0.50850  0.63700  Biso   1.000  C
  H375     1.0000 0.79720  0.48460  0.62970  Biso   1.000  H
  C525     1.0000 0.88270  0.50740  0.74380  Biso   1.000  C
  C526     1.0000 0.85750  0.60010  0.58730  Biso   1.000  C
  H376     1.0000 0.83560  0.59340  0.57250  Biso   1.000  H
  C527     1.0000 0.77540  0.50710  0.68110  Biso   1.000  C
  O375     1.0000 0.85430  0.51260  0.86220  Biso   1.000  O
  C528     1.0000 0.81830  0.50700  0.77540  Biso   1.000  C
  C529     1.0000 0.92630  0.50300  0.74540  Biso   1.000  C
  C530     1.0000 0.86850  0.54150  0.84510  Biso   1.000  C
  O376     1.0000 0.80075  0.53900  0.77630  Biso   1.000  O
  C531     1.0000 0.74550  0.50280  0.57350  Biso   1.000  C
  O377     1.0000 0.71370  0.50890  0.55590  Biso   1.000  O
  O378     1.0000 0.77610  0.53930  0.69930  Biso   1.000  O
  O379     1.0000 0.94220  0.49260  0.77720  Biso   1.000  O
  C532     1.0000 0.86320  0.50770  0.78360  Biso   1.000  C
  O380     1.0000 0.77750  0.49260  0.55810  Biso   1.000  O
  H377     1.0000 0.88400  0.56230  0.79540  Biso   1.000  H
  H378     1.0000 0.87760  0.53310  0.73000  Biso   1.000  H
  H379     1.0000 0.87180  0.48770  0.72700  Biso   1.000  H
  H380     1.0000 0.86980  0.48450  0.79770  Biso   1.000  H
  O381     1.0000 0.36250  0.01270  0.64600  Biso   1.000  O
  O382     1.0000 0.26600  0.97440  0.69480  Biso   1.000  O
  C533     1.0000 0.35770  0.08780  0.90030  Biso   1.000  C
  H381     1.0000 0.33620  0.07270  0.90720  Biso   1.000  H
  C534     1.0000 0.24330  0.00790  0.61730  Biso   1.000  C
  H382     1.0000 0.22790  0.98680  0.62820  Biso   1.000  H
  H383     1.0000 0.22980  0.03230  0.62300  Biso   1.000  H
  N77      1.0000 0.37460  0.04130  0.80610  Biso   1.000  N
  O383     1.0000 0.44450  0.00880  0.71360  Biso   1.000  O
  C535     1.0000 0.37990  0.07760  0.86740  Biso   1.000  C
  C536     1.0000 0.36780  0.07700  0.62030  Biso   1.000  C
  O384     1.0000 0.30460  0.97450  0.76630  Biso   1.000  O
  C537     1.0000 0.34520  0.04140  0.63170  Biso   1.000  C
  N78      1.0000 0.30660  0.04150  0.62540  Biso   1.000  N
  H384     1.0000 0.29570  0.06130  0.61440  Biso   1.000  H
  C538     1.0000 0.28320  0.00850  0.63700  Biso   1.000  C
  H385     1.0000 0.29720  0.98460  0.62970  Biso   1.000  H
  C539     1.0000 0.38270  0.00740  0.74380  Biso   1.000  C
  C540     1.0000 0.35750  0.10010  0.58730  Biso   1.000  C
  H386     1.0000 0.33560  0.09340  0.57250  Biso   1.000  H
  C541     1.0000 0.27540  0.00710  0.68110  Biso   1.000  C
  O385     1.0000 0.35430  0.01260  0.86220  Biso   1.000  O
  C542     1.0000 0.31830  0.00700  0.77540  Biso   1.000  C
  C543     1.0000 0.42630  0.00300  0.74540  Biso   1.000  C
  C544     1.0000 0.36850  0.04150  0.84510  Biso   1.000  C
  O386     1.0000 0.30075  0.03900  0.77630  Biso   1.000  O
  C545     1.0000 0.24550  0.00280  0.57350  Biso   1.000  C
  O387     1.0000 0.21370  0.00890  0.55590  Biso   1.000  O
  O388     1.0000 0.27610  0.03930  0.69930  Biso   1.000  O
  O389     1.0000 0.44220  0.99260  0.77720  Biso   1.000  O
  C546     1.0000 0.36320  0.00770  0.78360  Biso   1.000  C
  O390     1.0000 0.27750  0.99260  0.55810  Biso   1.000  O
  H387     1.0000 0.38400  0.06230  0.79540  Biso   1.000  H
  H388     1.0000 0.37760  0.03310  0.73000  Biso   1.000  H
  H389     1.0000 0.37180  0.98770  0.72700  Biso   1.000  H
  H390     1.0000 0.36980  0.98450  0.79770  Biso   1.000  H
  O391     1.0000 0.36250  0.51270  0.14600  Biso   1.000  O
  O392     1.0000 0.26600  0.47440  0.19480  Biso   1.000  O
  C547     1.0000 0.35770  0.58780  0.40030  Biso   1.000  C
  H391     1.0000 0.33620  0.57270  0.40720  Biso   1.000  H
  C548     1.0000 0.24330  0.50790  0.11730  Biso   1.000  C
  H392     1.0000 0.22790  0.48680  0.12820  Biso   1.000  H
  H393     1.0000 0.22980  0.53230  0.12300  Biso   1.000  H
  N79      1.0000 0.37460  0.54130  0.30610  Biso   1.000  N
  O393     1.0000 0.44450  0.50880  0.21360  Biso   1.000  O
  C549     1.0000 0.37990  0.57760  0.36740  Biso   1.000  C
  C550     1.0000 0.36780  0.57700  0.12030  Biso   1.000  C
  O394     1.0000 0.30460  0.47450  0.26630  Biso   1.000  O
  C551     1.0000 0.34520  0.54140  0.13170  Biso   1.000  C
  N80      1.0000 0.30660  0.54150  0.12540  Biso   1.000  N
  H394     1.0000 0.29570  0.56130  0.11440  Biso   1.000  H
  C552     1.0000 0.28320  0.50850  0.13700  Biso   1.000  C
  H395     1.0000 0.29720  0.48460  0.12970  Biso   1.000  H
  C553     1.0000 0.38270  0.50740  0.24380  Biso   1.000  C
  C554     1.0000 0.35750  0.60010  0.08730  Biso   1.000  C
  H396     1.0000 0.33560  0.59340  0.07250  Biso   1.000  H
  C555     1.0000 0.27540  0.50710  0.18110  Biso   1.000  C
  O395     1.0000 0.35430  0.51260  0.36220  Biso   1.000  O
  C556     1.0000 0.31830  0.50700  0.27540  Biso   1.000  C
  C557     1.0000 0.42630  0.50300  0.24540  Biso   1.000  C
  C558     1.0000 0.36850  0.54150  0.34510  Biso   1.000  C
  O396     1.0000 0.30075  0.53900  0.27630  Biso   1.000  O
  C559     1.0000 0.24550  0.50280  0.07350  Biso   1.000  C
  O397     1.0000 0.21370  0.50890  0.05590  Biso   1.000  O
  O398     1.0000 0.27610  0.53930  0.19930  Biso   1.000  O
  O399     1.0000 0.44220  0.49260  0.27720  Biso   1.000  O
  C560     1.0000 0.36320  0.50770  0.28360  Biso   1.000  C
  O400     1.0000 0.27750  0.49260  0.05810  Biso   1.000  O
  H397     1.0000 0.38400  0.56230  0.29540  Biso   1.000  H
  H398     1.0000 0.37760  0.53310  0.23000  Biso   1.000  H
  H399     1.0000 0.37180  0.48770  0.22700  Biso   1.000  H
  H400     1.0000 0.36980  0.48450  0.29770  Biso   1.000  H
  O401     1.0000 0.13750  0.98730  0.14600  Biso   1.000  O
  O402     1.0000 0.23400  0.02560  0.19480  Biso   1.000  O
  C561     1.0000 0.14230  0.91220  0.40030  Biso   1.000  C
  H401     1.0000 0.16380  0.92730  0.40720  Biso   1.000  H
  C562     1.0000 0.25670  0.99210  0.11730  Biso   1.000  C
  H402     1.0000 0.27210  0.01320  0.12820  Biso   1.000  H
  H403     1.0000 0.27020  0.96770  0.12300  Biso   1.000  H
  N81      1.0000 0.12540  0.95870  0.30610  Biso   1.000  N
  O403     1.0000 0.05550  0.99120  0.21360  Biso   1.000  O
  C563     1.0000 0.12010  0.92240  0.36740  Biso   1.000  C
  C564     1.0000 0.13220  0.92300  0.12030  Biso   1.000  C
  O404     1.0000 0.19540  0.02550  0.26630  Biso   1.000  O
  C565     1.0000 0.15480  0.95860  0.13170  Biso   1.000  C
  N82      1.0000 0.19340  0.95850  0.12540  Biso   1.000  N
  H404     1.0000 0.20430  0.93870  0.11440  Biso   1.000  H
  C566     1.0000 0.21680  0.99150  0.13700  Biso   1.000  C
  H405     1.0000 0.20280  0.01540  0.12970  Biso   1.000  H
  C567     1.0000 0.11730  0.99260  0.24380  Biso   1.000  C
  C568     1.0000 0.14250  0.89990  0.08730  Biso   1.000  C
  H406     1.0000 0.16440  0.90660  0.07250  Biso   1.000  H
  C569     1.0000 0.22460  0.99290  0.18110  Biso   1.000  C
  O405     1.0000 0.14570  0.98740  0.36220  Biso   1.000  O
  C570     1.0000 0.18170  0.99300  0.27540  Biso   1.000  C
  C571     1.0000 0.07370  0.99700  0.24540  Biso   1.000  C
  C572     1.0000 0.13150  0.95850  0.34510  Biso   1.000  C
  O406     1.0000 0.19925  0.96100  0.27630  Biso   1.000  O
  C573     1.0000 0.25450  0.99720  0.07350  Biso   1.000  C
  O407     1.0000 0.28630  0.99110  0.05590  Biso   1.000  O
  O408     1.0000 0.22390  0.96070  0.19930  Biso   1.000  O
  O409     1.0000 0.05780  0.00740  0.27720  Biso   1.000  O
  C574     1.0000 0.13680  0.99230  0.28360  Biso   1.000  C
  O410     1.0000 0.22250  0.00740  0.05810  Biso   1.000  O
  H407     1.0000 0.11600  0.93770  0.29540  Biso   1.000  H
  H408     1.0000 0.12240  0.96690  0.23000  Biso   1.000  H
  H409     1.0000 0.12820  0.01230  0.22700  Biso   1.000  H
  H410     1.0000 0.13020  0.01550  0.29770  Biso   1.000  H
  O411     1.0000 0.13750  0.48730  0.64600  Biso   1.000  O
  O412     1.0000 0.23400  0.52560  0.69480  Biso   1.000  O
  C575     1.0000 0.14230  0.41220  0.90030  Biso   1.000  C
  H411     1.0000 0.16380  0.42730  0.90720  Biso   1.000  H
  C576     1.0000 0.25670  0.49210  0.61730  Biso   1.000  C
  H412     1.0000 0.27210  0.51320  0.62820  Biso   1.000  H
  H413     1.0000 0.27020  0.46770  0.62300  Biso   1.000  H
  N83      1.0000 0.12540  0.45870  0.80610  Biso   1.000  N
  O413     1.0000 0.05550  0.49120  0.71360  Biso   1.000  O
  C577     1.0000 0.12010  0.42240  0.86740  Biso   1.000  C
  C578     1.0000 0.13220  0.42300  0.62030  Biso   1.000  C
  O414     1.0000 0.19540  0.52550  0.76630  Biso   1.000  O
  C579     1.0000 0.15480  0.45860  0.63170  Biso   1.000  C
  N84      1.0000 0.19340  0.45850  0.62540  Biso   1.000  N
  H414     1.0000 0.20430  0.43870  0.61440  Biso   1.000  H
  C580     1.0000 0.21680  0.49150  0.63700  Biso   1.000  C
  H415     1.0000 0.20280  0.51540  0.62970  Biso   1.000  H
  C581     1.0000 0.11730  0.49260  0.74380  Biso   1.000  C
  C582     1.0000 0.14250  0.39990  0.58730  Biso   1.000  C
  H416     1.0000 0.16440  0.40660  0.57250  Biso   1.000  H
  C583     1.0000 0.22460  0.49290  0.68110  Biso   1.000  C
  O415     1.0000 0.14570  0.48740  0.86220  Biso   1.000  O
  C584     1.0000 0.18170  0.49300  0.77540  Biso   1.000  C
  C585     1.0000 0.07370  0.49700  0.74540  Biso   1.000  C
  C586     1.0000 0.13150  0.45850  0.84510  Biso   1.000  C
  O416     1.0000 0.19925  0.46100  0.77630  Biso   1.000  O
  C587     1.0000 0.25450  0.49720  0.57350  Biso   1.000  C
  O417     1.0000 0.28630  0.49110  0.55590  Biso   1.000  O
  O418     1.0000 0.22390  0.46070  0.69930  Biso   1.000  O
  O419     1.0000 0.05780  0.50740  0.77720  Biso   1.000  O
  C588     1.0000 0.13680  0.49230  0.78360  Biso   1.000  C
  O420     1.0000 0.22250  0.50740  0.55810  Biso   1.000  O
  H417     1.0000 0.11600  0.43770  0.79540  Biso   1.000  H
  H418     1.0000 0.12240  0.46690  0.73000  Biso   1.000  H
  H419     1.0000 0.12820  0.51230  0.72700  Biso   1.000  H
  H420     1.0000 0.13020  0.51550  0.79770  Biso   1.000  H
  O421     1.0000 0.63750  0.98730  0.64600  Biso   1.000  O
  O422     1.0000 0.73400  0.02560  0.69480  Biso   1.000  O
  C589     1.0000 0.64230  0.91220  0.90030  Biso   1.000  C
  H421     1.0000 0.66380  0.92730  0.90720  Biso   1.000  H
  C590     1.0000 0.75670  0.99210  0.61730  Biso   1.000  C
  H422     1.0000 0.77210  0.01320  0.62820  Biso   1.000  H
  H423     1.0000 0.77020  0.96770  0.62300  Biso   1.000  H
  N85      1.0000 0.62540  0.95870  0.80610  Biso   1.000  N
  O423     1.0000 0.55550  0.99120  0.71360  Biso   1.000  O
  C591     1.0000 0.62010  0.92240  0.86740  Biso   1.000  C
  C592     1.0000 0.63220  0.92300  0.62030  Biso   1.000  C
  O424     1.0000 0.69540  0.02550  0.76630  Biso   1.000  O
  C593     1.0000 0.65480  0.95860  0.63170  Biso   1.000  C
  N86      1.0000 0.69340  0.95850  0.62540  Biso   1.000  N
  H424     1.0000 0.70430  0.93870  0.61440  Biso   1.000  H
  C594     1.0000 0.71680  0.99150  0.63700  Biso   1.000  C
  H425     1.0000 0.70280  0.01540  0.62970  Biso   1.000  H
  C595     1.0000 0.61730  0.99260  0.74380  Biso   1.000  C
  C596     1.0000 0.64250  0.89990  0.58730  Biso   1.000  C
  H426     1.0000 0.66440  0.90660  0.57250  Biso   1.000  H
  C597     1.0000 0.72460  0.99290  0.68110  Biso   1.000  C
  O425     1.0000 0.64570  0.98740  0.86220  Biso   1.000  O
  C598     1.0000 0.68170  0.99300  0.77540  Biso   1.000  C
  C599     1.0000 0.57370  0.99700  0.74540  Biso   1.000  C
  C600     1.0000 0.63150  0.95850  0.84510  Biso   1.000  C
  O426     1.0000 0.69925  0.96100  0.77630  Biso   1.000  O
  C601     1.0000 0.75450  0.99720  0.57350  Biso   1.000  C
  O427     1.0000 0.78630  0.99110  0.55590  Biso   1.000  O
  O428     1.0000 0.72390  0.96070  0.69930  Biso   1.000  O
  O429     1.0000 0.55780  0.00740  0.77720  Biso   1.000  O
  C602     1.0000 0.63680  0.99230  0.78360  Biso   1.000  C
  O430     1.0000 0.72250  0.00740  0.55810  Biso   1.000  O
  H427     1.0000 0.61600  0.93770  0.79540  Biso   1.000  H
  H428     1.0000 0.62240  0.96690  0.73000  Biso   1.000  H
  H429     1.0000 0.62820  0.01230  0.72700  Biso   1.000  H
  H430     1.0000 0.63020  0.01550  0.79770  Biso   1.000  H
  O431     1.0000 0.63750  0.48730  0.14600  Biso   1.000  O
  O432     1.0000 0.73400  0.52560  0.19480  Biso   1.000  O
  C603     1.0000 0.64230  0.41220  0.40030  Biso   1.000  C
  H431     1.0000 0.66380  0.42730  0.40720  Biso   1.000  H
  C604     1.0000 0.75670  0.49210  0.11730  Biso   1.000  C
  H432     1.0000 0.77210  0.51320  0.12820  Biso   1.000  H
  H433     1.0000 0.77020  0.46770  0.12300  Biso   1.000  H
  N87      1.0000 0.62540  0.45870  0.30610  Biso   1.000  N
  O433     1.0000 0.55550  0.49120  0.21360  Biso   1.000  O
  C605     1.0000 0.62010  0.42240  0.36740  Biso   1.000  C
  C606     1.0000 0.63220  0.42300  0.12030  Biso   1.000  C
  O434     1.0000 0.69540  0.52550  0.26630  Biso   1.000  O
  C607     1.0000 0.65480  0.45860  0.13170  Biso   1.000  C
  N88      1.0000 0.69340  0.45850  0.12540  Biso   1.000  N
  H434     1.0000 0.70430  0.43870  0.11440  Biso   1.000  H
  C608     1.0000 0.71680  0.49150  0.13700  Biso   1.000  C
  H435     1.0000 0.70280  0.51540  0.12970  Biso   1.000  H
  C609     1.0000 0.61730  0.49260  0.24380  Biso   1.000  C
  C610     1.0000 0.64250  0.39990  0.08730  Biso   1.000  C
  H436     1.0000 0.66440  0.40660  0.07250  Biso   1.000  H
  C611     1.0000 0.72460  0.49290  0.18110  Biso   1.000  C
  O435     1.0000 0.64570  0.48740  0.36220  Biso   1.000  O
  C612     1.0000 0.68170  0.49300  0.27540  Biso   1.000  C
  C613     1.0000 0.57370  0.49700  0.24540  Biso   1.000  C
  C614     1.0000 0.63150  0.45850  0.34510  Biso   1.000  C
  O436     1.0000 0.69925  0.46100  0.27630  Biso   1.000  O
  C615     1.0000 0.75450  0.49720  0.07350  Biso   1.000  C
  O437     1.0000 0.78630  0.49110  0.05590  Biso   1.000  O
  O438     1.0000 0.72390  0.46070  0.19930  Biso   1.000  O
  O439     1.0000 0.55780  0.50740  0.27720  Biso   1.000  O
  C616     1.0000 0.63680  0.49230  0.28360  Biso   1.000  C
  O440     1.0000 0.72250  0.50740  0.05810  Biso   1.000  O
  H437     1.0000 0.61600  0.43770  0.29540  Biso   1.000  H
  H438     1.0000 0.62240  0.46690  0.23000  Biso   1.000  H
  H439     1.0000 0.62820  0.51230  0.22700  Biso   1.000  H
  H440     1.0000 0.63020  0.51550  0.29770  Biso   1.000  H
  O441     1.0000 0.86250  0.98730  0.85400  Biso   1.000  O
  O442     1.0000 0.76600  0.02560  0.80520  Biso   1.000  O
  C617     1.0000 0.85770  0.91220  0.59970  Biso   1.000  C
  H441     1.0000 0.83620  0.92730  0.59280  Biso   1.000  H
  C618     1.0000 0.74330  0.99210  0.88270  Biso   1.000  C
  H442     1.0000 0.72790  0.01320  0.87180  Biso   1.000  H
  H443     1.0000 0.72980  0.96770  0.87700  Biso   1.000  H
  N89      1.0000 0.87460  0.95870  0.69390  Biso   1.000  N
  O443     1.0000 0.94450  0.99120  0.78640  Biso   1.000  O
  C619     1.0000 0.87990  0.92240  0.63260  Biso   1.000  C
  C620     1.0000 0.86780  0.92300  0.87970  Biso   1.000  C
  O444     1.0000 0.80460  0.02550  0.73370  Biso   1.000  O
  C621     1.0000 0.84520  0.95860  0.86830  Biso   1.000  C
  N90      1.0000 0.80660  0.95850  0.87460  Biso   1.000  N
  H444     1.0000 0.79570  0.93870  0.88560  Biso   1.000  H
  C622     1.0000 0.78320  0.99150  0.86300  Biso   1.000  C
  H445     1.0000 0.79720  0.01540  0.87030  Biso   1.000  H
  C623     1.0000 0.88270  0.99260  0.75620  Biso   1.000  C
  C624     1.0000 0.85750  0.89990  0.91270  Biso   1.000  C
  H446     1.0000 0.83560  0.90660  0.92750  Biso   1.000  H
  C625     1.0000 0.77540  0.99290  0.81890  Biso   1.000  C
  O445     1.0000 0.85430  0.98740  0.63780  Biso   1.000  O
  C626     1.0000 0.81830  0.99300  0.72460  Biso   1.000  C
  C627     1.0000 0.92630  0.99700  0.75460  Biso   1.000  C
  C628     1.0000 0.86850  0.95850  0.65490  Biso   1.000  C
  O446     1.0000 0.80075  0.96100  0.72370  Biso   1.000  O
  C629     1.0000 0.74550  0.99720  0.92650  Biso   1.000  C
  O447     1.0000 0.71370  0.99110  0.94410  Biso   1.000  O
  O448     1.0000 0.77610  0.96070  0.80070  Biso   1.000  O
  O449     1.0000 0.94220  0.00740  0.72280  Biso   1.000  O
  C630     1.0000 0.86320  0.99230  0.71640  Biso   1.000  C
  O450     1.0000 0.77750  0.00740  0.94190  Biso   1.000  O
  H447     1.0000 0.88400  0.93770  0.70460  Biso   1.000  H
  H448     1.0000 0.87760  0.96690  0.77000  Biso   1.000  H
  H449     1.0000 0.87180  0.01230  0.77300  Biso   1.000  H
  H450     1.0000 0.86980  0.01550  0.70230  Biso   1.000  H
  O451     1.0000 0.86250  0.48730  0.35400  Biso   1.000  O
  O452     1.0000 0.76600  0.52560  0.30520  Biso   1.000  O
  C631     1.0000 0.85770  0.41220  0.09970  Biso   1.000  C
  H451     1.0000 0.83620  0.42730  0.09280  Biso   1.000  H
  C632     1.0000 0.74330  0.49210  0.38270  Biso   1.000  C
  H452     1.0000 0.72790  0.51320  0.37180  Biso   1.000  H
  H453     1.0000 0.72980  0.46770  0.37700  Biso   1.000  H
  N91      1.0000 0.87460  0.45870  0.19390  Biso   1.000  N
  O453     1.0000 0.94450  0.49120  0.28640  Biso   1.000  O
  C633     1.0000 0.87990  0.42240  0.13260  Biso   1.000  C
  C634     1.0000 0.86780  0.42300  0.37970  Biso   1.000  C
  O454     1.0000 0.80460  0.52550  0.23370  Biso   1.000  O
  C635     1.0000 0.84520  0.45860  0.36830  Biso   1.000  C
  N92      1.0000 0.80660  0.45850  0.37460  Biso   1.000  N
  H454     1.0000 0.79570  0.43870  0.38560  Biso   1.000  H
  C636     1.0000 0.78320  0.49150  0.36300  Biso   1.000  C
  H455     1.0000 0.79720  0.51540  0.37030  Biso   1.000  H
  C637     1.0000 0.88270  0.49260  0.25620  Biso   1.000  C
  C638     1.0000 0.85750  0.39990  0.41270  Biso   1.000  C
  H456     1.0000 0.83560  0.40660  0.42750  Biso   1.000  H
  C639     1.0000 0.77540  0.49290  0.31890  Biso   1.000  C
  O455     1.0000 0.85430  0.48740  0.13780  Biso   1.000  O
  C640     1.0000 0.81830  0.49300  0.22460  Biso   1.000  C
  C641     1.0000 0.92630  0.49700  0.25460  Biso   1.000  C
  C642     1.0000 0.86850  0.45850  0.15490  Biso   1.000  C
  O456     1.0000 0.80075  0.46100  0.22370  Biso   1.000  O
  C643     1.0000 0.74550  0.49720  0.42650  Biso   1.000  C
  O457     1.0000 0.71370  0.49110  0.44410  Biso   1.000  O
  O458     1.0000 0.77610  0.46070  0.30070  Biso   1.000  O
  O459     1.0000 0.94220  0.50740  0.22280  Biso   1.000  O
  C644     1.0000 0.86320  0.49230  0.21640  Biso   1.000  C
  O460     1.0000 0.77750  0.50740  0.44190  Biso   1.000  O
  H457     1.0000 0.88400  0.43770  0.20460  Biso   1.000  H
  H458     1.0000 0.87760  0.46690  0.27000  Biso   1.000  H
  H459     1.0000 0.87180  0.51230  0.27300  Biso   1.000  H
  H460     1.0000 0.86980  0.51550  0.20230  Biso   1.000  H
  O461     1.0000 0.36250  0.98730  0.35400  Biso   1.000  O
  O462     1.0000 0.26600  0.02560  0.30520  Biso   1.000  O
  C645     1.0000 0.35770  0.91220  0.09970  Biso   1.000  C
  H461     1.0000 0.33620  0.92730  0.09280  Biso   1.000  H
  C646     1.0000 0.24330  0.99210  0.38270  Biso   1.000  C
  H462     1.0000 0.22790  0.01320  0.37180  Biso   1.000  H
  H463     1.0000 0.22980  0.96770  0.37700  Biso   1.000  H
  N93      1.0000 0.37460  0.95870  0.19390  Biso   1.000  N
  O463     1.0000 0.44450  0.99120  0.28640  Biso   1.000  O
  C647     1.0000 0.37990  0.92240  0.13260  Biso   1.000  C
  C648     1.0000 0.36780  0.92300  0.37970  Biso   1.000  C
  O464     1.0000 0.30460  0.02550  0.23370  Biso   1.000  O
  C649     1.0000 0.34520  0.95860  0.36830  Biso   1.000  C
  N94      1.0000 0.30660  0.95850  0.37460  Biso   1.000  N
  H464     1.0000 0.29570  0.93870  0.38560  Biso   1.000  H
  C650     1.0000 0.28320  0.99150  0.36300  Biso   1.000  C
  H465     1.0000 0.29720  0.01540  0.37030  Biso   1.000  H
  C651     1.0000 0.38270  0.99260  0.25620  Biso   1.000  C
  C652     1.0000 0.35750  0.89990  0.41270  Biso   1.000  C
  H466     1.0000 0.33560  0.90660  0.42750  Biso   1.000  H
  C653     1.0000 0.27540  0.99290  0.31890  Biso   1.000  C
  O465     1.0000 0.35430  0.98740  0.13780  Biso   1.000  O
  C654     1.0000 0.31830  0.99300  0.22460  Biso   1.000  C
  C655     1.0000 0.42630  0.99700  0.25460  Biso   1.000  C
  C656     1.0000 0.36850  0.95850  0.15490  Biso   1.000  C
  O466     1.0000 0.30075  0.96100  0.22370  Biso   1.000  O
  C657     1.0000 0.24550  0.99720  0.42650  Biso   1.000  C
  O467     1.0000 0.21370  0.99110  0.44410  Biso   1.000  O
  O468     1.0000 0.27610  0.96070  0.30070  Biso   1.000  O
  O469     1.0000 0.44220  0.00740  0.22280  Biso   1.000  O
  C658     1.0000 0.36320  0.99230  0.21640  Biso   1.000  C
  O470     1.0000 0.27750  0.00740  0.44190  Biso   1.000  O
  H467     1.0000 0.38400  0.93770  0.20460  Biso   1.000  H
  H468     1.0000 0.37760  0.96690  0.27000  Biso   1.000  H
  H469     1.0000 0.37180  0.01230  0.27300  Biso   1.000  H
  H470     1.0000 0.36980  0.01550  0.20230  Biso   1.000  H
  O471     1.0000 0.36250  0.48730  0.85400  Biso   1.000  O
  O472     1.0000 0.26600  0.52560  0.80520  Biso   1.000  O
  C659     1.0000 0.35770  0.41220  0.59970  Biso   1.000  C
  H471     1.0000 0.33620  0.42730  0.59280  Biso   1.000  H
  C660     1.0000 0.24330  0.49210  0.88270  Biso   1.000  C
  H472     1.0000 0.22790  0.51320  0.87180  Biso   1.000  H
  H473     1.0000 0.22980  0.46770  0.87700  Biso   1.000  H
  N95      1.0000 0.37460  0.45870  0.69390  Biso   1.000  N
  O473     1.0000 0.44450  0.49120  0.78640  Biso   1.000  O
  C661     1.0000 0.37990  0.42240  0.63260  Biso   1.000  C
  C662     1.0000 0.36780  0.42300  0.87970  Biso   1.000  C
  O474     1.0000 0.30460  0.52550  0.73370  Biso   1.000  O
  C663     1.0000 0.34520  0.45860  0.86830  Biso   1.000  C
  N96      1.0000 0.30660  0.45850  0.87460  Biso   1.000  N
  H474     1.0000 0.29570  0.43870  0.88560  Biso   1.000  H
  C664     1.0000 0.28320  0.49150  0.86300  Biso   1.000  C
  H475     1.0000 0.29720  0.51540  0.87030  Biso   1.000  H
  C665     1.0000 0.38270  0.49260  0.75620  Biso   1.000  C
  C666     1.0000 0.35750  0.39990  0.91270  Biso   1.000  C
  H476     1.0000 0.33560  0.40660  0.92750  Biso   1.000  H
  C667     1.0000 0.27540  0.49290  0.81890  Biso   1.000  C
  O475     1.0000 0.35430  0.48740  0.63780  Biso   1.000  O
  C668     1.0000 0.31830  0.49300  0.72460  Biso   1.000  C
  C669     1.0000 0.42630  0.49700  0.75460  Biso   1.000  C
  C670     1.0000 0.36850  0.45850  0.65490  Biso   1.000  C
  O476     1.0000 0.30075  0.46100  0.72370  Biso   1.000  O
  C671     1.0000 0.24550  0.49720  0.92650  Biso   1.000  C
  O477     1.0000 0.21370  0.49110  0.94410  Biso   1.000  O
  O478     1.0000 0.27610  0.46070  0.80070  Biso   1.000  O
  O479     1.0000 0.44220  0.50740  0.72280  Biso   1.000  O
  C672     1.0000 0.36320  0.49230  0.71640  Biso   1.000  C
  O480     1.0000 0.27750  0.50740  0.94190  Biso   1.000  O
  H477     1.0000 0.38400  0.43770  0.70460  Biso   1.000  H
  H478     1.0000 0.37760  0.46690  0.77000  Biso   1.000  H
  H479     1.0000 0.37180  0.51230  0.77300  Biso   1.000  H
  H480     1.0000 0.36980  0.51550  0.70230  Biso   1.000  H
  Cu1      1.0000 0.75000  0.25000  0.04572  Biso   1.000  Cu
  Cu2      1.0000 0.75000  0.25000  0.96843  Biso   1.000  Cu
  Cu3      1.0000 0.75000  0.75000  0.54572  Biso   1.000  Cu
  Cu4      1.0000 0.75000  0.75000  0.46843  Biso   1.000  Cu
  Cu5      1.0000 0.25000  0.75000  0.04572  Biso   1.000  Cu
  Cu6      1.0000 0.25000  0.75000  0.96843  Biso   1.000  Cu
  Cu7      1.0000 0.25000  0.25000  0.54572  Biso   1.000  Cu
  Cu8      1.0000 0.25000  0.25000  0.46843  Biso   1.000  Cu
  Cu9      1.0000 0.25000  0.25000  0.95428  Biso   1.000  Cu
  Cu10     1.0000 0.25000  0.25000  0.03157  Biso   1.000  Cu
  Cu11     1.0000 0.25000  0.75000  0.45428  Biso   1.000  Cu
  Cu12     1.0000 0.25000  0.75000  0.53157  Biso   1.000  Cu
  Cu13     1.0000 0.75000  0.75000  0.95428  Biso   1.000  Cu
  Cu14     1.0000 0.75000  0.75000  0.03157  Biso   1.000  Cu
  Cu15     1.0000 0.75000  0.25000  0.45428  Biso   1.000  Cu
  Cu16     1.0000 0.75000  0.25000  0.53157  Biso   1.000  Cu
  Cu17     1.0000 0.04572  0.75000  0.25000  Biso   1.000  Cu
  Cu18     1.0000 0.96843  0.75000  0.25000  Biso   1.000  Cu
  Cu19     1.0000 0.54572  0.75000  0.75000  Biso   1.000  Cu
  Cu20     1.0000 0.46843  0.75000  0.75000  Biso   1.000  Cu
  Cu21     1.0000 0.04572  0.25000  0.75000  Biso   1.000  Cu
  Cu22     1.0000 0.96843  0.25000  0.75000  Biso   1.000  Cu
  Cu23     1.0000 0.54572  0.25000  0.25000  Biso   1.000  Cu
  Cu24     1.0000 0.46843  0.25000  0.25000  Biso   1.000  Cu
  Cu25     1.0000 0.95428  0.25000  0.25000  Biso   1.000  Cu
  Cu26     1.0000 0.03157  0.25000  0.25000  Biso   1.000  Cu
  Cu27     1.0000 0.45428  0.25000  0.75000  Biso   1.000  Cu
  Cu28     1.0000 0.53157  0.25000  0.75000  Biso   1.000  Cu
  Cu29     1.0000 0.95428  0.75000  0.75000  Biso   1.000  Cu
  Cu30     1.0000 0.03157  0.75000  0.75000  Biso   1.000  Cu
  Cu31     1.0000 0.45428  0.75000  0.25000  Biso   1.000  Cu
  Cu32     1.0000 0.53157  0.75000  0.25000  Biso   1.000  Cu
  Cu33     1.0000 0.25000  0.04572  0.75000  Biso   1.000  Cu
  Cu34     1.0000 0.25000  0.96843  0.75000  Biso   1.000  Cu
  Cu35     1.0000 0.25000  0.54572  0.25000  Biso   1.000  Cu
  Cu36     1.0000 0.25000  0.46843  0.25000  Biso   1.000  Cu
  Cu37     1.0000 0.75000  0.04572  0.25000  Biso   1.000  Cu
  Cu38     1.0000 0.75000  0.96843  0.25000  Biso   1.000  Cu
  Cu39     1.0000 0.75000  0.54572  0.75000  Biso   1.000  Cu
  Cu40     1.0000 0.75000  0.46843  0.75000  Biso   1.000  Cu
  Cu41     1.0000 0.25000  0.95428  0.25000  Biso   1.000  Cu
  Cu42     1.0000 0.25000  0.03157  0.25000  Biso   1.000  Cu
  Cu43     1.0000 0.25000  0.45428  0.75000  Biso   1.000  Cu
  Cu44     1.0000 0.25000  0.53157  0.75000  Biso   1.000  Cu
  Cu45     1.0000 0.75000  0.95428  0.75000  Biso   1.000  Cu
  Cu46     1.0000 0.75000  0.03157  0.75000  Biso   1.000  Cu
  Cu47     1.0000 0.75000  0.45428  0.25000  Biso   1.000  Cu
  Cu48     1.0000 0.75000  0.53157  0.25000  Biso   1.000  Cu
  Cu49     1.0000 0.71089  0.00000  0.00000  Biso   1.000  Cu
  Cu50     1.0000 0.78901  0.00000  0.00000  Biso   1.000  Cu
  Cu51     1.0000 0.71089  0.50000  0.50000  Biso   1.000  Cu
  Cu52     1.0000 0.78901  0.50000  0.50000  Biso   1.000  Cu
  Cu53     1.0000 0.21089  0.00000  0.50000  Biso   1.000  Cu
  Cu54     1.0000 0.28901  0.00000  0.50000  Biso   1.000  Cu
  Cu55     1.0000 0.21089  0.50000  0.00000  Biso   1.000  Cu
  Cu56     1.0000 0.28901  0.50000  0.00000  Biso   1.000  Cu
  Cu57     1.0000 0.28911  0.00000  0.00000  Biso   1.000  Cu
  Cu58     1.0000 0.21099  0.00000  0.00000  Biso   1.000  Cu
  Cu59     1.0000 0.28911  0.50000  0.50000  Biso   1.000  Cu
  Cu60     1.0000 0.21099  0.50000  0.50000  Biso   1.000  Cu
  Cu61     1.0000 0.78911  0.00000  0.50000  Biso   1.000  Cu
  Cu62     1.0000 0.71099  0.00000  0.50000  Biso   1.000  Cu
  Cu63     1.0000 0.78911  0.50000  0.00000  Biso   1.000  Cu
  Cu64     1.0000 0.71099  0.50000  0.00000  Biso   1.000  Cu
  Cu65     1.0000 0.00000  0.71089  0.00000  Biso   1.000  Cu
  Cu66     1.0000 0.00000  0.78901  0.00000  Biso   1.000  Cu
  Cu67     1.0000 0.00000  0.21089  0.50000  Biso   1.000  Cu
  Cu68     1.0000 0.00000  0.28901  0.50000  Biso   1.000  Cu
  Cu69     1.0000 0.50000  0.71089  0.50000  Biso   1.000  Cu
  Cu70     1.0000 0.50000  0.78901  0.50000  Biso   1.000  Cu
  Cu71     1.0000 0.50000  0.21089  0.00000  Biso   1.000  Cu
  Cu72     1.0000 0.50000  0.28901  0.00000  Biso   1.000  Cu
  Cu73     1.0000 0.00000  0.28911  0.00000  Biso   1.000  Cu
  Cu74     1.0000 0.00000  0.21099  0.00000  Biso   1.000  Cu
  Cu75     1.0000 0.00000  0.78911  0.50000  Biso   1.000  Cu
  Cu76     1.0000 0.00000  0.71099  0.50000  Biso   1.000  Cu
  Cu77     1.0000 0.50000  0.28911  0.50000  Biso   1.000  Cu
  Cu78     1.0000 0.50000  0.21099  0.50000  Biso   1.000  Cu
  Cu79     1.0000 0.50000  0.78911  0.00000  Biso   1.000  Cu
  Cu80     1.0000 0.50000  0.71099  0.00000  Biso   1.000  Cu
  Cu81     1.0000 0.00000  0.00000  0.71089  Biso   1.000  Cu
  Cu82     1.0000 0.00000  0.00000  0.78901  Biso   1.000  Cu
  Cu83     1.0000 0.00000  0.50000  0.21089  Biso   1.000  Cu
  Cu84     1.0000 0.00000  0.50000  0.28901  Biso   1.000  Cu
  Cu85     1.0000 0.50000  0.00000  0.21089  Biso   1.000  Cu
  Cu86     1.0000 0.50000  0.00000  0.28901  Biso   1.000  Cu
  Cu87     1.0000 0.50000  0.50000  0.71089  Biso   1.000  Cu
  Cu88     1.0000 0.50000  0.50000  0.78901  Biso   1.000  Cu
  Cu89     1.0000 0.00000  0.00000  0.28911  Biso   1.000  Cu
  Cu90     1.0000 0.00000  0.00000  0.21099  Biso   1.000  Cu
  Cu91     1.0000 0.00000  0.50000  0.78911  Biso   1.000  Cu
  Cu92     1.0000 0.00000  0.50000  0.71099  Biso   1.000  Cu
  Cu93     1.0000 0.50000  0.00000  0.78911  Biso   1.000  Cu
  Cu94     1.0000 0.50000  0.00000  0.71099  Biso   1.000  Cu
  Cu95     1.0000 0.50000  0.50000  0.28911  Biso   1.000  Cu
  Cu96     1.0000 0.50000  0.50000  0.21099  Biso   1.000  Cu
