data_image0
_cell_length_a       25.655
_cell_length_b       28.561
_cell_length_c       32.001
_cell_angle_alpha    90
_cell_angle_beta     90
_cell_angle_gamma    90

_symmetry_space_group_name_H-M    "P 1"
_symmetry_int_tables_number       1

loop_
  _symmetry_equiv_pos_as_xyz
  'x, y, z'

loop_
  _atom_site_label
  _atom_site_occupancy
  _atom_site_fract_x
  _atom_site_fract_y
  _atom_site_fract_z
  _atom_site_thermal_displace_type
  _atom_site_B_iso_or_equiv
  _atom_site_type_symbol
  Co1      1.0000 0.75733  0.12975  0.78450  Biso   1.000  Co
  O1       1.0000 0.74080  0.18995  0.80817  Biso   1.000  O
  O2       1.0000 0.83279  0.12327  0.78986  Biso   1.000  O
  O3       1.0000 0.71721  0.13578  0.73188  Biso   1.000  O
  O4       1.0000 0.75781  0.93409  0.69631  Biso   1.000  O
  C1       1.0000 0.72790  0.20099  0.84440  Biso   1.000  C
  C2       1.0000 0.86900  0.14550  0.77071  Biso   1.000  C
  C3       1.0000 0.72003  0.10719  0.70099  Biso   1.000  C
  O5       1.0000 0.71440  0.17374  0.87222  Biso   1.000  O
  C4       1.0000 0.73030  0.25289  0.85377  Biso   1.000  C
  O6       1.0000 0.91509  0.14546  0.78222  Biso   1.000  O
  C5       1.0000 0.85290  0.17307  0.73298  Biso   1.000  C
  O7       1.0000 0.68347  0.09996  0.67745  Biso   1.000  O
  C6       1.0000 0.77010  0.07948  0.69715  Biso   1.000  C
  O8       1.0000 0.84385  0.92573  0.70381  Biso   1.000  O
  C7       1.0000 0.75400  0.28311  0.82553  Biso   1.000  C
  C8       1.0000 0.70900  0.27180  0.88920  Biso   1.000  C
  C9       1.0000 0.82680  0.15232  0.69968  Biso   1.000  C
  C10      1.0000 0.86360  0.22150  0.73286  Biso   1.000  C
  C11      1.0000 0.81940  0.10018  0.69831  Biso   1.000  C
  C12      1.0000 0.76533  0.03107  0.69621  Biso   1.000  C
  O9       1.0000 0.83065  0.32669  0.67637  Biso   1.000  O
  O10      1.0000 0.79110  0.35100  0.76760  Biso   1.000  O
  O11      1.0000 0.88890  0.31537  0.72728  Biso   1.000  O
  H1       1.0000 0.76780  0.27100  0.80020  Biso   1.000  H
  C13      1.0000 0.75789  0.33110  0.83373  Biso   1.000  C
  C14      1.0000 0.71170  0.31900  0.89750  Biso   1.000  C
  H2       1.0000 0.69200  0.25180  0.90860  Biso   1.000  H
  C15      1.0000 0.81100  0.18040  0.66655  Biso   1.000  C
  H3       1.0000 0.88240  0.23510  0.75540  Biso   1.000  H
  C16      1.0000 0.84670  0.24934  0.69981  Biso   1.000  C
  C17      1.0000 0.86320  0.07145  0.69659  Biso   1.000  C
  H4       1.0000 0.73170  0.01730  0.69530  Biso   1.000  H
  C18      1.0000 0.80936  0.00249  0.69652  Biso   1.000  C
  C19      1.0000 0.73660  0.34931  0.87013  Biso   1.000  C
  C20      1.0000 0.79090  0.35920  0.80360  Biso   1.000  C
  H5       1.0000 0.69630  0.33100  0.92220  Biso   1.000  H
  C21      1.0000 0.82010  0.22800  0.66646  Biso   1.000  C
  H6       1.0000 0.79370  0.16650  0.64350  Biso   1.000  H
  C22      1.0000 0.85510  0.30120  0.70106  Biso   1.000  C
  C23      1.0000 0.85850  0.02301  0.69638  Biso   1.000  C
  H7       1.0000 0.89680  0.08520  0.69550  Biso   1.000  H
  C24      1.0000 0.80440  0.94981  0.69894  Biso   1.000  C
  O12      1.0000 0.82170  0.38700  0.81750  Biso   1.000  O
  H8       1.0000 0.80830  0.24650  0.64370  Biso   1.000  H
  H9       1.0000 0.88890  0.00390  0.69610  Biso   1.000  H
  Co2      1.0000 0.75733  0.62975  0.28450  Biso   1.000  Co
  O13      1.0000 0.74080  0.68995  0.30817  Biso   1.000  O
  O14      1.0000 0.83279  0.62327  0.28986  Biso   1.000  O
  O15      1.0000 0.71721  0.63578  0.23188  Biso   1.000  O
  O16      1.0000 0.75781  0.43409  0.19631  Biso   1.000  O
  C25      1.0000 0.72790  0.70099  0.34440  Biso   1.000  C
  C26      1.0000 0.86900  0.64550  0.27071  Biso   1.000  C
  C27      1.0000 0.72003  0.60719  0.20099  Biso   1.000  C
  O17      1.0000 0.71440  0.67374  0.37222  Biso   1.000  O
  C28      1.0000 0.73030  0.75289  0.35377  Biso   1.000  C
  O18      1.0000 0.91509  0.64546  0.28222  Biso   1.000  O
  C29      1.0000 0.85290  0.67307  0.23298  Biso   1.000  C
  O19      1.0000 0.68347  0.59996  0.17745  Biso   1.000  O
  C30      1.0000 0.77010  0.57948  0.19715  Biso   1.000  C
  O20      1.0000 0.84385  0.42573  0.20381  Biso   1.000  O
  C31      1.0000 0.75400  0.78311  0.32553  Biso   1.000  C
  C32      1.0000 0.70900  0.77180  0.38920  Biso   1.000  C
  C33      1.0000 0.82680  0.65232  0.19968  Biso   1.000  C
  C34      1.0000 0.86360  0.72150  0.23286  Biso   1.000  C
  C35      1.0000 0.81940  0.60018  0.19831  Biso   1.000  C
  C36      1.0000 0.76533  0.53107  0.19621  Biso   1.000  C
  O21      1.0000 0.83065  0.82669  0.17637  Biso   1.000  O
  O22      1.0000 0.79110  0.85100  0.26760  Biso   1.000  O
  O23      1.0000 0.88890  0.81537  0.22728  Biso   1.000  O
  H10      1.0000 0.76780  0.77100  0.30020  Biso   1.000  H
  C37      1.0000 0.75789  0.83110  0.33373  Biso   1.000  C
  C38      1.0000 0.71170  0.81900  0.39750  Biso   1.000  C
  H11      1.0000 0.69200  0.75180  0.40860  Biso   1.000  H
  C39      1.0000 0.81100  0.68040  0.16655  Biso   1.000  C
  H12      1.0000 0.88240  0.73510  0.25540  Biso   1.000  H
  C40      1.0000 0.84670  0.74934  0.19981  Biso   1.000  C
  C41      1.0000 0.86320  0.57145  0.19659  Biso   1.000  C
  H13      1.0000 0.73170  0.51730  0.19530  Biso   1.000  H
  C42      1.0000 0.80936  0.50249  0.19652  Biso   1.000  C
  C43      1.0000 0.73660  0.84931  0.37013  Biso   1.000  C
  C44      1.0000 0.79090  0.85920  0.30360  Biso   1.000  C
  H14      1.0000 0.69630  0.83100  0.42220  Biso   1.000  H
  C45      1.0000 0.82010  0.72800  0.16646  Biso   1.000  C
  H15      1.0000 0.79370  0.66650  0.14350  Biso   1.000  H
  C46      1.0000 0.85510  0.80120  0.20106  Biso   1.000  C
  C47      1.0000 0.85850  0.52301  0.19638  Biso   1.000  C
  H16      1.0000 0.89680  0.58520  0.19550  Biso   1.000  H
  C48      1.0000 0.80440  0.44981  0.19894  Biso   1.000  C
  O24      1.0000 0.82170  0.88700  0.31750  Biso   1.000  O
  H17      1.0000 0.80830  0.74650  0.14370  Biso   1.000  H
  H18      1.0000 0.88890  0.50390  0.19610  Biso   1.000  H
  Co3      1.0000 0.25733  0.12975  0.28450  Biso   1.000  Co
  O25      1.0000 0.24080  0.18995  0.30817  Biso   1.000  O
  O26      1.0000 0.33279  0.12327  0.28986  Biso   1.000  O
  O27      1.0000 0.21721  0.13578  0.23188  Biso   1.000  O
  O28      1.0000 0.25781  0.93409  0.19631  Biso   1.000  O
  C49      1.0000 0.22790  0.20099  0.34440  Biso   1.000  C
  C50      1.0000 0.36900  0.14550  0.27071  Biso   1.000  C
  C51      1.0000 0.22003  0.10719  0.20099  Biso   1.000  C
  O29      1.0000 0.21440  0.17374  0.37222  Biso   1.000  O
  C52      1.0000 0.23030  0.25289  0.35377  Biso   1.000  C
  O30      1.0000 0.41509  0.14546  0.28222  Biso   1.000  O
  C53      1.0000 0.35290  0.17307  0.23298  Biso   1.000  C
  O31      1.0000 0.18347  0.09996  0.17745  Biso   1.000  O
  C54      1.0000 0.27010  0.07948  0.19715  Biso   1.000  C
  O32      1.0000 0.34385  0.92573  0.20381  Biso   1.000  O
  C55      1.0000 0.25400  0.28311  0.32553  Biso   1.000  C
  C56      1.0000 0.20900  0.27180  0.38920  Biso   1.000  C
  C57      1.0000 0.32680  0.15232  0.19968  Biso   1.000  C
  C58      1.0000 0.36360  0.22150  0.23286  Biso   1.000  C
  C59      1.0000 0.31940  0.10018  0.19831  Biso   1.000  C
  C60      1.0000 0.26533  0.03107  0.19621  Biso   1.000  C
  O33      1.0000 0.33065  0.32669  0.17637  Biso   1.000  O
  O34      1.0000 0.29110  0.35100  0.26760  Biso   1.000  O
  O35      1.0000 0.38890  0.31537  0.22728  Biso   1.000  O
  H19      1.0000 0.26780  0.27100  0.30020  Biso   1.000  H
  C61      1.0000 0.25789  0.33110  0.33373  Biso   1.000  C
  C62      1.0000 0.21170  0.31900  0.39750  Biso   1.000  C
  H20      1.0000 0.19200  0.25180  0.40860  Biso   1.000  H
  C63      1.0000 0.31100  0.18040  0.16655  Biso   1.000  C
  H21      1.0000 0.38240  0.23510  0.25540  Biso   1.000  H
  C64      1.0000 0.34670  0.24934  0.19981  Biso   1.000  C
  C65      1.0000 0.36320  0.07145  0.19659  Biso   1.000  C
  H22      1.0000 0.23170  0.01730  0.19530  Biso   1.000  H
  C66      1.0000 0.30936  0.00249  0.19652  Biso   1.000  C
  C67      1.0000 0.23660  0.34931  0.37013  Biso   1.000  C
  C68      1.0000 0.29090  0.35920  0.30360  Biso   1.000  C
  H23      1.0000 0.19630  0.33100  0.42220  Biso   1.000  H
  C69      1.0000 0.32010  0.22800  0.16646  Biso   1.000  C
  H24      1.0000 0.29370  0.16650  0.14350  Biso   1.000  H
  C70      1.0000 0.35510  0.30120  0.20106  Biso   1.000  C
  C71      1.0000 0.35850  0.02301  0.19638  Biso   1.000  C
  H25      1.0000 0.39680  0.08520  0.19550  Biso   1.000  H
  C72      1.0000 0.30440  0.94981  0.19894  Biso   1.000  C
  O36      1.0000 0.32170  0.38700  0.31750  Biso   1.000  O
  H26      1.0000 0.30830  0.24650  0.14370  Biso   1.000  H
  H27      1.0000 0.38890  0.00390  0.19610  Biso   1.000  H
  Co4      1.0000 0.25733  0.62975  0.78450  Biso   1.000  Co
  O37      1.0000 0.24080  0.68995  0.80817  Biso   1.000  O
  O38      1.0000 0.33279  0.62327  0.78986  Biso   1.000  O
  O39      1.0000 0.21721  0.63578  0.73188  Biso   1.000  O
  O40      1.0000 0.25781  0.43409  0.69631  Biso   1.000  O
  C73      1.0000 0.22790  0.70099  0.84440  Biso   1.000  C
  C74      1.0000 0.36900  0.64550  0.77071  Biso   1.000  C
  C75      1.0000 0.22003  0.60719  0.70099  Biso   1.000  C
  O41      1.0000 0.21440  0.67374  0.87222  Biso   1.000  O
  C76      1.0000 0.23030  0.75289  0.85377  Biso   1.000  C
  O42      1.0000 0.41509  0.64546  0.78222  Biso   1.000  O
  C77      1.0000 0.35290  0.67307  0.73298  Biso   1.000  C
  O43      1.0000 0.18347  0.59996  0.67745  Biso   1.000  O
  C78      1.0000 0.27010  0.57948  0.69715  Biso   1.000  C
  O44      1.0000 0.34385  0.42573  0.70381  Biso   1.000  O
  C79      1.0000 0.25400  0.78311  0.82553  Biso   1.000  C
  C80      1.0000 0.20900  0.77180  0.88920  Biso   1.000  C
  C81      1.0000 0.32680  0.65232  0.69968  Biso   1.000  C
  C82      1.0000 0.36360  0.72150  0.73286  Biso   1.000  C
  C83      1.0000 0.31940  0.60018  0.69831  Biso   1.000  C
  C84      1.0000 0.26533  0.53107  0.69621  Biso   1.000  C
  O45      1.0000 0.33065  0.82669  0.67637  Biso   1.000  O
  O46      1.0000 0.29110  0.85100  0.76760  Biso   1.000  O
  O47      1.0000 0.38890  0.81537  0.72728  Biso   1.000  O
  H28      1.0000 0.26780  0.77100  0.80020  Biso   1.000  H
  C85      1.0000 0.25789  0.83110  0.83373  Biso   1.000  C
  C86      1.0000 0.21170  0.81900  0.89750  Biso   1.000  C
  H29      1.0000 0.19200  0.75180  0.90860  Biso   1.000  H
  C87      1.0000 0.31100  0.68040  0.66655  Biso   1.000  C
  H30      1.0000 0.38240  0.73510  0.75540  Biso   1.000  H
  C88      1.0000 0.34670  0.74934  0.69981  Biso   1.000  C
  C89      1.0000 0.36320  0.57145  0.69659  Biso   1.000  C
  H31      1.0000 0.23170  0.51730  0.69530  Biso   1.000  H
  C90      1.0000 0.30936  0.50249  0.69652  Biso   1.000  C
  C91      1.0000 0.23660  0.84931  0.87013  Biso   1.000  C
  C92      1.0000 0.29090  0.85920  0.80360  Biso   1.000  C
  H32      1.0000 0.19630  0.83100  0.92220  Biso   1.000  H
  C93      1.0000 0.32010  0.72800  0.66646  Biso   1.000  C
  H33      1.0000 0.29370  0.66650  0.64350  Biso   1.000  H
  C94      1.0000 0.35510  0.80120  0.70106  Biso   1.000  C
  C95      1.0000 0.35850  0.52301  0.69638  Biso   1.000  C
  H34      1.0000 0.39680  0.58520  0.69550  Biso   1.000  H
  C96      1.0000 0.30440  0.44981  0.69894  Biso   1.000  C
  O48      1.0000 0.32170  0.88700  0.81750  Biso   1.000  O
  H35      1.0000 0.30830  0.74650  0.64370  Biso   1.000  H
  H36      1.0000 0.38890  0.50390  0.69610  Biso   1.000  H
  Co5      1.0000 0.99267  0.62025  0.78450  Biso   1.000  Co
  O49      1.0000 0.00920  0.56005  0.80817  Biso   1.000  O
  O50      1.0000 0.91721  0.62673  0.78986  Biso   1.000  O
  O51      1.0000 0.03279  0.61422  0.73188  Biso   1.000  O
  O52      1.0000 0.99219  0.81591  0.69631  Biso   1.000  O
  C97      1.0000 0.02210  0.54901  0.84440  Biso   1.000  C
  C98      1.0000 0.88100  0.60450  0.77071  Biso   1.000  C
  C99      1.0000 0.02997  0.64281  0.70099  Biso   1.000  C
  O53      1.0000 0.03560  0.57626  0.87222  Biso   1.000  O
  C100     1.0000 0.01970  0.49711  0.85377  Biso   1.000  C
  O54      1.0000 0.83491  0.60454  0.78222  Biso   1.000  O
  C101     1.0000 0.89710  0.57693  0.73298  Biso   1.000  C
  O55      1.0000 0.06653  0.65004  0.67745  Biso   1.000  O
  C102     1.0000 0.97990  0.67052  0.69715  Biso   1.000  C
  O56      1.0000 0.90615  0.82427  0.70381  Biso   1.000  O
  C103     1.0000 0.99600  0.46689  0.82553  Biso   1.000  C
  C104     1.0000 0.04100  0.47820  0.88920  Biso   1.000  C
  C105     1.0000 0.92320  0.59768  0.69968  Biso   1.000  C
  C106     1.0000 0.88640  0.52850  0.73286  Biso   1.000  C
  C107     1.0000 0.93060  0.64982  0.69831  Biso   1.000  C
  C108     1.0000 0.98467  0.71893  0.69621  Biso   1.000  C
  O57      1.0000 0.91935  0.42331  0.67637  Biso   1.000  O
  O58      1.0000 0.95890  0.39900  0.76760  Biso   1.000  O
  O59      1.0000 0.86110  0.43463  0.72728  Biso   1.000  O
  H37      1.0000 0.98220  0.47900  0.80020  Biso   1.000  H
  C109     1.0000 0.99211  0.41890  0.83373  Biso   1.000  C
  C110     1.0000 0.03830  0.43100  0.89750  Biso   1.000  C
  H38      1.0000 0.05800  0.49820  0.90860  Biso   1.000  H
  C111     1.0000 0.93900  0.56960  0.66655  Biso   1.000  C
  H39      1.0000 0.86760  0.51490  0.75540  Biso   1.000  H
  C112     1.0000 0.90330  0.50066  0.69981  Biso   1.000  C
  C113     1.0000 0.88680  0.67855  0.69659  Biso   1.000  C
  H40      1.0000 0.01830  0.73270  0.69530  Biso   1.000  H
  C114     1.0000 0.94064  0.74751  0.69652  Biso   1.000  C
  C115     1.0000 0.01340  0.40069  0.87013  Biso   1.000  C
  C116     1.0000 0.95910  0.39080  0.80360  Biso   1.000  C
  H41      1.0000 0.05370  0.41900  0.92220  Biso   1.000  H
  C117     1.0000 0.92990  0.52200  0.66646  Biso   1.000  C
  H42      1.0000 0.95630  0.58350  0.64350  Biso   1.000  H
  C118     1.0000 0.89490  0.44880  0.70106  Biso   1.000  C
  C119     1.0000 0.89150  0.72699  0.69638  Biso   1.000  C
  H43      1.0000 0.85320  0.66480  0.69550  Biso   1.000  H
  C120     1.0000 0.94560  0.80019  0.69894  Biso   1.000  C
  O60      1.0000 0.92830  0.36300  0.81750  Biso   1.000  O
  H44      1.0000 0.94170  0.50350  0.64370  Biso   1.000  H
  H45      1.0000 0.86110  0.74610  0.69610  Biso   1.000  H
  Co6      1.0000 0.99267  0.12025  0.28450  Biso   1.000  Co
  O61      1.0000 0.00920  0.06005  0.30817  Biso   1.000  O
  O62      1.0000 0.91721  0.12673  0.28986  Biso   1.000  O
  O63      1.0000 0.03279  0.11422  0.23188  Biso   1.000  O
  O64      1.0000 0.99219  0.31591  0.19631  Biso   1.000  O
  C121     1.0000 0.02210  0.04901  0.34440  Biso   1.000  C
  C122     1.0000 0.88100  0.10450  0.27071  Biso   1.000  C
  C123     1.0000 0.02997  0.14281  0.20099  Biso   1.000  C
  O65      1.0000 0.03560  0.07626  0.37222  Biso   1.000  O
  C124     1.0000 0.01970  0.99711  0.35377  Biso   1.000  C
  O66      1.0000 0.83491  0.10454  0.28222  Biso   1.000  O
  C125     1.0000 0.89710  0.07693  0.23298  Biso   1.000  C
  O67      1.0000 0.06653  0.15004  0.17745  Biso   1.000  O
  C126     1.0000 0.97990  0.17052  0.19715  Biso   1.000  C
  O68      1.0000 0.90615  0.32427  0.20381  Biso   1.000  O
  C127     1.0000 0.99600  0.96689  0.32553  Biso   1.000  C
  C128     1.0000 0.04100  0.97820  0.38920  Biso   1.000  C
  C129     1.0000 0.92320  0.09768  0.19968  Biso   1.000  C
  C130     1.0000 0.88640  0.02850  0.23286  Biso   1.000  C
  C131     1.0000 0.93060  0.14982  0.19831  Biso   1.000  C
  C132     1.0000 0.98467  0.21893  0.19621  Biso   1.000  C
  O69      1.0000 0.91935  0.92331  0.17637  Biso   1.000  O
  O70      1.0000 0.95890  0.89900  0.26760  Biso   1.000  O
  O71      1.0000 0.86110  0.93463  0.22728  Biso   1.000  O
  H46      1.0000 0.98220  0.97900  0.30020  Biso   1.000  H
  C133     1.0000 0.99211  0.91890  0.33373  Biso   1.000  C
  C134     1.0000 0.03830  0.93100  0.39750  Biso   1.000  C
  H47      1.0000 0.05800  0.99820  0.40860  Biso   1.000  H
  C135     1.0000 0.93900  0.06960  0.16655  Biso   1.000  C
  H48      1.0000 0.86760  0.01490  0.25540  Biso   1.000  H
  C136     1.0000 0.90330  0.00066  0.19981  Biso   1.000  C
  C137     1.0000 0.88680  0.17855  0.19659  Biso   1.000  C
  H49      1.0000 0.01830  0.23270  0.19530  Biso   1.000  H
  C138     1.0000 0.94064  0.24751  0.19652  Biso   1.000  C
  C139     1.0000 0.01340  0.90069  0.37013  Biso   1.000  C
  C140     1.0000 0.95910  0.89080  0.30360  Biso   1.000  C
  H50      1.0000 0.05370  0.91900  0.42220  Biso   1.000  H
  C141     1.0000 0.92990  0.02200  0.16646  Biso   1.000  C
  H51      1.0000 0.95630  0.08350  0.14350  Biso   1.000  H
  C142     1.0000 0.89490  0.94880  0.20106  Biso   1.000  C
  C143     1.0000 0.89150  0.22699  0.19638  Biso   1.000  C
  H52      1.0000 0.85320  0.16480  0.19550  Biso   1.000  H
  C144     1.0000 0.94560  0.30019  0.19894  Biso   1.000  C
  O72      1.0000 0.92830  0.86300  0.31750  Biso   1.000  O
  H53      1.0000 0.94170  0.00350  0.14370  Biso   1.000  H
  H54      1.0000 0.86110  0.24610  0.19610  Biso   1.000  H
  Co7      1.0000 0.49267  0.62025  0.28450  Biso   1.000  Co
  O73      1.0000 0.50920  0.56005  0.30817  Biso   1.000  O
  O74      1.0000 0.41721  0.62673  0.28986  Biso   1.000  O
  O75      1.0000 0.53279  0.61422  0.23188  Biso   1.000  O
  O76      1.0000 0.49219  0.81591  0.19631  Biso   1.000  O
  C145     1.0000 0.52210  0.54901  0.34440  Biso   1.000  C
  C146     1.0000 0.38100  0.60450  0.27071  Biso   1.000  C
  C147     1.0000 0.52997  0.64281  0.20099  Biso   1.000  C
  O77      1.0000 0.53560  0.57626  0.37222  Biso   1.000  O
  C148     1.0000 0.51970  0.49711  0.35377  Biso   1.000  C
  O78      1.0000 0.33491  0.60454  0.28222  Biso   1.000  O
  C149     1.0000 0.39710  0.57693  0.23298  Biso   1.000  C
  O79      1.0000 0.56653  0.65004  0.17745  Biso   1.000  O
  C150     1.0000 0.47990  0.67052  0.19715  Biso   1.000  C
  O80      1.0000 0.40615  0.82427  0.20381  Biso   1.000  O
  C151     1.0000 0.49600  0.46689  0.32553  Biso   1.000  C
  C152     1.0000 0.54100  0.47820  0.38920  Biso   1.000  C
  C153     1.0000 0.42320  0.59768  0.19968  Biso   1.000  C
  C154     1.0000 0.38640  0.52850  0.23286  Biso   1.000  C
  C155     1.0000 0.43060  0.64982  0.19831  Biso   1.000  C
  C156     1.0000 0.48467  0.71893  0.19621  Biso   1.000  C
  O81      1.0000 0.41935  0.42331  0.17637  Biso   1.000  O
  O82      1.0000 0.45890  0.39900  0.26760  Biso   1.000  O
  O83      1.0000 0.36110  0.43463  0.22728  Biso   1.000  O
  H55      1.0000 0.48220  0.47900  0.30020  Biso   1.000  H
  C157     1.0000 0.49211  0.41890  0.33373  Biso   1.000  C
  C158     1.0000 0.53830  0.43100  0.39750  Biso   1.000  C
  H56      1.0000 0.55800  0.49820  0.40860  Biso   1.000  H
  C159     1.0000 0.43900  0.56960  0.16655  Biso   1.000  C
  H57      1.0000 0.36760  0.51490  0.25540  Biso   1.000  H
  C160     1.0000 0.40330  0.50066  0.19981  Biso   1.000  C
  C161     1.0000 0.38680  0.67855  0.19659  Biso   1.000  C
  H58      1.0000 0.51830  0.73270  0.19530  Biso   1.000  H
  C162     1.0000 0.44064  0.74751  0.19652  Biso   1.000  C
  C163     1.0000 0.51340  0.40069  0.37013  Biso   1.000  C
  C164     1.0000 0.45910  0.39080  0.30360  Biso   1.000  C
  H59      1.0000 0.55370  0.41900  0.42220  Biso   1.000  H
  C165     1.0000 0.42990  0.52200  0.16646  Biso   1.000  C
  H60      1.0000 0.45630  0.58350  0.14350  Biso   1.000  H
  C166     1.0000 0.39490  0.44880  0.20106  Biso   1.000  C
  C167     1.0000 0.39150  0.72699  0.19638  Biso   1.000  C
  H61      1.0000 0.35320  0.66480  0.19550  Biso   1.000  H
  C168     1.0000 0.44560  0.80019  0.19894  Biso   1.000  C
  O84      1.0000 0.42830  0.36300  0.31750  Biso   1.000  O
  H62      1.0000 0.44170  0.50350  0.14370  Biso   1.000  H
  H63      1.0000 0.36110  0.74610  0.19610  Biso   1.000  H
  Co8      1.0000 0.49267  0.12025  0.78450  Biso   1.000  Co
  O85      1.0000 0.50920  0.06005  0.80817  Biso   1.000  O
  O86      1.0000 0.41721  0.12673  0.78986  Biso   1.000  O
  O87      1.0000 0.53279  0.11422  0.73188  Biso   1.000  O
  O88      1.0000 0.49219  0.31591  0.69631  Biso   1.000  O
  C169     1.0000 0.52210  0.04901  0.84440  Biso   1.000  C
  C170     1.0000 0.38100  0.10450  0.77071  Biso   1.000  C
  C171     1.0000 0.52997  0.14281  0.70099  Biso   1.000  C
  O89      1.0000 0.53560  0.07626  0.87222  Biso   1.000  O
  C172     1.0000 0.51970  0.99711  0.85377  Biso   1.000  C
  O90      1.0000 0.33491  0.10454  0.78222  Biso   1.000  O
  C173     1.0000 0.39710  0.07693  0.73298  Biso   1.000  C
  O91      1.0000 0.56653  0.15004  0.67745  Biso   1.000  O
  C174     1.0000 0.47990  0.17052  0.69715  Biso   1.000  C
  O92      1.0000 0.40615  0.32427  0.70381  Biso   1.000  O
  C175     1.0000 0.49600  0.96689  0.82553  Biso   1.000  C
  C176     1.0000 0.54100  0.97820  0.88920  Biso   1.000  C
  C177     1.0000 0.42320  0.09768  0.69968  Biso   1.000  C
  C178     1.0000 0.38640  0.02850  0.73286  Biso   1.000  C
  C179     1.0000 0.43060  0.14982  0.69831  Biso   1.000  C
  C180     1.0000 0.48467  0.21893  0.69621  Biso   1.000  C
  O93      1.0000 0.41935  0.92331  0.67637  Biso   1.000  O
  O94      1.0000 0.45890  0.89900  0.76760  Biso   1.000  O
  O95      1.0000 0.36110  0.93463  0.72728  Biso   1.000  O
  H64      1.0000 0.48220  0.97900  0.80020  Biso   1.000  H
  C181     1.0000 0.49211  0.91890  0.83373  Biso   1.000  C
  C182     1.0000 0.53830  0.93100  0.89750  Biso   1.000  C
  H65      1.0000 0.55800  0.99820  0.90860  Biso   1.000  H
  C183     1.0000 0.43900  0.06960  0.66655  Biso   1.000  C
  H66      1.0000 0.36760  0.01490  0.75540  Biso   1.000  H
  C184     1.0000 0.40330  0.00066  0.69981  Biso   1.000  C
  C185     1.0000 0.38680  0.17855  0.69659  Biso   1.000  C
  H67      1.0000 0.51830  0.23270  0.69530  Biso   1.000  H
  C186     1.0000 0.44064  0.24751  0.69652  Biso   1.000  C
  C187     1.0000 0.51340  0.90069  0.87013  Biso   1.000  C
  C188     1.0000 0.45910  0.89080  0.80360  Biso   1.000  C
  H68      1.0000 0.55370  0.91900  0.92220  Biso   1.000  H
  C189     1.0000 0.42990  0.02200  0.66646  Biso   1.000  C
  H69      1.0000 0.45630  0.08350  0.64350  Biso   1.000  H
  C190     1.0000 0.39490  0.94880  0.70106  Biso   1.000  C
  C191     1.0000 0.39150  0.22699  0.69638  Biso   1.000  C
  H70      1.0000 0.35320  0.16480  0.69550  Biso   1.000  H
  C192     1.0000 0.44560  0.30019  0.69894  Biso   1.000  C
  O96      1.0000 0.42830  0.86300  0.81750  Biso   1.000  O
  H71      1.0000 0.44170  0.00350  0.64370  Biso   1.000  H
  H72      1.0000 0.36110  0.24610  0.69610  Biso   1.000  H
  Co9      1.0000 0.99267  0.12975  0.96550  Biso   1.000  Co
  O97      1.0000 0.00920  0.18995  0.94183  Biso   1.000  O
  O98      1.0000 0.91721  0.12327  0.96014  Biso   1.000  O
  O99      1.0000 0.03279  0.13578  0.01812  Biso   1.000  O
  O100     1.0000 0.99219  0.93409  0.05369  Biso   1.000  O
  C193     1.0000 0.02210  0.20099  0.90560  Biso   1.000  C
  C194     1.0000 0.88100  0.14550  0.97929  Biso   1.000  C
  C195     1.0000 0.02997  0.10719  0.04901  Biso   1.000  C
  O101     1.0000 0.03560  0.17374  0.87778  Biso   1.000  O
  C196     1.0000 0.01970  0.25289  0.89623  Biso   1.000  C
  O102     1.0000 0.83491  0.14546  0.96778  Biso   1.000  O
  C197     1.0000 0.89710  0.17307  0.01702  Biso   1.000  C
  O103     1.0000 0.06653  0.09996  0.07255  Biso   1.000  O
  C198     1.0000 0.97990  0.07948  0.05285  Biso   1.000  C
  O104     1.0000 0.90615  0.92573  0.04619  Biso   1.000  O
  C199     1.0000 0.99600  0.28311  0.92447  Biso   1.000  C
  C200     1.0000 0.04100  0.27180  0.86080  Biso   1.000  C
  C201     1.0000 0.92320  0.15232  0.05032  Biso   1.000  C
  C202     1.0000 0.88640  0.22150  0.01714  Biso   1.000  C
  C203     1.0000 0.93060  0.10018  0.05169  Biso   1.000  C
  C204     1.0000 0.98467  0.03107  0.05379  Biso   1.000  C
  O105     1.0000 0.91935  0.32669  0.07363  Biso   1.000  O
  O106     1.0000 0.95890  0.35100  0.98240  Biso   1.000  O
  O107     1.0000 0.86110  0.31537  0.02272  Biso   1.000  O
  H73      1.0000 0.98220  0.27100  0.94980  Biso   1.000  H
  C205     1.0000 0.99211  0.33110  0.91627  Biso   1.000  C
  C206     1.0000 0.03830  0.31900  0.85250  Biso   1.000  C
  H74      1.0000 0.05800  0.25180  0.84140  Biso   1.000  H
  C207     1.0000 0.93900  0.18040  0.08345  Biso   1.000  C
  H75      1.0000 0.86760  0.23510  0.99460  Biso   1.000  H
  C208     1.0000 0.90330  0.24934  0.05019  Biso   1.000  C
  C209     1.0000 0.88680  0.07145  0.05341  Biso   1.000  C
  H76      1.0000 0.01830  0.01730  0.05470  Biso   1.000  H
  C210     1.0000 0.94064  0.00249  0.05348  Biso   1.000  C
  C211     1.0000 0.01340  0.34931  0.87987  Biso   1.000  C
  C212     1.0000 0.95910  0.35920  0.94640  Biso   1.000  C
  H77      1.0000 0.05370  0.33100  0.82780  Biso   1.000  H
  C213     1.0000 0.92990  0.22800  0.08354  Biso   1.000  C
  H78      1.0000 0.95630  0.16650  0.10650  Biso   1.000  H
  C214     1.0000 0.89490  0.30120  0.04894  Biso   1.000  C
  C215     1.0000 0.89150  0.02301  0.05362  Biso   1.000  C
  H79      1.0000 0.85320  0.08520  0.05450  Biso   1.000  H
  C216     1.0000 0.94560  0.94981  0.05106  Biso   1.000  C
  O108     1.0000 0.92830  0.38700  0.93250  Biso   1.000  O
  H80      1.0000 0.94170  0.24650  0.10630  Biso   1.000  H
  H81      1.0000 0.86110  0.00390  0.05390  Biso   1.000  H
  Co10     1.0000 0.99267  0.62975  0.46550  Biso   1.000  Co
  O109     1.0000 0.00920  0.68995  0.44183  Biso   1.000  O
  O110     1.0000 0.91721  0.62327  0.46014  Biso   1.000  O
  O111     1.0000 0.03279  0.63578  0.51812  Biso   1.000  O
  O112     1.0000 0.99219  0.43409  0.55369  Biso   1.000  O
  C217     1.0000 0.02210  0.70099  0.40560  Biso   1.000  C
  C218     1.0000 0.88100  0.64550  0.47929  Biso   1.000  C
  C219     1.0000 0.02997  0.60719  0.54901  Biso   1.000  C
  O113     1.0000 0.03560  0.67374  0.37778  Biso   1.000  O
  C220     1.0000 0.01970  0.75289  0.39623  Biso   1.000  C
  O114     1.0000 0.83491  0.64546  0.46778  Biso   1.000  O
  C221     1.0000 0.89710  0.67307  0.51702  Biso   1.000  C
  O115     1.0000 0.06653  0.59996  0.57255  Biso   1.000  O
  C222     1.0000 0.97990  0.57948  0.55285  Biso   1.000  C
  O116     1.0000 0.90615  0.42573  0.54619  Biso   1.000  O
  C223     1.0000 0.99600  0.78311  0.42447  Biso   1.000  C
  C224     1.0000 0.04100  0.77180  0.36080  Biso   1.000  C
  C225     1.0000 0.92320  0.65232  0.55032  Biso   1.000  C
  C226     1.0000 0.88640  0.72150  0.51714  Biso   1.000  C
  C227     1.0000 0.93060  0.60018  0.55169  Biso   1.000  C
  C228     1.0000 0.98467  0.53107  0.55379  Biso   1.000  C
  O117     1.0000 0.91935  0.82669  0.57363  Biso   1.000  O
  O118     1.0000 0.95890  0.85100  0.48240  Biso   1.000  O
  O119     1.0000 0.86110  0.81537  0.52272  Biso   1.000  O
  H82      1.0000 0.98220  0.77100  0.44980  Biso   1.000  H
  C229     1.0000 0.99211  0.83110  0.41627  Biso   1.000  C
  C230     1.0000 0.03830  0.81900  0.35250  Biso   1.000  C
  H83      1.0000 0.05800  0.75180  0.34140  Biso   1.000  H
  C231     1.0000 0.93900  0.68040  0.58345  Biso   1.000  C
  H84      1.0000 0.86760  0.73510  0.49460  Biso   1.000  H
  C232     1.0000 0.90330  0.74934  0.55019  Biso   1.000  C
  C233     1.0000 0.88680  0.57145  0.55341  Biso   1.000  C
  H85      1.0000 0.01830  0.51730  0.55470  Biso   1.000  H
  C234     1.0000 0.94064  0.50249  0.55348  Biso   1.000  C
  C235     1.0000 0.01340  0.84931  0.37987  Biso   1.000  C
  C236     1.0000 0.95910  0.85920  0.44640  Biso   1.000  C
  H86      1.0000 0.05370  0.83100  0.32780  Biso   1.000  H
  C237     1.0000 0.92990  0.72800  0.58354  Biso   1.000  C
  H87      1.0000 0.95630  0.66650  0.60650  Biso   1.000  H
  C238     1.0000 0.89490  0.80120  0.54894  Biso   1.000  C
  C239     1.0000 0.89150  0.52301  0.55362  Biso   1.000  C
  H88      1.0000 0.85320  0.58520  0.55450  Biso   1.000  H
  C240     1.0000 0.94560  0.44981  0.55106  Biso   1.000  C
  O120     1.0000 0.92830  0.88700  0.43250  Biso   1.000  O
  H89      1.0000 0.94170  0.74650  0.60630  Biso   1.000  H
  H90      1.0000 0.86110  0.50390  0.55390  Biso   1.000  H
  Co11     1.0000 0.49267  0.12975  0.46550  Biso   1.000  Co
  O121     1.0000 0.50920  0.18995  0.44183  Biso   1.000  O
  O122     1.0000 0.41721  0.12327  0.46014  Biso   1.000  O
  O123     1.0000 0.53279  0.13578  0.51812  Biso   1.000  O
  O124     1.0000 0.49219  0.93409  0.55369  Biso   1.000  O
  C241     1.0000 0.52210  0.20099  0.40560  Biso   1.000  C
  C242     1.0000 0.38100  0.14550  0.47929  Biso   1.000  C
  C243     1.0000 0.52997  0.10719  0.54901  Biso   1.000  C
  O125     1.0000 0.53560  0.17374  0.37778  Biso   1.000  O
  C244     1.0000 0.51970  0.25289  0.39623  Biso   1.000  C
  O126     1.0000 0.33491  0.14546  0.46778  Biso   1.000  O
  C245     1.0000 0.39710  0.17307  0.51702  Biso   1.000  C
  O127     1.0000 0.56653  0.09996  0.57255  Biso   1.000  O
  C246     1.0000 0.47990  0.07948  0.55285  Biso   1.000  C
  O128     1.0000 0.40615  0.92573  0.54619  Biso   1.000  O
  C247     1.0000 0.49600  0.28311  0.42447  Biso   1.000  C
  C248     1.0000 0.54100  0.27180  0.36080  Biso   1.000  C
  C249     1.0000 0.42320  0.15232  0.55032  Biso   1.000  C
  C250     1.0000 0.38640  0.22150  0.51714  Biso   1.000  C
  C251     1.0000 0.43060  0.10018  0.55169  Biso   1.000  C
  C252     1.0000 0.48467  0.03107  0.55379  Biso   1.000  C
  O129     1.0000 0.41935  0.32669  0.57363  Biso   1.000  O
  O130     1.0000 0.45890  0.35100  0.48240  Biso   1.000  O
  O131     1.0000 0.36110  0.31537  0.52272  Biso   1.000  O
  H91      1.0000 0.48220  0.27100  0.44980  Biso   1.000  H
  C253     1.0000 0.49211  0.33110  0.41627  Biso   1.000  C
  C254     1.0000 0.53830  0.31900  0.35250  Biso   1.000  C
  H92      1.0000 0.55800  0.25180  0.34140  Biso   1.000  H
  C255     1.0000 0.43900  0.18040  0.58345  Biso   1.000  C
  H93      1.0000 0.36760  0.23510  0.49460  Biso   1.000  H
  C256     1.0000 0.40330  0.24934  0.55019  Biso   1.000  C
  C257     1.0000 0.38680  0.07145  0.55341  Biso   1.000  C
  H94      1.0000 0.51830  0.01730  0.55470  Biso   1.000  H
  C258     1.0000 0.44064  0.00249  0.55348  Biso   1.000  C
  C259     1.0000 0.51340  0.34931  0.37987  Biso   1.000  C
  C260     1.0000 0.45910  0.35920  0.44640  Biso   1.000  C
  H95      1.0000 0.55370  0.33100  0.32780  Biso   1.000  H
  C261     1.0000 0.42990  0.22800  0.58354  Biso   1.000  C
  H96      1.0000 0.45630  0.16650  0.60650  Biso   1.000  H
  C262     1.0000 0.39490  0.30120  0.54894  Biso   1.000  C
  C263     1.0000 0.39150  0.02301  0.55362  Biso   1.000  C
  H97      1.0000 0.35320  0.08520  0.55450  Biso   1.000  H
  C264     1.0000 0.44560  0.94981  0.55106  Biso   1.000  C
  O132     1.0000 0.42830  0.38700  0.43250  Biso   1.000  O
  H98      1.0000 0.44170  0.24650  0.60630  Biso   1.000  H
  H99      1.0000 0.36110  0.00390  0.55390  Biso   1.000  H
  Co12     1.0000 0.49267  0.62975  0.96550  Biso   1.000  Co
  O133     1.0000 0.50920  0.68995  0.94183  Biso   1.000  O
  O134     1.0000 0.41721  0.62327  0.96014  Biso   1.000  O
  O135     1.0000 0.53279  0.63578  0.01812  Biso   1.000  O
  O136     1.0000 0.49219  0.43409  0.05369  Biso   1.000  O
  C265     1.0000 0.52210  0.70099  0.90560  Biso   1.000  C
  C266     1.0000 0.38100  0.64550  0.97929  Biso   1.000  C
  C267     1.0000 0.52997  0.60719  0.04901  Biso   1.000  C
  O137     1.0000 0.53560  0.67374  0.87778  Biso   1.000  O
  C268     1.0000 0.51970  0.75289  0.89623  Biso   1.000  C
  O138     1.0000 0.33491  0.64546  0.96778  Biso   1.000  O
  C269     1.0000 0.39710  0.67307  0.01702  Biso   1.000  C
  O139     1.0000 0.56653  0.59996  0.07255  Biso   1.000  O
  C270     1.0000 0.47990  0.57948  0.05285  Biso   1.000  C
  O140     1.0000 0.40615  0.42573  0.04619  Biso   1.000  O
  C271     1.0000 0.49600  0.78311  0.92447  Biso   1.000  C
  C272     1.0000 0.54100  0.77180  0.86080  Biso   1.000  C
  C273     1.0000 0.42320  0.65232  0.05032  Biso   1.000  C
  C274     1.0000 0.38640  0.72150  0.01714  Biso   1.000  C
  C275     1.0000 0.43060  0.60018  0.05169  Biso   1.000  C
  C276     1.0000 0.48467  0.53107  0.05379  Biso   1.000  C
  O141     1.0000 0.41935  0.82669  0.07363  Biso   1.000  O
  O142     1.0000 0.45890  0.85100  0.98240  Biso   1.000  O
  O143     1.0000 0.36110  0.81537  0.02272  Biso   1.000  O
  H100     1.0000 0.48220  0.77100  0.94980  Biso   1.000  H
  C277     1.0000 0.49211  0.83110  0.91627  Biso   1.000  C
  C278     1.0000 0.53830  0.81900  0.85250  Biso   1.000  C
  H101     1.0000 0.55800  0.75180  0.84140  Biso   1.000  H
  C279     1.0000 0.43900  0.68040  0.08345  Biso   1.000  C
  H102     1.0000 0.36760  0.73510  0.99460  Biso   1.000  H
  C280     1.0000 0.40330  0.74934  0.05019  Biso   1.000  C
  C281     1.0000 0.38680  0.57145  0.05341  Biso   1.000  C
  H103     1.0000 0.51830  0.51730  0.05470  Biso   1.000  H
  C282     1.0000 0.44064  0.50249  0.05348  Biso   1.000  C
  C283     1.0000 0.51340  0.84931  0.87987  Biso   1.000  C
  C284     1.0000 0.45910  0.85920  0.94640  Biso   1.000  C
  H104     1.0000 0.55370  0.83100  0.82780  Biso   1.000  H
  C285     1.0000 0.42990  0.72800  0.08354  Biso   1.000  C
  H105     1.0000 0.45630  0.66650  0.10650  Biso   1.000  H
  C286     1.0000 0.39490  0.80120  0.04894  Biso   1.000  C
  C287     1.0000 0.39150  0.52301  0.05362  Biso   1.000  C
  H106     1.0000 0.35320  0.58520  0.05450  Biso   1.000  H
  C288     1.0000 0.44560  0.44981  0.05106  Biso   1.000  C
  O144     1.0000 0.42830  0.88700  0.93250  Biso   1.000  O
  H107     1.0000 0.44170  0.74650  0.10630  Biso   1.000  H
  H108     1.0000 0.36110  0.50390  0.05390  Biso   1.000  H
  Co13     1.0000 0.75733  0.62025  0.96550  Biso   1.000  Co
  O145     1.0000 0.74080  0.56005  0.94183  Biso   1.000  O
  O146     1.0000 0.83279  0.62673  0.96014  Biso   1.000  O
  O147     1.0000 0.71721  0.61422  0.01812  Biso   1.000  O
  O148     1.0000 0.75781  0.81591  0.05369  Biso   1.000  O
  C289     1.0000 0.72790  0.54901  0.90560  Biso   1.000  C
  C290     1.0000 0.86900  0.60450  0.97929  Biso   1.000  C
  C291     1.0000 0.72003  0.64281  0.04901  Biso   1.000  C
  O149     1.0000 0.71440  0.57626  0.87778  Biso   1.000  O
  C292     1.0000 0.73030  0.49711  0.89623  Biso   1.000  C
  O150     1.0000 0.91509  0.60454  0.96778  Biso   1.000  O
  C293     1.0000 0.85290  0.57693  0.01702  Biso   1.000  C
  O151     1.0000 0.68347  0.65004  0.07255  Biso   1.000  O
  C294     1.0000 0.77010  0.67052  0.05285  Biso   1.000  C
  O152     1.0000 0.84385  0.82427  0.04619  Biso   1.000  O
  C295     1.0000 0.75400  0.46689  0.92447  Biso   1.000  C
  C296     1.0000 0.70900  0.47820  0.86080  Biso   1.000  C
  C297     1.0000 0.82680  0.59768  0.05032  Biso   1.000  C
  C298     1.0000 0.86360  0.52850  0.01714  Biso   1.000  C
  C299     1.0000 0.81940  0.64982  0.05169  Biso   1.000  C
  C300     1.0000 0.76533  0.71893  0.05379  Biso   1.000  C
  O153     1.0000 0.83065  0.42331  0.07363  Biso   1.000  O
  O154     1.0000 0.79110  0.39900  0.98240  Biso   1.000  O
  O155     1.0000 0.88890  0.43463  0.02272  Biso   1.000  O
  H109     1.0000 0.76780  0.47900  0.94980  Biso   1.000  H
  C301     1.0000 0.75789  0.41890  0.91627  Biso   1.000  C
  C302     1.0000 0.71170  0.43100  0.85250  Biso   1.000  C
  H110     1.0000 0.69200  0.49820  0.84140  Biso   1.000  H
  C303     1.0000 0.81100  0.56960  0.08345  Biso   1.000  C
  H111     1.0000 0.88240  0.51490  0.99460  Biso   1.000  H
  C304     1.0000 0.84670  0.50066  0.05019  Biso   1.000  C
  C305     1.0000 0.86320  0.67855  0.05341  Biso   1.000  C
  H112     1.0000 0.73170  0.73270  0.05470  Biso   1.000  H
  C306     1.0000 0.80936  0.74751  0.05348  Biso   1.000  C
  C307     1.0000 0.73660  0.40069  0.87987  Biso   1.000  C
  C308     1.0000 0.79090  0.39080  0.94640  Biso   1.000  C
  H113     1.0000 0.69630  0.41900  0.82780  Biso   1.000  H
  C309     1.0000 0.82010  0.52200  0.08354  Biso   1.000  C
  H114     1.0000 0.79370  0.58350  0.10650  Biso   1.000  H
  C310     1.0000 0.85510  0.44880  0.04894  Biso   1.000  C
  C311     1.0000 0.85850  0.72699  0.05362  Biso   1.000  C
  H115     1.0000 0.89680  0.66480  0.05450  Biso   1.000  H
  C312     1.0000 0.80440  0.80019  0.05106  Biso   1.000  C
  O156     1.0000 0.82170  0.36300  0.93250  Biso   1.000  O
  H116     1.0000 0.80830  0.50350  0.10630  Biso   1.000  H
  H117     1.0000 0.88890  0.74610  0.05390  Biso   1.000  H
  Co14     1.0000 0.75733  0.12025  0.46550  Biso   1.000  Co
  O157     1.0000 0.74080  0.06005  0.44183  Biso   1.000  O
  O158     1.0000 0.83279  0.12673  0.46014  Biso   1.000  O
  O159     1.0000 0.71721  0.11422  0.51812  Biso   1.000  O
  O160     1.0000 0.75781  0.31591  0.55369  Biso   1.000  O
  C313     1.0000 0.72790  0.04901  0.40560  Biso   1.000  C
  C314     1.0000 0.86900  0.10450  0.47929  Biso   1.000  C
  C315     1.0000 0.72003  0.14281  0.54901  Biso   1.000  C
  O161     1.0000 0.71440  0.07626  0.37778  Biso   1.000  O
  C316     1.0000 0.73030  0.99711  0.39623  Biso   1.000  C
  O162     1.0000 0.91509  0.10454  0.46778  Biso   1.000  O
  C317     1.0000 0.85290  0.07693  0.51702  Biso   1.000  C
  O163     1.0000 0.68347  0.15004  0.57255  Biso   1.000  O
  C318     1.0000 0.77010  0.17052  0.55285  Biso   1.000  C
  O164     1.0000 0.84385  0.32427  0.54619  Biso   1.000  O
  C319     1.0000 0.75400  0.96689  0.42447  Biso   1.000  C
  C320     1.0000 0.70900  0.97820  0.36080  Biso   1.000  C
  C321     1.0000 0.82680  0.09768  0.55032  Biso   1.000  C
  C322     1.0000 0.86360  0.02850  0.51714  Biso   1.000  C
  C323     1.0000 0.81940  0.14982  0.55169  Biso   1.000  C
  C324     1.0000 0.76533  0.21893  0.55379  Biso   1.000  C
  O165     1.0000 0.83065  0.92331  0.57363  Biso   1.000  O
  O166     1.0000 0.79110  0.89900  0.48240  Biso   1.000  O
  O167     1.0000 0.88890  0.93463  0.52272  Biso   1.000  O
  H118     1.0000 0.76780  0.97900  0.44980  Biso   1.000  H
  C325     1.0000 0.75789  0.91890  0.41627  Biso   1.000  C
  C326     1.0000 0.71170  0.93100  0.35250  Biso   1.000  C
  H119     1.0000 0.69200  0.99820  0.34140  Biso   1.000  H
  C327     1.0000 0.81100  0.06960  0.58345  Biso   1.000  C
  H120     1.0000 0.88240  0.01490  0.49460  Biso   1.000  H
  C328     1.0000 0.84670  0.00066  0.55019  Biso   1.000  C
  C329     1.0000 0.86320  0.17855  0.55341  Biso   1.000  C
  H121     1.0000 0.73170  0.23270  0.55470  Biso   1.000  H
  C330     1.0000 0.80936  0.24751  0.55348  Biso   1.000  C
  C331     1.0000 0.73660  0.90069  0.37987  Biso   1.000  C
  C332     1.0000 0.79090  0.89080  0.44640  Biso   1.000  C
  H122     1.0000 0.69630  0.91900  0.32780  Biso   1.000  H
  C333     1.0000 0.82010  0.02200  0.58354  Biso   1.000  C
  H123     1.0000 0.79370  0.08350  0.60650  Biso   1.000  H
  C334     1.0000 0.85510  0.94880  0.54894  Biso   1.000  C
  C335     1.0000 0.85850  0.22699  0.55362  Biso   1.000  C
  H124     1.0000 0.89680  0.16480  0.55450  Biso   1.000  H
  C336     1.0000 0.80440  0.30019  0.55106  Biso   1.000  C
  O168     1.0000 0.82170  0.86300  0.43250  Biso   1.000  O
  H125     1.0000 0.80830  0.00350  0.60630  Biso   1.000  H
  H126     1.0000 0.88890  0.24610  0.55390  Biso   1.000  H
  Co15     1.0000 0.25733  0.62025  0.46550  Biso   1.000  Co
  O169     1.0000 0.24080  0.56005  0.44183  Biso   1.000  O
  O170     1.0000 0.33279  0.62673  0.46014  Biso   1.000  O
  O171     1.0000 0.21721  0.61422  0.51812  Biso   1.000  O
  O172     1.0000 0.25781  0.81591  0.55369  Biso   1.000  O
  C337     1.0000 0.22790  0.54901  0.40560  Biso   1.000  C
  C338     1.0000 0.36900  0.60450  0.47929  Biso   1.000  C
  C339     1.0000 0.22003  0.64281  0.54901  Biso   1.000  C
  O173     1.0000 0.21440  0.57626  0.37778  Biso   1.000  O
  C340     1.0000 0.23030  0.49711  0.39623  Biso   1.000  C
  O174     1.0000 0.41509  0.60454  0.46778  Biso   1.000  O
  C341     1.0000 0.35290  0.57693  0.51702  Biso   1.000  C
  O175     1.0000 0.18347  0.65004  0.57255  Biso   1.000  O
  C342     1.0000 0.27010  0.67052  0.55285  Biso   1.000  C
  O176     1.0000 0.34385  0.82427  0.54619  Biso   1.000  O
  C343     1.0000 0.25400  0.46689  0.42447  Biso   1.000  C
  C344     1.0000 0.20900  0.47820  0.36080  Biso   1.000  C
  C345     1.0000 0.32680  0.59768  0.55032  Biso   1.000  C
  C346     1.0000 0.36360  0.52850  0.51714  Biso   1.000  C
  C347     1.0000 0.31940  0.64982  0.55169  Biso   1.000  C
  C348     1.0000 0.26533  0.71893  0.55379  Biso   1.000  C
  O177     1.0000 0.33065  0.42331  0.57363  Biso   1.000  O
  O178     1.0000 0.29110  0.39900  0.48240  Biso   1.000  O
  O179     1.0000 0.38890  0.43463  0.52272  Biso   1.000  O
  H127     1.0000 0.26780  0.47900  0.44980  Biso   1.000  H
  C349     1.0000 0.25789  0.41890  0.41627  Biso   1.000  C
  C350     1.0000 0.21170  0.43100  0.35250  Biso   1.000  C
  H128     1.0000 0.19200  0.49820  0.34140  Biso   1.000  H
  C351     1.0000 0.31100  0.56960  0.58345  Biso   1.000  C
  H129     1.0000 0.38240  0.51490  0.49460  Biso   1.000  H
  C352     1.0000 0.34670  0.50066  0.55019  Biso   1.000  C
  C353     1.0000 0.36320  0.67855  0.55341  Biso   1.000  C
  H130     1.0000 0.23170  0.73270  0.55470  Biso   1.000  H
  C354     1.0000 0.30936  0.74751  0.55348  Biso   1.000  C
  C355     1.0000 0.23660  0.40069  0.37987  Biso   1.000  C
  C356     1.0000 0.29090  0.39080  0.44640  Biso   1.000  C
  H131     1.0000 0.19630  0.41900  0.32780  Biso   1.000  H
  C357     1.0000 0.32010  0.52200  0.58354  Biso   1.000  C
  H132     1.0000 0.29370  0.58350  0.60650  Biso   1.000  H
  C358     1.0000 0.35510  0.44880  0.54894  Biso   1.000  C
  C359     1.0000 0.35850  0.72699  0.55362  Biso   1.000  C
  H133     1.0000 0.39680  0.66480  0.55450  Biso   1.000  H
  C360     1.0000 0.30440  0.80019  0.55106  Biso   1.000  C
  O180     1.0000 0.32170  0.36300  0.43250  Biso   1.000  O
  H134     1.0000 0.30830  0.50350  0.60630  Biso   1.000  H
  H135     1.0000 0.38890  0.74610  0.55390  Biso   1.000  H
  Co16     1.0000 0.25733  0.12025  0.96550  Biso   1.000  Co
  O181     1.0000 0.24080  0.06005  0.94183  Biso   1.000  O
  O182     1.0000 0.33279  0.12673  0.96014  Biso   1.000  O
  O183     1.0000 0.21721  0.11422  0.01812  Biso   1.000  O
  O184     1.0000 0.25781  0.31591  0.05369  Biso   1.000  O
  C361     1.0000 0.22790  0.04901  0.90560  Biso   1.000  C
  C362     1.0000 0.36900  0.10450  0.97929  Biso   1.000  C
  C363     1.0000 0.22003  0.14281  0.04901  Biso   1.000  C
  O185     1.0000 0.21440  0.07626  0.87778  Biso   1.000  O
  C364     1.0000 0.23030  0.99711  0.89623  Biso   1.000  C
  O186     1.0000 0.41509  0.10454  0.96778  Biso   1.000  O
  C365     1.0000 0.35290  0.07693  0.01702  Biso   1.000  C
  O187     1.0000 0.18347  0.15004  0.07255  Biso   1.000  O
  C366     1.0000 0.27010  0.17052  0.05285  Biso   1.000  C
  O188     1.0000 0.34385  0.32427  0.04619  Biso   1.000  O
  C367     1.0000 0.25400  0.96689  0.92447  Biso   1.000  C
  C368     1.0000 0.20900  0.97820  0.86080  Biso   1.000  C
  C369     1.0000 0.32680  0.09768  0.05032  Biso   1.000  C
  C370     1.0000 0.36360  0.02850  0.01714  Biso   1.000  C
  C371     1.0000 0.31940  0.14982  0.05169  Biso   1.000  C
  C372     1.0000 0.26533  0.21893  0.05379  Biso   1.000  C
  O189     1.0000 0.33065  0.92331  0.07363  Biso   1.000  O
  O190     1.0000 0.29110  0.89900  0.98240  Biso   1.000  O
  O191     1.0000 0.38890  0.93463  0.02272  Biso   1.000  O
  H136     1.0000 0.26780  0.97900  0.94980  Biso   1.000  H
  C373     1.0000 0.25789  0.91890  0.91627  Biso   1.000  C
  C374     1.0000 0.21170  0.93100  0.85250  Biso   1.000  C
  H137     1.0000 0.19200  0.99820  0.84140  Biso   1.000  H
  C375     1.0000 0.31100  0.06960  0.08345  Biso   1.000  C
  H138     1.0000 0.38240  0.01490  0.99460  Biso   1.000  H
  C376     1.0000 0.34670  0.00066  0.05019  Biso   1.000  C
  C377     1.0000 0.36320  0.17855  0.05341  Biso   1.000  C
  H139     1.0000 0.23170  0.23270  0.05470  Biso   1.000  H
  C378     1.0000 0.30936  0.24751  0.05348  Biso   1.000  C
  C379     1.0000 0.23660  0.90069  0.87987  Biso   1.000  C
  C380     1.0000 0.29090  0.89080  0.94640  Biso   1.000  C
  H140     1.0000 0.19630  0.91900  0.82780  Biso   1.000  H
  C381     1.0000 0.32010  0.02200  0.08354  Biso   1.000  C
  H141     1.0000 0.29370  0.08350  0.10650  Biso   1.000  H
  C382     1.0000 0.35510  0.94880  0.04894  Biso   1.000  C
  C383     1.0000 0.35850  0.22699  0.05362  Biso   1.000  C
  H142     1.0000 0.39680  0.16480  0.05450  Biso   1.000  H
  C384     1.0000 0.30440  0.30019  0.05106  Biso   1.000  C
  O192     1.0000 0.32170  0.86300  0.93250  Biso   1.000  O
  H143     1.0000 0.30830  0.00350  0.10630  Biso   1.000  H
  H144     1.0000 0.38890  0.24610  0.05390  Biso   1.000  H
  Co17     1.0000 0.24267  0.87025  0.21550  Biso   1.000  Co
  O193     1.0000 0.25920  0.81005  0.19183  Biso   1.000  O
  O194     1.0000 0.16721  0.87673  0.21014  Biso   1.000  O
  O195     1.0000 0.28279  0.86422  0.26812  Biso   1.000  O
  O196     1.0000 0.24219  0.06591  0.30369  Biso   1.000  O
  C385     1.0000 0.27210  0.79901  0.15560  Biso   1.000  C
  C386     1.0000 0.13100  0.85450  0.22929  Biso   1.000  C
  C387     1.0000 0.27997  0.89281  0.29901  Biso   1.000  C
  O197     1.0000 0.28560  0.82626  0.12778  Biso   1.000  O
  C388     1.0000 0.26970  0.74711  0.14623  Biso   1.000  C
  O198     1.0000 0.08491  0.85454  0.21778  Biso   1.000  O
  C389     1.0000 0.14710  0.82693  0.26702  Biso   1.000  C
  O199     1.0000 0.31653  0.90004  0.32255  Biso   1.000  O
  C390     1.0000 0.22990  0.92052  0.30285  Biso   1.000  C
  O200     1.0000 0.15615  0.07427  0.29619  Biso   1.000  O
  C391     1.0000 0.24600  0.71689  0.17447  Biso   1.000  C
  C392     1.0000 0.29100  0.72820  0.11080  Biso   1.000  C
  C393     1.0000 0.17320  0.84768  0.30032  Biso   1.000  C
  C394     1.0000 0.13640  0.77850  0.26714  Biso   1.000  C
  C395     1.0000 0.18060  0.89982  0.30169  Biso   1.000  C
  C396     1.0000 0.23467  0.96893  0.30379  Biso   1.000  C
  O201     1.0000 0.16935  0.67331  0.32363  Biso   1.000  O
  O202     1.0000 0.20890  0.64900  0.23240  Biso   1.000  O
  O203     1.0000 0.11110  0.68463  0.27272  Biso   1.000  O
  H145     1.0000 0.23220  0.72900  0.19980  Biso   1.000  H
  C397     1.0000 0.24211  0.66890  0.16627  Biso   1.000  C
  C398     1.0000 0.28830  0.68100  0.10250  Biso   1.000  C
  H146     1.0000 0.30800  0.74820  0.09140  Biso   1.000  H
  C399     1.0000 0.18900  0.81960  0.33345  Biso   1.000  C
  H147     1.0000 0.11760  0.76490  0.24460  Biso   1.000  H
  C400     1.0000 0.15330  0.75066  0.30019  Biso   1.000  C
  C401     1.0000 0.13680  0.92855  0.30341  Biso   1.000  C
  H148     1.0000 0.26830  0.98270  0.30470  Biso   1.000  H
  C402     1.0000 0.19064  0.99751  0.30348  Biso   1.000  C
  C403     1.0000 0.26340  0.65069  0.12987  Biso   1.000  C
  C404     1.0000 0.20910  0.64080  0.19640  Biso   1.000  C
  H149     1.0000 0.30370  0.66900  0.07780  Biso   1.000  H
  C405     1.0000 0.17990  0.77200  0.33354  Biso   1.000  C
  H150     1.0000 0.20630  0.83350  0.35650  Biso   1.000  H
  C406     1.0000 0.14490  0.69880  0.29894  Biso   1.000  C
  C407     1.0000 0.14150  0.97699  0.30362  Biso   1.000  C
  H151     1.0000 0.10320  0.91480  0.30450  Biso   1.000  H
  C408     1.0000 0.19560  0.05019  0.30106  Biso   1.000  C
  O204     1.0000 0.17830  0.61300  0.18250  Biso   1.000  O
  H152     1.0000 0.19170  0.75350  0.35630  Biso   1.000  H
  H153     1.0000 0.11110  0.99610  0.30390  Biso   1.000  H
  Co18     1.0000 0.24267  0.37025  0.71550  Biso   1.000  Co
  O205     1.0000 0.25920  0.31005  0.69183  Biso   1.000  O
  O206     1.0000 0.16721  0.37673  0.71014  Biso   1.000  O
  O207     1.0000 0.28279  0.36422  0.76812  Biso   1.000  O
  O208     1.0000 0.24219  0.56591  0.80369  Biso   1.000  O
  C409     1.0000 0.27210  0.29901  0.65560  Biso   1.000  C
  C410     1.0000 0.13100  0.35450  0.72929  Biso   1.000  C
  C411     1.0000 0.27997  0.39281  0.79901  Biso   1.000  C
  O209     1.0000 0.28560  0.32626  0.62778  Biso   1.000  O
  C412     1.0000 0.26970  0.24711  0.64623  Biso   1.000  C
  O210     1.0000 0.08491  0.35454  0.71778  Biso   1.000  O
  C413     1.0000 0.14710  0.32693  0.76702  Biso   1.000  C
  O211     1.0000 0.31653  0.40004  0.82255  Biso   1.000  O
  C414     1.0000 0.22990  0.42052  0.80285  Biso   1.000  C
  O212     1.0000 0.15615  0.57427  0.79619  Biso   1.000  O
  C415     1.0000 0.24600  0.21689  0.67447  Biso   1.000  C
  C416     1.0000 0.29100  0.22820  0.61080  Biso   1.000  C
  C417     1.0000 0.17320  0.34768  0.80032  Biso   1.000  C
  C418     1.0000 0.13640  0.27850  0.76714  Biso   1.000  C
  C419     1.0000 0.18060  0.39982  0.80169  Biso   1.000  C
  C420     1.0000 0.23467  0.46893  0.80379  Biso   1.000  C
  O213     1.0000 0.16935  0.17331  0.82363  Biso   1.000  O
  O214     1.0000 0.20890  0.14900  0.73240  Biso   1.000  O
  O215     1.0000 0.11110  0.18463  0.77272  Biso   1.000  O
  H154     1.0000 0.23220  0.22900  0.69980  Biso   1.000  H
  C421     1.0000 0.24211  0.16890  0.66627  Biso   1.000  C
  C422     1.0000 0.28830  0.18100  0.60250  Biso   1.000  C
  H155     1.0000 0.30800  0.24820  0.59140  Biso   1.000  H
  C423     1.0000 0.18900  0.31960  0.83345  Biso   1.000  C
  H156     1.0000 0.11760  0.26490  0.74460  Biso   1.000  H
  C424     1.0000 0.15330  0.25066  0.80019  Biso   1.000  C
  C425     1.0000 0.13680  0.42855  0.80341  Biso   1.000  C
  H157     1.0000 0.26830  0.48270  0.80470  Biso   1.000  H
  C426     1.0000 0.19064  0.49751  0.80348  Biso   1.000  C
  C427     1.0000 0.26340  0.15069  0.62987  Biso   1.000  C
  C428     1.0000 0.20910  0.14080  0.69640  Biso   1.000  C
  H158     1.0000 0.30370  0.16900  0.57780  Biso   1.000  H
  C429     1.0000 0.17990  0.27200  0.83354  Biso   1.000  C
  H159     1.0000 0.20630  0.33350  0.85650  Biso   1.000  H
  C430     1.0000 0.14490  0.19880  0.79894  Biso   1.000  C
  C431     1.0000 0.14150  0.47699  0.80362  Biso   1.000  C
  H160     1.0000 0.10320  0.41480  0.80450  Biso   1.000  H
  C432     1.0000 0.19560  0.55019  0.80106  Biso   1.000  C
  O216     1.0000 0.17830  0.11300  0.68250  Biso   1.000  O
  H161     1.0000 0.19170  0.25350  0.85630  Biso   1.000  H
  H162     1.0000 0.11110  0.49610  0.80390  Biso   1.000  H
  Co19     1.0000 0.74267  0.87025  0.71550  Biso   1.000  Co
  O217     1.0000 0.75920  0.81005  0.69183  Biso   1.000  O
  O218     1.0000 0.66721  0.87673  0.71014  Biso   1.000  O
  O219     1.0000 0.78279  0.86422  0.76812  Biso   1.000  O
  O220     1.0000 0.74219  0.06591  0.80369  Biso   1.000  O
  C433     1.0000 0.77210  0.79901  0.65560  Biso   1.000  C
  C434     1.0000 0.63100  0.85450  0.72929  Biso   1.000  C
  C435     1.0000 0.77997  0.89281  0.79901  Biso   1.000  C
  O221     1.0000 0.78560  0.82626  0.62778  Biso   1.000  O
  C436     1.0000 0.76970  0.74711  0.64623  Biso   1.000  C
  O222     1.0000 0.58491  0.85454  0.71778  Biso   1.000  O
  C437     1.0000 0.64710  0.82693  0.76702  Biso   1.000  C
  O223     1.0000 0.81653  0.90004  0.82255  Biso   1.000  O
  C438     1.0000 0.72990  0.92052  0.80285  Biso   1.000  C
  O224     1.0000 0.65615  0.07427  0.79619  Biso   1.000  O
  C439     1.0000 0.74600  0.71689  0.67447  Biso   1.000  C
  C440     1.0000 0.79100  0.72820  0.61080  Biso   1.000  C
  C441     1.0000 0.67320  0.84768  0.80032  Biso   1.000  C
  C442     1.0000 0.63640  0.77850  0.76714  Biso   1.000  C
  C443     1.0000 0.68060  0.89982  0.80169  Biso   1.000  C
  C444     1.0000 0.73467  0.96893  0.80379  Biso   1.000  C
  O225     1.0000 0.66935  0.67331  0.82363  Biso   1.000  O
  O226     1.0000 0.70890  0.64900  0.73240  Biso   1.000  O
  O227     1.0000 0.61110  0.68463  0.77272  Biso   1.000  O
  H163     1.0000 0.73220  0.72900  0.69980  Biso   1.000  H
  C445     1.0000 0.74211  0.66890  0.66627  Biso   1.000  C
  C446     1.0000 0.78830  0.68100  0.60250  Biso   1.000  C
  H164     1.0000 0.80800  0.74820  0.59140  Biso   1.000  H
  C447     1.0000 0.68900  0.81960  0.83345  Biso   1.000  C
  H165     1.0000 0.61760  0.76490  0.74460  Biso   1.000  H
  C448     1.0000 0.65330  0.75066  0.80019  Biso   1.000  C
  C449     1.0000 0.63680  0.92855  0.80341  Biso   1.000  C
  H166     1.0000 0.76830  0.98270  0.80470  Biso   1.000  H
  C450     1.0000 0.69064  0.99751  0.80348  Biso   1.000  C
  C451     1.0000 0.76340  0.65069  0.62987  Biso   1.000  C
  C452     1.0000 0.70910  0.64080  0.69640  Biso   1.000  C
  H167     1.0000 0.80370  0.66900  0.57780  Biso   1.000  H
  C453     1.0000 0.67990  0.77200  0.83354  Biso   1.000  C
  H168     1.0000 0.70630  0.83350  0.85650  Biso   1.000  H
  C454     1.0000 0.64490  0.69880  0.79894  Biso   1.000  C
  C455     1.0000 0.64150  0.97699  0.80362  Biso   1.000  C
  H169     1.0000 0.60320  0.91480  0.80450  Biso   1.000  H
  C456     1.0000 0.69560  0.05019  0.80106  Biso   1.000  C
  O228     1.0000 0.67830  0.61300  0.68250  Biso   1.000  O
  H170     1.0000 0.69170  0.75350  0.85630  Biso   1.000  H
  H171     1.0000 0.61110  0.99610  0.80390  Biso   1.000  H
  Co20     1.0000 0.74267  0.37025  0.21550  Biso   1.000  Co
  O229     1.0000 0.75920  0.31005  0.19183  Biso   1.000  O
  O230     1.0000 0.66721  0.37673  0.21014  Biso   1.000  O
  O231     1.0000 0.78279  0.36422  0.26812  Biso   1.000  O
  O232     1.0000 0.74219  0.56591  0.30369  Biso   1.000  O
  C457     1.0000 0.77210  0.29901  0.15560  Biso   1.000  C
  C458     1.0000 0.63100  0.35450  0.22929  Biso   1.000  C
  C459     1.0000 0.77997  0.39281  0.29901  Biso   1.000  C
  O233     1.0000 0.78560  0.32626  0.12778  Biso   1.000  O
  C460     1.0000 0.76970  0.24711  0.14623  Biso   1.000  C
  O234     1.0000 0.58491  0.35454  0.21778  Biso   1.000  O
  C461     1.0000 0.64710  0.32693  0.26702  Biso   1.000  C
  O235     1.0000 0.81653  0.40004  0.32255  Biso   1.000  O
  C462     1.0000 0.72990  0.42052  0.30285  Biso   1.000  C
  O236     1.0000 0.65615  0.57427  0.29619  Biso   1.000  O
  C463     1.0000 0.74600  0.21689  0.17447  Biso   1.000  C
  C464     1.0000 0.79100  0.22820  0.11080  Biso   1.000  C
  C465     1.0000 0.67320  0.34768  0.30032  Biso   1.000  C
  C466     1.0000 0.63640  0.27850  0.26714  Biso   1.000  C
  C467     1.0000 0.68060  0.39982  0.30169  Biso   1.000  C
  C468     1.0000 0.73467  0.46893  0.30379  Biso   1.000  C
  O237     1.0000 0.66935  0.17331  0.32363  Biso   1.000  O
  O238     1.0000 0.70890  0.14900  0.23240  Biso   1.000  O
  O239     1.0000 0.61110  0.18463  0.27272  Biso   1.000  O
  H172     1.0000 0.73220  0.22900  0.19980  Biso   1.000  H
  C469     1.0000 0.74211  0.16890  0.16627  Biso   1.000  C
  C470     1.0000 0.78830  0.18100  0.10250  Biso   1.000  C
  H173     1.0000 0.80800  0.24820  0.09140  Biso   1.000  H
  C471     1.0000 0.68900  0.31960  0.33345  Biso   1.000  C
  H174     1.0000 0.61760  0.26490  0.24460  Biso   1.000  H
  C472     1.0000 0.65330  0.25066  0.30019  Biso   1.000  C
  C473     1.0000 0.63680  0.42855  0.30341  Biso   1.000  C
  H175     1.0000 0.76830  0.48270  0.30470  Biso   1.000  H
  C474     1.0000 0.69064  0.49751  0.30348  Biso   1.000  C
  C475     1.0000 0.76340  0.15069  0.12987  Biso   1.000  C
  C476     1.0000 0.70910  0.14080  0.19640  Biso   1.000  C
  H176     1.0000 0.80370  0.16900  0.07780  Biso   1.000  H
  C477     1.0000 0.67990  0.27200  0.33354  Biso   1.000  C
  H177     1.0000 0.70630  0.33350  0.35650  Biso   1.000  H
  C478     1.0000 0.64490  0.19880  0.29894  Biso   1.000  C
  C479     1.0000 0.64150  0.47699  0.30362  Biso   1.000  C
  H178     1.0000 0.60320  0.41480  0.30450  Biso   1.000  H
  C480     1.0000 0.69560  0.55019  0.30106  Biso   1.000  C
  O240     1.0000 0.67830  0.11300  0.18250  Biso   1.000  O
  H179     1.0000 0.69170  0.25350  0.35630  Biso   1.000  H
  H180     1.0000 0.61110  0.49610  0.30390  Biso   1.000  H
  Co21     1.0000 0.00733  0.37975  0.21550  Biso   1.000  Co
  O241     1.0000 0.99080  0.43995  0.19183  Biso   1.000  O
  O242     1.0000 0.08279  0.37327  0.21014  Biso   1.000  O
  O243     1.0000 0.96721  0.38578  0.26812  Biso   1.000  O
  O244     1.0000 0.00781  0.18409  0.30369  Biso   1.000  O
  C481     1.0000 0.97790  0.45099  0.15560  Biso   1.000  C
  C482     1.0000 0.11900  0.39550  0.22929  Biso   1.000  C
  C483     1.0000 0.97003  0.35719  0.29901  Biso   1.000  C
  O245     1.0000 0.96440  0.42374  0.12778  Biso   1.000  O
  C484     1.0000 0.98030  0.50289  0.14623  Biso   1.000  C
  O246     1.0000 0.16509  0.39546  0.21778  Biso   1.000  O
  C485     1.0000 0.10290  0.42307  0.26702  Biso   1.000  C
  O247     1.0000 0.93347  0.34996  0.32255  Biso   1.000  O
  C486     1.0000 0.02010  0.32948  0.30285  Biso   1.000  C
  O248     1.0000 0.09385  0.17573  0.29619  Biso   1.000  O
  C487     1.0000 0.00400  0.53311  0.17447  Biso   1.000  C
  C488     1.0000 0.95900  0.52180  0.11080  Biso   1.000  C
  C489     1.0000 0.07680  0.40232  0.30032  Biso   1.000  C
  C490     1.0000 0.11360  0.47150  0.26714  Biso   1.000  C
  C491     1.0000 0.06940  0.35018  0.30169  Biso   1.000  C
  C492     1.0000 0.01533  0.28107  0.30379  Biso   1.000  C
  O249     1.0000 0.08065  0.57669  0.32363  Biso   1.000  O
  O250     1.0000 0.04110  0.60100  0.23240  Biso   1.000  O
  O251     1.0000 0.13890  0.56537  0.27272  Biso   1.000  O
  H181     1.0000 0.01780  0.52100  0.19980  Biso   1.000  H
  C493     1.0000 0.00789  0.58110  0.16627  Biso   1.000  C
  C494     1.0000 0.96170  0.56900  0.10250  Biso   1.000  C
  H182     1.0000 0.94200  0.50180  0.09140  Biso   1.000  H
  C495     1.0000 0.06100  0.43040  0.33345  Biso   1.000  C
  H183     1.0000 0.13240  0.48510  0.24460  Biso   1.000  H
  C496     1.0000 0.09670  0.49934  0.30019  Biso   1.000  C
  C497     1.0000 0.11320  0.32145  0.30341  Biso   1.000  C
  H184     1.0000 0.98170  0.26730  0.30470  Biso   1.000  H
  C498     1.0000 0.05936  0.25249  0.30348  Biso   1.000  C
  C499     1.0000 0.98660  0.59931  0.12987  Biso   1.000  C
  C500     1.0000 0.04090  0.60920  0.19640  Biso   1.000  C
  H185     1.0000 0.94630  0.58100  0.07780  Biso   1.000  H
  C501     1.0000 0.07010  0.47800  0.33354  Biso   1.000  C
  H186     1.0000 0.04370  0.41650  0.35650  Biso   1.000  H
  C502     1.0000 0.10510  0.55120  0.29894  Biso   1.000  C
  C503     1.0000 0.10850  0.27301  0.30362  Biso   1.000  C
  H187     1.0000 0.14680  0.33520  0.30450  Biso   1.000  H
  C504     1.0000 0.05440  0.19981  0.30106  Biso   1.000  C
  O252     1.0000 0.07170  0.63700  0.18250  Biso   1.000  O
  H188     1.0000 0.05830  0.49650  0.35630  Biso   1.000  H
  H189     1.0000 0.13890  0.25390  0.30390  Biso   1.000  H
  Co22     1.0000 0.00733  0.87975  0.71550  Biso   1.000  Co
  O253     1.0000 0.99080  0.93995  0.69183  Biso   1.000  O
  O254     1.0000 0.08279  0.87327  0.71014  Biso   1.000  O
  O255     1.0000 0.96721  0.88578  0.76812  Biso   1.000  O
  O256     1.0000 0.00781  0.68409  0.80369  Biso   1.000  O
  C505     1.0000 0.97790  0.95099  0.65560  Biso   1.000  C
  C506     1.0000 0.11900  0.89550  0.72929  Biso   1.000  C
  C507     1.0000 0.97003  0.85719  0.79901  Biso   1.000  C
  O257     1.0000 0.96440  0.92374  0.62778  Biso   1.000  O
  C508     1.0000 0.98030  0.00289  0.64623  Biso   1.000  C
  O258     1.0000 0.16509  0.89546  0.71778  Biso   1.000  O
  C509     1.0000 0.10290  0.92307  0.76702  Biso   1.000  C
  O259     1.0000 0.93347  0.84996  0.82255  Biso   1.000  O
  C510     1.0000 0.02010  0.82948  0.80285  Biso   1.000  C
  O260     1.0000 0.09385  0.67573  0.79619  Biso   1.000  O
  C511     1.0000 0.00400  0.03311  0.67447  Biso   1.000  C
  C512     1.0000 0.95900  0.02180  0.61080  Biso   1.000  C
  C513     1.0000 0.07680  0.90232  0.80032  Biso   1.000  C
  C514     1.0000 0.11360  0.97150  0.76714  Biso   1.000  C
  C515     1.0000 0.06940  0.85018  0.80169  Biso   1.000  C
  C516     1.0000 0.01533  0.78107  0.80379  Biso   1.000  C
  O261     1.0000 0.08065  0.07669  0.82363  Biso   1.000  O
  O262     1.0000 0.04110  0.10100  0.73240  Biso   1.000  O
  O263     1.0000 0.13890  0.06537  0.77272  Biso   1.000  O
  H190     1.0000 0.01780  0.02100  0.69980  Biso   1.000  H
  C517     1.0000 0.00789  0.08110  0.66627  Biso   1.000  C
  C518     1.0000 0.96170  0.06900  0.60250  Biso   1.000  C
  H191     1.0000 0.94200  0.00180  0.59140  Biso   1.000  H
  C519     1.0000 0.06100  0.93040  0.83345  Biso   1.000  C
  H192     1.0000 0.13240  0.98510  0.74460  Biso   1.000  H
  C520     1.0000 0.09670  0.99934  0.80019  Biso   1.000  C
  C521     1.0000 0.11320  0.82145  0.80341  Biso   1.000  C
  H193     1.0000 0.98170  0.76730  0.80470  Biso   1.000  H
  C522     1.0000 0.05936  0.75249  0.80348  Biso   1.000  C
  C523     1.0000 0.98660  0.09931  0.62987  Biso   1.000  C
  C524     1.0000 0.04090  0.10920  0.69640  Biso   1.000  C
  H194     1.0000 0.94630  0.08100  0.57780  Biso   1.000  H
  C525     1.0000 0.07010  0.97800  0.83354  Biso   1.000  C
  H195     1.0000 0.04370  0.91650  0.85650  Biso   1.000  H
  C526     1.0000 0.10510  0.05120  0.79894  Biso   1.000  C
  C527     1.0000 0.10850  0.77301  0.80362  Biso   1.000  C
  H196     1.0000 0.14680  0.83520  0.80450  Biso   1.000  H
  C528     1.0000 0.05440  0.69981  0.80106  Biso   1.000  C
  O264     1.0000 0.07170  0.13700  0.68250  Biso   1.000  O
  H197     1.0000 0.05830  0.99650  0.85630  Biso   1.000  H
  H198     1.0000 0.13890  0.75390  0.80390  Biso   1.000  H
  Co23     1.0000 0.50733  0.37975  0.71550  Biso   1.000  Co
  O265     1.0000 0.49080  0.43995  0.69183  Biso   1.000  O
  O266     1.0000 0.58279  0.37327  0.71014  Biso   1.000  O
  O267     1.0000 0.46721  0.38578  0.76812  Biso   1.000  O
  O268     1.0000 0.50781  0.18409  0.80369  Biso   1.000  O
  C529     1.0000 0.47790  0.45099  0.65560  Biso   1.000  C
  C530     1.0000 0.61900  0.39550  0.72929  Biso   1.000  C
  C531     1.0000 0.47003  0.35719  0.79901  Biso   1.000  C
  O269     1.0000 0.46440  0.42374  0.62778  Biso   1.000  O
  C532     1.0000 0.48030  0.50289  0.64623  Biso   1.000  C
  O270     1.0000 0.66509  0.39546  0.71778  Biso   1.000  O
  C533     1.0000 0.60290  0.42307  0.76702  Biso   1.000  C
  O271     1.0000 0.43347  0.34996  0.82255  Biso   1.000  O
  C534     1.0000 0.52010  0.32948  0.80285  Biso   1.000  C
  O272     1.0000 0.59385  0.17573  0.79619  Biso   1.000  O
  C535     1.0000 0.50400  0.53311  0.67447  Biso   1.000  C
  C536     1.0000 0.45900  0.52180  0.61080  Biso   1.000  C
  C537     1.0000 0.57680  0.40232  0.80032  Biso   1.000  C
  C538     1.0000 0.61360  0.47150  0.76714  Biso   1.000  C
  C539     1.0000 0.56940  0.35018  0.80169  Biso   1.000  C
  C540     1.0000 0.51533  0.28107  0.80379  Biso   1.000  C
  O273     1.0000 0.58065  0.57669  0.82363  Biso   1.000  O
  O274     1.0000 0.54110  0.60100  0.73240  Biso   1.000  O
  O275     1.0000 0.63890  0.56537  0.77272  Biso   1.000  O
  H199     1.0000 0.51780  0.52100  0.69980  Biso   1.000  H
  C541     1.0000 0.50789  0.58110  0.66627  Biso   1.000  C
  C542     1.0000 0.46170  0.56900  0.60250  Biso   1.000  C
  H200     1.0000 0.44200  0.50180  0.59140  Biso   1.000  H
  C543     1.0000 0.56100  0.43040  0.83345  Biso   1.000  C
  H201     1.0000 0.63240  0.48510  0.74460  Biso   1.000  H
  C544     1.0000 0.59670  0.49934  0.80019  Biso   1.000  C
  C545     1.0000 0.61320  0.32145  0.80341  Biso   1.000  C
  H202     1.0000 0.48170  0.26730  0.80470  Biso   1.000  H
  C546     1.0000 0.55936  0.25249  0.80348  Biso   1.000  C
  C547     1.0000 0.48660  0.59931  0.62987  Biso   1.000  C
  C548     1.0000 0.54090  0.60920  0.69640  Biso   1.000  C
  H203     1.0000 0.44630  0.58100  0.57780  Biso   1.000  H
  C549     1.0000 0.57010  0.47800  0.83354  Biso   1.000  C
  H204     1.0000 0.54370  0.41650  0.85650  Biso   1.000  H
  C550     1.0000 0.60510  0.55120  0.79894  Biso   1.000  C
  C551     1.0000 0.60850  0.27301  0.80362  Biso   1.000  C
  H205     1.0000 0.64680  0.33520  0.80450  Biso   1.000  H
  C552     1.0000 0.55440  0.19981  0.80106  Biso   1.000  C
  O276     1.0000 0.57170  0.63700  0.68250  Biso   1.000  O
  H206     1.0000 0.55830  0.49650  0.85630  Biso   1.000  H
  H207     1.0000 0.63890  0.25390  0.80390  Biso   1.000  H
  Co24     1.0000 0.50733  0.87975  0.21550  Biso   1.000  Co
  O277     1.0000 0.49080  0.93995  0.19183  Biso   1.000  O
  O278     1.0000 0.58279  0.87327  0.21014  Biso   1.000  O
  O279     1.0000 0.46721  0.88578  0.26812  Biso   1.000  O
  O280     1.0000 0.50781  0.68409  0.30369  Biso   1.000  O
  C553     1.0000 0.47790  0.95099  0.15560  Biso   1.000  C
  C554     1.0000 0.61900  0.89550  0.22929  Biso   1.000  C
  C555     1.0000 0.47003  0.85719  0.29901  Biso   1.000  C
  O281     1.0000 0.46440  0.92374  0.12778  Biso   1.000  O
  C556     1.0000 0.48030  0.00289  0.14623  Biso   1.000  C
  O282     1.0000 0.66509  0.89546  0.21778  Biso   1.000  O
  C557     1.0000 0.60290  0.92307  0.26702  Biso   1.000  C
  O283     1.0000 0.43347  0.84996  0.32255  Biso   1.000  O
  C558     1.0000 0.52010  0.82948  0.30285  Biso   1.000  C
  O284     1.0000 0.59385  0.67573  0.29619  Biso   1.000  O
  C559     1.0000 0.50400  0.03311  0.17447  Biso   1.000  C
  C560     1.0000 0.45900  0.02180  0.11080  Biso   1.000  C
  C561     1.0000 0.57680  0.90232  0.30032  Biso   1.000  C
  C562     1.0000 0.61360  0.97150  0.26714  Biso   1.000  C
  C563     1.0000 0.56940  0.85018  0.30169  Biso   1.000  C
  C564     1.0000 0.51533  0.78107  0.30379  Biso   1.000  C
  O285     1.0000 0.58065  0.07669  0.32363  Biso   1.000  O
  O286     1.0000 0.54110  0.10100  0.23240  Biso   1.000  O
  O287     1.0000 0.63890  0.06537  0.27272  Biso   1.000  O
  H208     1.0000 0.51780  0.02100  0.19980  Biso   1.000  H
  C565     1.0000 0.50789  0.08110  0.16627  Biso   1.000  C
  C566     1.0000 0.46170  0.06900  0.10250  Biso   1.000  C
  H209     1.0000 0.44200  0.00180  0.09140  Biso   1.000  H
  C567     1.0000 0.56100  0.93040  0.33345  Biso   1.000  C
  H210     1.0000 0.63240  0.98510  0.24460  Biso   1.000  H
  C568     1.0000 0.59670  0.99934  0.30019  Biso   1.000  C
  C569     1.0000 0.61320  0.82145  0.30341  Biso   1.000  C
  H211     1.0000 0.48170  0.76730  0.30470  Biso   1.000  H
  C570     1.0000 0.55936  0.75249  0.30348  Biso   1.000  C
  C571     1.0000 0.48660  0.09931  0.12987  Biso   1.000  C
  C572     1.0000 0.54090  0.10920  0.19640  Biso   1.000  C
  H212     1.0000 0.44630  0.08100  0.07780  Biso   1.000  H
  C573     1.0000 0.57010  0.97800  0.33354  Biso   1.000  C
  H213     1.0000 0.54370  0.91650  0.35650  Biso   1.000  H
  C574     1.0000 0.60510  0.05120  0.29894  Biso   1.000  C
  C575     1.0000 0.60850  0.77301  0.30362  Biso   1.000  C
  H214     1.0000 0.64680  0.83520  0.30450  Biso   1.000  H
  C576     1.0000 0.55440  0.69981  0.30106  Biso   1.000  C
  O288     1.0000 0.57170  0.13700  0.18250  Biso   1.000  O
  H215     1.0000 0.55830  0.99650  0.35630  Biso   1.000  H
  H216     1.0000 0.63890  0.75390  0.30390  Biso   1.000  H
  Co25     1.0000 0.00733  0.87025  0.03450  Biso   1.000  Co
  O289     1.0000 0.99080  0.81005  0.05817  Biso   1.000  O
  O290     1.0000 0.08279  0.87673  0.03986  Biso   1.000  O
  O291     1.0000 0.96721  0.86422  0.98188  Biso   1.000  O
  O292     1.0000 0.00781  0.06591  0.94631  Biso   1.000  O
  C577     1.0000 0.97790  0.79901  0.09440  Biso   1.000  C
  C578     1.0000 0.11900  0.85450  0.02071  Biso   1.000  C
  C579     1.0000 0.97003  0.89281  0.95099  Biso   1.000  C
  O293     1.0000 0.96440  0.82626  0.12222  Biso   1.000  O
  C580     1.0000 0.98030  0.74711  0.10377  Biso   1.000  C
  O294     1.0000 0.16509  0.85454  0.03222  Biso   1.000  O
  C581     1.0000 0.10290  0.82693  0.98298  Biso   1.000  C
  O295     1.0000 0.93347  0.90004  0.92745  Biso   1.000  O
  C582     1.0000 0.02010  0.92052  0.94715  Biso   1.000  C
  O296     1.0000 0.09385  0.07427  0.95381  Biso   1.000  O
  C583     1.0000 0.00400  0.71689  0.07553  Biso   1.000  C
  C584     1.0000 0.95900  0.72820  0.13920  Biso   1.000  C
  C585     1.0000 0.07680  0.84768  0.94968  Biso   1.000  C
  C586     1.0000 0.11360  0.77850  0.98286  Biso   1.000  C
  C587     1.0000 0.06940  0.89982  0.94831  Biso   1.000  C
  C588     1.0000 0.01533  0.96893  0.94621  Biso   1.000  C
  O297     1.0000 0.08065  0.67331  0.92637  Biso   1.000  O
  O298     1.0000 0.04110  0.64900  0.01760  Biso   1.000  O
  O299     1.0000 0.13890  0.68463  0.97728  Biso   1.000  O
  H217     1.0000 0.01780  0.72900  0.05020  Biso   1.000  H
  C589     1.0000 0.00789  0.66890  0.08373  Biso   1.000  C
  C590     1.0000 0.96170  0.68100  0.14750  Biso   1.000  C
  H218     1.0000 0.94200  0.74820  0.15860  Biso   1.000  H
  C591     1.0000 0.06100  0.81960  0.91655  Biso   1.000  C
  H219     1.0000 0.13240  0.76490  0.00540  Biso   1.000  H
  C592     1.0000 0.09670  0.75066  0.94981  Biso   1.000  C
  C593     1.0000 0.11320  0.92855  0.94659  Biso   1.000  C
  H220     1.0000 0.98170  0.98270  0.94530  Biso   1.000  H
  C594     1.0000 0.05936  0.99751  0.94652  Biso   1.000  C
  C595     1.0000 0.98660  0.65069  0.12013  Biso   1.000  C
  C596     1.0000 0.04090  0.64080  0.05360  Biso   1.000  C
  H221     1.0000 0.94630  0.66900  0.17220  Biso   1.000  H
  C597     1.0000 0.07010  0.77200  0.91646  Biso   1.000  C
  H222     1.0000 0.04370  0.83350  0.89350  Biso   1.000  H
  C598     1.0000 0.10510  0.69880  0.95106  Biso   1.000  C
  C599     1.0000 0.10850  0.97699  0.94638  Biso   1.000  C
  H223     1.0000 0.14680  0.91480  0.94550  Biso   1.000  H
  C600     1.0000 0.05440  0.05019  0.94894  Biso   1.000  C
  O300     1.0000 0.07170  0.61300  0.06750  Biso   1.000  O
  H224     1.0000 0.05830  0.75350  0.89370  Biso   1.000  H
  H225     1.0000 0.13890  0.99610  0.94610  Biso   1.000  H
  Co26     1.0000 0.00733  0.37025  0.53450  Biso   1.000  Co
  O301     1.0000 0.99080  0.31005  0.55817  Biso   1.000  O
  O302     1.0000 0.08279  0.37673  0.53986  Biso   1.000  O
  O303     1.0000 0.96721  0.36422  0.48188  Biso   1.000  O
  O304     1.0000 0.00781  0.56591  0.44631  Biso   1.000  O
  C601     1.0000 0.97790  0.29901  0.59440  Biso   1.000  C
  C602     1.0000 0.11900  0.35450  0.52071  Biso   1.000  C
  C603     1.0000 0.97003  0.39281  0.45099  Biso   1.000  C
  O305     1.0000 0.96440  0.32626  0.62222  Biso   1.000  O
  C604     1.0000 0.98030  0.24711  0.60377  Biso   1.000  C
  O306     1.0000 0.16509  0.35454  0.53222  Biso   1.000  O
  C605     1.0000 0.10290  0.32693  0.48298  Biso   1.000  C
  O307     1.0000 0.93347  0.40004  0.42745  Biso   1.000  O
  C606     1.0000 0.02010  0.42052  0.44715  Biso   1.000  C
  O308     1.0000 0.09385  0.57427  0.45381  Biso   1.000  O
  C607     1.0000 0.00400  0.21689  0.57553  Biso   1.000  C
  C608     1.0000 0.95900  0.22820  0.63920  Biso   1.000  C
  C609     1.0000 0.07680  0.34768  0.44968  Biso   1.000  C
  C610     1.0000 0.11360  0.27850  0.48286  Biso   1.000  C
  C611     1.0000 0.06940  0.39982  0.44831  Biso   1.000  C
  C612     1.0000 0.01533  0.46893  0.44621  Biso   1.000  C
  O309     1.0000 0.08065  0.17331  0.42637  Biso   1.000  O
  O310     1.0000 0.04110  0.14900  0.51760  Biso   1.000  O
  O311     1.0000 0.13890  0.18463  0.47728  Biso   1.000  O
  H226     1.0000 0.01780  0.22900  0.55020  Biso   1.000  H
  C613     1.0000 0.00789  0.16890  0.58373  Biso   1.000  C
  C614     1.0000 0.96170  0.18100  0.64750  Biso   1.000  C
  H227     1.0000 0.94200  0.24820  0.65860  Biso   1.000  H
  C615     1.0000 0.06100  0.31960  0.41655  Biso   1.000  C
  H228     1.0000 0.13240  0.26490  0.50540  Biso   1.000  H
  C616     1.0000 0.09670  0.25066  0.44981  Biso   1.000  C
  C617     1.0000 0.11320  0.42855  0.44659  Biso   1.000  C
  H229     1.0000 0.98170  0.48270  0.44530  Biso   1.000  H
  C618     1.0000 0.05936  0.49751  0.44652  Biso   1.000  C
  C619     1.0000 0.98660  0.15069  0.62013  Biso   1.000  C
  C620     1.0000 0.04090  0.14080  0.55360  Biso   1.000  C
  H230     1.0000 0.94630  0.16900  0.67220  Biso   1.000  H
  C621     1.0000 0.07010  0.27200  0.41646  Biso   1.000  C
  H231     1.0000 0.04370  0.33350  0.39350  Biso   1.000  H
  C622     1.0000 0.10510  0.19880  0.45106  Biso   1.000  C
  C623     1.0000 0.10850  0.47699  0.44638  Biso   1.000  C
  H232     1.0000 0.14680  0.41480  0.44550  Biso   1.000  H
  C624     1.0000 0.05440  0.55019  0.44894  Biso   1.000  C
  O312     1.0000 0.07170  0.11300  0.56750  Biso   1.000  O
  H233     1.0000 0.05830  0.25350  0.39370  Biso   1.000  H
  H234     1.0000 0.13890  0.49610  0.44610  Biso   1.000  H
  Co27     1.0000 0.50733  0.87025  0.53450  Biso   1.000  Co
  O313     1.0000 0.49080  0.81005  0.55817  Biso   1.000  O
  O314     1.0000 0.58279  0.87673  0.53986  Biso   1.000  O
  O315     1.0000 0.46721  0.86422  0.48188  Biso   1.000  O
  O316     1.0000 0.50781  0.06591  0.44631  Biso   1.000  O
  C625     1.0000 0.47790  0.79901  0.59440  Biso   1.000  C
  C626     1.0000 0.61900  0.85450  0.52071  Biso   1.000  C
  C627     1.0000 0.47003  0.89281  0.45099  Biso   1.000  C
  O317     1.0000 0.46440  0.82626  0.62222  Biso   1.000  O
  C628     1.0000 0.48030  0.74711  0.60377  Biso   1.000  C
  O318     1.0000 0.66509  0.85454  0.53222  Biso   1.000  O
  C629     1.0000 0.60290  0.82693  0.48298  Biso   1.000  C
  O319     1.0000 0.43347  0.90004  0.42745  Biso   1.000  O
  C630     1.0000 0.52010  0.92052  0.44715  Biso   1.000  C
  O320     1.0000 0.59385  0.07427  0.45381  Biso   1.000  O
  C631     1.0000 0.50400  0.71689  0.57553  Biso   1.000  C
  C632     1.0000 0.45900  0.72820  0.63920  Biso   1.000  C
  C633     1.0000 0.57680  0.84768  0.44968  Biso   1.000  C
  C634     1.0000 0.61360  0.77850  0.48286  Biso   1.000  C
  C635     1.0000 0.56940  0.89982  0.44831  Biso   1.000  C
  C636     1.0000 0.51533  0.96893  0.44621  Biso   1.000  C
  O321     1.0000 0.58065  0.67331  0.42637  Biso   1.000  O
  O322     1.0000 0.54110  0.64900  0.51760  Biso   1.000  O
  O323     1.0000 0.63890  0.68463  0.47728  Biso   1.000  O
  H235     1.0000 0.51780  0.72900  0.55020  Biso   1.000  H
  C637     1.0000 0.50789  0.66890  0.58373  Biso   1.000  C
  C638     1.0000 0.46170  0.68100  0.64750  Biso   1.000  C
  H236     1.0000 0.44200  0.74820  0.65860  Biso   1.000  H
  C639     1.0000 0.56100  0.81960  0.41655  Biso   1.000  C
  H237     1.0000 0.63240  0.76490  0.50540  Biso   1.000  H
  C640     1.0000 0.59670  0.75066  0.44981  Biso   1.000  C
  C641     1.0000 0.61320  0.92855  0.44659  Biso   1.000  C
  H238     1.0000 0.48170  0.98270  0.44530  Biso   1.000  H
  C642     1.0000 0.55936  0.99751  0.44652  Biso   1.000  C
  C643     1.0000 0.48660  0.65069  0.62013  Biso   1.000  C
  C644     1.0000 0.54090  0.64080  0.55360  Biso   1.000  C
  H239     1.0000 0.44630  0.66900  0.67220  Biso   1.000  H
  C645     1.0000 0.57010  0.77200  0.41646  Biso   1.000  C
  H240     1.0000 0.54370  0.83350  0.39350  Biso   1.000  H
  C646     1.0000 0.60510  0.69880  0.45106  Biso   1.000  C
  C647     1.0000 0.60850  0.97699  0.44638  Biso   1.000  C
  H241     1.0000 0.64680  0.91480  0.44550  Biso   1.000  H
  C648     1.0000 0.55440  0.05019  0.44894  Biso   1.000  C
  O324     1.0000 0.57170  0.61300  0.56750  Biso   1.000  O
  H242     1.0000 0.55830  0.75350  0.39370  Biso   1.000  H
  H243     1.0000 0.63890  0.99610  0.44610  Biso   1.000  H
  Co28     1.0000 0.50733  0.37025  0.03450  Biso   1.000  Co
  O325     1.0000 0.49080  0.31005  0.05817  Biso   1.000  O
  O326     1.0000 0.58279  0.37673  0.03986  Biso   1.000  O
  O327     1.0000 0.46721  0.36422  0.98188  Biso   1.000  O
  O328     1.0000 0.50781  0.56591  0.94631  Biso   1.000  O
  C649     1.0000 0.47790  0.29901  0.09440  Biso   1.000  C
  C650     1.0000 0.61900  0.35450  0.02071  Biso   1.000  C
  C651     1.0000 0.47003  0.39281  0.95099  Biso   1.000  C
  O329     1.0000 0.46440  0.32626  0.12222  Biso   1.000  O
  C652     1.0000 0.48030  0.24711  0.10377  Biso   1.000  C
  O330     1.0000 0.66509  0.35454  0.03222  Biso   1.000  O
  C653     1.0000 0.60290  0.32693  0.98298  Biso   1.000  C
  O331     1.0000 0.43347  0.40004  0.92745  Biso   1.000  O
  C654     1.0000 0.52010  0.42052  0.94715  Biso   1.000  C
  O332     1.0000 0.59385  0.57427  0.95381  Biso   1.000  O
  C655     1.0000 0.50400  0.21689  0.07553  Biso   1.000  C
  C656     1.0000 0.45900  0.22820  0.13920  Biso   1.000  C
  C657     1.0000 0.57680  0.34768  0.94968  Biso   1.000  C
  C658     1.0000 0.61360  0.27850  0.98286  Biso   1.000  C
  C659     1.0000 0.56940  0.39982  0.94831  Biso   1.000  C
  C660     1.0000 0.51533  0.46893  0.94621  Biso   1.000  C
  O333     1.0000 0.58065  0.17331  0.92637  Biso   1.000  O
  O334     1.0000 0.54110  0.14900  0.01760  Biso   1.000  O
  O335     1.0000 0.63890  0.18463  0.97728  Biso   1.000  O
  H244     1.0000 0.51780  0.22900  0.05020  Biso   1.000  H
  C661     1.0000 0.50789  0.16890  0.08373  Biso   1.000  C
  C662     1.0000 0.46170  0.18100  0.14750  Biso   1.000  C
  H245     1.0000 0.44200  0.24820  0.15860  Biso   1.000  H
  C663     1.0000 0.56100  0.31960  0.91655  Biso   1.000  C
  H246     1.0000 0.63240  0.26490  0.00540  Biso   1.000  H
  C664     1.0000 0.59670  0.25066  0.94981  Biso   1.000  C
  C665     1.0000 0.61320  0.42855  0.94659  Biso   1.000  C
  H247     1.0000 0.48170  0.48270  0.94530  Biso   1.000  H
  C666     1.0000 0.55936  0.49751  0.94652  Biso   1.000  C
  C667     1.0000 0.48660  0.15069  0.12013  Biso   1.000  C
  C668     1.0000 0.54090  0.14080  0.05360  Biso   1.000  C
  H248     1.0000 0.44630  0.16900  0.17220  Biso   1.000  H
  C669     1.0000 0.57010  0.27200  0.91646  Biso   1.000  C
  H249     1.0000 0.54370  0.33350  0.89350  Biso   1.000  H
  C670     1.0000 0.60510  0.19880  0.95106  Biso   1.000  C
  C671     1.0000 0.60850  0.47699  0.94638  Biso   1.000  C
  H250     1.0000 0.64680  0.41480  0.94550  Biso   1.000  H
  C672     1.0000 0.55440  0.55019  0.94894  Biso   1.000  C
  O336     1.0000 0.57170  0.11300  0.06750  Biso   1.000  O
  H251     1.0000 0.55830  0.25350  0.89370  Biso   1.000  H
  H252     1.0000 0.63890  0.49610  0.94610  Biso   1.000  H
  Co29     1.0000 0.24267  0.37975  0.03450  Biso   1.000  Co
  O337     1.0000 0.25920  0.43995  0.05817  Biso   1.000  O
  O338     1.0000 0.16721  0.37327  0.03986  Biso   1.000  O
  O339     1.0000 0.28279  0.38578  0.98188  Biso   1.000  O
  O340     1.0000 0.24219  0.18409  0.94631  Biso   1.000  O
  C673     1.0000 0.27210  0.45099  0.09440  Biso   1.000  C
  C674     1.0000 0.13100  0.39550  0.02071  Biso   1.000  C
  C675     1.0000 0.27997  0.35719  0.95099  Biso   1.000  C
  O341     1.0000 0.28560  0.42374  0.12222  Biso   1.000  O
  C676     1.0000 0.26970  0.50289  0.10377  Biso   1.000  C
  O342     1.0000 0.08491  0.39546  0.03222  Biso   1.000  O
  C677     1.0000 0.14710  0.42307  0.98298  Biso   1.000  C
  O343     1.0000 0.31653  0.34996  0.92745  Biso   1.000  O
  C678     1.0000 0.22990  0.32948  0.94715  Biso   1.000  C
  O344     1.0000 0.15615  0.17573  0.95381  Biso   1.000  O
  C679     1.0000 0.24600  0.53311  0.07553  Biso   1.000  C
  C680     1.0000 0.29100  0.52180  0.13920  Biso   1.000  C
  C681     1.0000 0.17320  0.40232  0.94968  Biso   1.000  C
  C682     1.0000 0.13640  0.47150  0.98286  Biso   1.000  C
  C683     1.0000 0.18060  0.35018  0.94831  Biso   1.000  C
  C684     1.0000 0.23467  0.28107  0.94621  Biso   1.000  C
  O345     1.0000 0.16935  0.57669  0.92637  Biso   1.000  O
  O346     1.0000 0.20890  0.60100  0.01760  Biso   1.000  O
  O347     1.0000 0.11110  0.56537  0.97728  Biso   1.000  O
  H253     1.0000 0.23220  0.52100  0.05020  Biso   1.000  H
  C685     1.0000 0.24211  0.58110  0.08373  Biso   1.000  C
  C686     1.0000 0.28830  0.56900  0.14750  Biso   1.000  C
  H254     1.0000 0.30800  0.50180  0.15860  Biso   1.000  H
  C687     1.0000 0.18900  0.43040  0.91655  Biso   1.000  C
  H255     1.0000 0.11760  0.48510  0.00540  Biso   1.000  H
  C688     1.0000 0.15330  0.49934  0.94981  Biso   1.000  C
  C689     1.0000 0.13680  0.32145  0.94659  Biso   1.000  C
  H256     1.0000 0.26830  0.26730  0.94530  Biso   1.000  H
  C690     1.0000 0.19064  0.25249  0.94652  Biso   1.000  C
  C691     1.0000 0.26340  0.59931  0.12013  Biso   1.000  C
  C692     1.0000 0.20910  0.60920  0.05360  Biso   1.000  C
  H257     1.0000 0.30370  0.58100  0.17220  Biso   1.000  H
  C693     1.0000 0.17990  0.47800  0.91646  Biso   1.000  C
  H258     1.0000 0.20630  0.41650  0.89350  Biso   1.000  H
  C694     1.0000 0.14490  0.55120  0.95106  Biso   1.000  C
  C695     1.0000 0.14150  0.27301  0.94638  Biso   1.000  C
  H259     1.0000 0.10320  0.33520  0.94550  Biso   1.000  H
  C696     1.0000 0.19560  0.19981  0.94894  Biso   1.000  C
  O348     1.0000 0.17830  0.63700  0.06750  Biso   1.000  O
  H260     1.0000 0.19170  0.49650  0.89370  Biso   1.000  H
  H261     1.0000 0.11110  0.25390  0.94610  Biso   1.000  H
  Co30     1.0000 0.24267  0.87975  0.53450  Biso   1.000  Co
  O349     1.0000 0.25920  0.93995  0.55817  Biso   1.000  O
  O350     1.0000 0.16721  0.87327  0.53986  Biso   1.000  O
  O351     1.0000 0.28279  0.88578  0.48188  Biso   1.000  O
  O352     1.0000 0.24219  0.68409  0.44631  Biso   1.000  O
  C697     1.0000 0.27210  0.95099  0.59440  Biso   1.000  C
  C698     1.0000 0.13100  0.89550  0.52071  Biso   1.000  C
  C699     1.0000 0.27997  0.85719  0.45099  Biso   1.000  C
  O353     1.0000 0.28560  0.92374  0.62222  Biso   1.000  O
  C700     1.0000 0.26970  0.00289  0.60377  Biso   1.000  C
  O354     1.0000 0.08491  0.89546  0.53222  Biso   1.000  O
  C701     1.0000 0.14710  0.92307  0.48298  Biso   1.000  C
  O355     1.0000 0.31653  0.84996  0.42745  Biso   1.000  O
  C702     1.0000 0.22990  0.82948  0.44715  Biso   1.000  C
  O356     1.0000 0.15615  0.67573  0.45381  Biso   1.000  O
  C703     1.0000 0.24600  0.03311  0.57553  Biso   1.000  C
  C704     1.0000 0.29100  0.02180  0.63920  Biso   1.000  C
  C705     1.0000 0.17320  0.90232  0.44968  Biso   1.000  C
  C706     1.0000 0.13640  0.97150  0.48286  Biso   1.000  C
  C707     1.0000 0.18060  0.85018  0.44831  Biso   1.000  C
  C708     1.0000 0.23467  0.78107  0.44621  Biso   1.000  C
  O357     1.0000 0.16935  0.07669  0.42637  Biso   1.000  O
  O358     1.0000 0.20890  0.10100  0.51760  Biso   1.000  O
  O359     1.0000 0.11110  0.06537  0.47728  Biso   1.000  O
  H262     1.0000 0.23220  0.02100  0.55020  Biso   1.000  H
  C709     1.0000 0.24211  0.08110  0.58373  Biso   1.000  C
  C710     1.0000 0.28830  0.06900  0.64750  Biso   1.000  C
  H263     1.0000 0.30800  0.00180  0.65860  Biso   1.000  H
  C711     1.0000 0.18900  0.93040  0.41655  Biso   1.000  C
  H264     1.0000 0.11760  0.98510  0.50540  Biso   1.000  H
  C712     1.0000 0.15330  0.99934  0.44981  Biso   1.000  C
  C713     1.0000 0.13680  0.82145  0.44659  Biso   1.000  C
  H265     1.0000 0.26830  0.76730  0.44530  Biso   1.000  H
  C714     1.0000 0.19064  0.75249  0.44652  Biso   1.000  C
  C715     1.0000 0.26340  0.09931  0.62013  Biso   1.000  C
  C716     1.0000 0.20910  0.10920  0.55360  Biso   1.000  C
  H266     1.0000 0.30370  0.08100  0.67220  Biso   1.000  H
  C717     1.0000 0.17990  0.97800  0.41646  Biso   1.000  C
  H267     1.0000 0.20630  0.91650  0.39350  Biso   1.000  H
  C718     1.0000 0.14490  0.05120  0.45106  Biso   1.000  C
  C719     1.0000 0.14150  0.77301  0.44638  Biso   1.000  C
  H268     1.0000 0.10320  0.83520  0.44550  Biso   1.000  H
  C720     1.0000 0.19560  0.69981  0.44894  Biso   1.000  C
  O360     1.0000 0.17830  0.13700  0.56750  Biso   1.000  O
  H269     1.0000 0.19170  0.99650  0.39370  Biso   1.000  H
  H270     1.0000 0.11110  0.75390  0.44610  Biso   1.000  H
  Co31     1.0000 0.74267  0.37975  0.53450  Biso   1.000  Co
  O361     1.0000 0.75920  0.43995  0.55817  Biso   1.000  O
  O362     1.0000 0.66721  0.37327  0.53986  Biso   1.000  O
  O363     1.0000 0.78279  0.38578  0.48188  Biso   1.000  O
  O364     1.0000 0.74219  0.18409  0.44631  Biso   1.000  O
  C721     1.0000 0.77210  0.45099  0.59440  Biso   1.000  C
  C722     1.0000 0.63100  0.39550  0.52071  Biso   1.000  C
  C723     1.0000 0.77997  0.35719  0.45099  Biso   1.000  C
  O365     1.0000 0.78560  0.42374  0.62222  Biso   1.000  O
  C724     1.0000 0.76970  0.50289  0.60377  Biso   1.000  C
  O366     1.0000 0.58491  0.39546  0.53222  Biso   1.000  O
  C725     1.0000 0.64710  0.42307  0.48298  Biso   1.000  C
  O367     1.0000 0.81653  0.34996  0.42745  Biso   1.000  O
  C726     1.0000 0.72990  0.32948  0.44715  Biso   1.000  C
  O368     1.0000 0.65615  0.17573  0.45381  Biso   1.000  O
  C727     1.0000 0.74600  0.53311  0.57553  Biso   1.000  C
  C728     1.0000 0.79100  0.52180  0.63920  Biso   1.000  C
  C729     1.0000 0.67320  0.40232  0.44968  Biso   1.000  C
  C730     1.0000 0.63640  0.47150  0.48286  Biso   1.000  C
  C731     1.0000 0.68060  0.35018  0.44831  Biso   1.000  C
  C732     1.0000 0.73467  0.28107  0.44621  Biso   1.000  C
  O369     1.0000 0.66935  0.57669  0.42637  Biso   1.000  O
  O370     1.0000 0.70890  0.60100  0.51760  Biso   1.000  O
  O371     1.0000 0.61110  0.56537  0.47728  Biso   1.000  O
  H271     1.0000 0.73220  0.52100  0.55020  Biso   1.000  H
  C733     1.0000 0.74211  0.58110  0.58373  Biso   1.000  C
  C734     1.0000 0.78830  0.56900  0.64750  Biso   1.000  C
  H272     1.0000 0.80800  0.50180  0.65860  Biso   1.000  H
  C735     1.0000 0.68900  0.43040  0.41655  Biso   1.000  C
  H273     1.0000 0.61760  0.48510  0.50540  Biso   1.000  H
  C736     1.0000 0.65330  0.49934  0.44981  Biso   1.000  C
  C737     1.0000 0.63680  0.32145  0.44659  Biso   1.000  C
  H274     1.0000 0.76830  0.26730  0.44530  Biso   1.000  H
  C738     1.0000 0.69064  0.25249  0.44652  Biso   1.000  C
  C739     1.0000 0.76340  0.59931  0.62013  Biso   1.000  C
  C740     1.0000 0.70910  0.60920  0.55360  Biso   1.000  C
  H275     1.0000 0.80370  0.58100  0.67220  Biso   1.000  H
  C741     1.0000 0.67990  0.47800  0.41646  Biso   1.000  C
  H276     1.0000 0.70630  0.41650  0.39350  Biso   1.000  H
  C742     1.0000 0.64490  0.55120  0.45106  Biso   1.000  C
  C743     1.0000 0.64150  0.27301  0.44638  Biso   1.000  C
  H277     1.0000 0.60320  0.33520  0.44550  Biso   1.000  H
  C744     1.0000 0.69560  0.19981  0.44894  Biso   1.000  C
  O372     1.0000 0.67830  0.63700  0.56750  Biso   1.000  O
  H278     1.0000 0.69170  0.49650  0.39370  Biso   1.000  H
  H279     1.0000 0.61110  0.25390  0.44610  Biso   1.000  H
  Co32     1.0000 0.74267  0.87975  0.03450  Biso   1.000  Co
  O373     1.0000 0.75920  0.93995  0.05817  Biso   1.000  O
  O374     1.0000 0.66721  0.87327  0.03986  Biso   1.000  O
  O375     1.0000 0.78279  0.88578  0.98188  Biso   1.000  O
  O376     1.0000 0.74219  0.68409  0.94631  Biso   1.000  O
  C745     1.0000 0.77210  0.95099  0.09440  Biso   1.000  C
  C746     1.0000 0.63100  0.89550  0.02071  Biso   1.000  C
  C747     1.0000 0.77997  0.85719  0.95099  Biso   1.000  C
  O377     1.0000 0.78560  0.92374  0.12222  Biso   1.000  O
  C748     1.0000 0.76970  0.00289  0.10377  Biso   1.000  C
  O378     1.0000 0.58491  0.89546  0.03222  Biso   1.000  O
  C749     1.0000 0.64710  0.92307  0.98298  Biso   1.000  C
  O379     1.0000 0.81653  0.84996  0.92745  Biso   1.000  O
  C750     1.0000 0.72990  0.82948  0.94715  Biso   1.000  C
  O380     1.0000 0.65615  0.67573  0.95381  Biso   1.000  O
  C751     1.0000 0.74600  0.03311  0.07553  Biso   1.000  C
  C752     1.0000 0.79100  0.02180  0.13920  Biso   1.000  C
  C753     1.0000 0.67320  0.90232  0.94968  Biso   1.000  C
  C754     1.0000 0.63640  0.97150  0.98286  Biso   1.000  C
  C755     1.0000 0.68060  0.85018  0.94831  Biso   1.000  C
  C756     1.0000 0.73467  0.78107  0.94621  Biso   1.000  C
  O381     1.0000 0.66935  0.07669  0.92637  Biso   1.000  O
  O382     1.0000 0.70890  0.10100  0.01760  Biso   1.000  O
  O383     1.0000 0.61110  0.06537  0.97728  Biso   1.000  O
  H280     1.0000 0.73220  0.02100  0.05020  Biso   1.000  H
  C757     1.0000 0.74211  0.08110  0.08373  Biso   1.000  C
  C758     1.0000 0.78830  0.06900  0.14750  Biso   1.000  C
  H281     1.0000 0.80800  0.00180  0.15860  Biso   1.000  H
  C759     1.0000 0.68900  0.93040  0.91655  Biso   1.000  C
  H282     1.0000 0.61760  0.98510  0.00540  Biso   1.000  H
  C760     1.0000 0.65330  0.99934  0.94981  Biso   1.000  C
  C761     1.0000 0.63680  0.82145  0.94659  Biso   1.000  C
  H283     1.0000 0.76830  0.76730  0.94530  Biso   1.000  H
  C762     1.0000 0.69064  0.75249  0.94652  Biso   1.000  C
  C763     1.0000 0.76340  0.09931  0.12013  Biso   1.000  C
  C764     1.0000 0.70910  0.10920  0.05360  Biso   1.000  C
  H284     1.0000 0.80370  0.08100  0.17220  Biso   1.000  H
  C765     1.0000 0.67990  0.97800  0.91646  Biso   1.000  C
  H285     1.0000 0.70630  0.91650  0.89350  Biso   1.000  H
  C766     1.0000 0.64490  0.05120  0.95106  Biso   1.000  C
  C767     1.0000 0.64150  0.77301  0.94638  Biso   1.000  C
  H286     1.0000 0.60320  0.83520  0.94550  Biso   1.000  H
  C768     1.0000 0.69560  0.69981  0.94894  Biso   1.000  C
  O384     1.0000 0.67830  0.13700  0.06750  Biso   1.000  O
  H287     1.0000 0.69170  0.99650  0.89370  Biso   1.000  H
  H288     1.0000 0.61110  0.75390  0.94610  Biso   1.000  H
  Co33     1.0000 0.87500  0.37500  0.75691  Biso   1.000  Co
  Co34     1.0000 0.87500  0.87500  0.25691  Biso   1.000  Co
  Co35     1.0000 0.37500  0.37500  0.25691  Biso   1.000  Co
  Co36     1.0000 0.37500  0.87500  0.75691  Biso   1.000  Co
  Co37     1.0000 0.87500  0.37500  0.99309  Biso   1.000  Co
  Co38     1.0000 0.87500  0.87500  0.49309  Biso   1.000  Co
  Co39     1.0000 0.37500  0.37500  0.49309  Biso   1.000  Co
  Co40     1.0000 0.37500  0.87500  0.99309  Biso   1.000  Co
  Co41     1.0000 0.12500  0.62500  0.24309  Biso   1.000  Co
  Co42     1.0000 0.12500  0.12500  0.74309  Biso   1.000  Co
  Co43     1.0000 0.62500  0.62500  0.74309  Biso   1.000  Co
  Co44     1.0000 0.62500  0.12500  0.24309  Biso   1.000  Co
  Co45     1.0000 0.12500  0.62500  0.00691  Biso   1.000  Co
  Co46     1.0000 0.12500  0.12500  0.50691  Biso   1.000  Co
  Co47     1.0000 0.62500  0.62500  0.50691  Biso   1.000  Co
  Co48     1.0000 0.62500  0.12500  0.00691  Biso   1.000  Co
  Na1      1.0000 0.62500  0.12500  0.74466  Biso   1.000  Na
  Na2      1.0000 0.62500  0.62500  0.24466  Biso   1.000  Na
  Na3      1.0000 0.12500  0.62500  0.74466  Biso   1.000  Na
  Na4      1.0000 0.12500  0.12500  0.24466  Biso   1.000  Na
  Na5      1.0000 0.12500  0.12500  0.00534  Biso   1.000  Na
  Na6      1.0000 0.12500  0.62500  0.50534  Biso   1.000  Na
  Na7      1.0000 0.62500  0.62500  0.00534  Biso   1.000  Na
  Na8      1.0000 0.62500  0.12500  0.50534  Biso   1.000  Na
  Na9      1.0000 0.37500  0.87500  0.25534  Biso   1.000  Na
  Na10     1.0000 0.37500  0.37500  0.75534  Biso   1.000  Na
  Na11     1.0000 0.87500  0.37500  0.25534  Biso   1.000  Na
  Na12     1.0000 0.87500  0.87500  0.75534  Biso   1.000  Na
  Na13     1.0000 0.87500  0.87500  0.99466  Biso   1.000  Na
  Na14     1.0000 0.87500  0.37500  0.49466  Biso   1.000  Na
  Na15     1.0000 0.37500  0.37500  0.99466  Biso   1.000  Na
  Na16     1.0000 0.37500  0.87500  0.49466  Biso   1.000  Na
  Na17     1.0000 0.62500  0.12500  0.62500  Biso   1.000  Na
  Na18     1.0000 0.12500  0.62500  0.62500  Biso   1.000  Na
  Na19     1.0000 0.12500  0.12500  0.12500  Biso   1.000  Na
  Na20     1.0000 0.62500  0.62500  0.12500  Biso   1.000  Na
  Na21     1.0000 0.37500  0.87500  0.37500  Biso   1.000  Na
  Na22     1.0000 0.87500  0.37500  0.37500  Biso   1.000  Na
  Na23     1.0000 0.87500  0.87500  0.87500  Biso   1.000  Na
  Na24     1.0000 0.37500  0.37500  0.87500  Biso   1.000  Na
  Na25     1.0000 0.87500  0.37500  0.87500  Biso   1.000  Na
  Na26     1.0000 0.87500  0.87500  0.37500  Biso   1.000  Na
  Na27     1.0000 0.37500  0.37500  0.37500  Biso   1.000  Na
  Na28     1.0000 0.37500  0.87500  0.87500  Biso   1.000  Na
  Na29     1.0000 0.12500  0.62500  0.12500  Biso   1.000  Na
  Na30     1.0000 0.12500  0.12500  0.62500  Biso   1.000  Na
  Na31     1.0000 0.62500  0.62500  0.62500  Biso   1.000  Na
  Na32     1.0000 0.62500  0.12500  0.12500  Biso   1.000  Na
