data_image0
_cell_length_a       41.1895
_cell_length_b       20.6334
_cell_length_c       27.0979
_cell_angle_alpha    90
_cell_angle_beta     129.772
_cell_angle_gamma    90

_symmetry_space_group_name_H-M    "P 1"
_symmetry_int_tables_number       1

loop_
  _symmetry_equiv_pos_as_xyz
  'x, y, z'

loop_
  _atom_site_label
  _atom_site_occupancy
  _atom_site_fract_x
  _atom_site_fract_y
  _atom_site_fract_z
  _atom_site_thermal_displace_type
  _atom_site_B_iso_or_equiv
  _atom_site_type_symbol
  Cu1      1.0000 0.25288  0.99004  0.11360  Biso   1.000  Cu
  O1       1.0000 0.48760  0.52200  0.92960  Biso   1.000  O
  O2       1.0000 0.53950  0.48100  0.93260  Biso   1.000  O
  O3       1.0000 0.40440  0.27490  0.01700  Biso   1.000  O
  O4       1.0000 0.41700  0.33540  0.96230  Biso   1.000  O
  O5       1.0000 0.39300  0.24700  0.67200  Biso   1.000  O
  O6       1.0000 0.41820  0.23170  0.77300  Biso   1.000  O
  O7       1.0000 0.47960  0.97070  0.53580  Biso   1.000  O
  O8       1.0000 0.52740  0.01980  0.63030  Biso   1.000  O
  O9       1.0000 0.42720  0.31400  0.61500  Biso   1.000  O
  O10      1.0000 0.38700  0.23610  0.54840  Biso   1.000  O
  O11      1.0000 0.41700  0.21270  0.30250  Biso   1.000  O
  O12      1.0000 0.40250  0.18590  0.36560  Biso   1.000  O
  N1       1.0000 0.50390  0.67880  0.80540  Biso   1.000  N
  N2       1.0000 0.29430  0.44810  0.91410  Biso   1.000  N
  N3       1.0000 0.29980  0.07440  0.64660  Biso   1.000  N
  N4       1.0000 0.50100  0.82010  0.69820  Biso   1.000  N
  N5       1.0000 0.29170  0.42280  0.44660  Biso   1.000  N
  N6       1.0000 0.29690  0.05670  0.17470  Biso   1.000  N
  C1       1.0000 0.53440  0.63430  0.83180  Biso   1.000  C
  H1       1.0000 0.55460  0.63790  0.82560  Biso   1.000  H
  C2       1.0000 0.53750  0.58370  0.86740  Biso   1.000  C
  H2       1.0000 0.55960  0.55270  0.88540  Biso   1.000  H
  C3       1.0000 0.50900  0.57780  0.87710  Biso   1.000  C
  C4       1.0000 0.47820  0.62290  0.85090  Biso   1.000  C
  H3       1.0000 0.45780  0.62040  0.85660  Biso   1.000  H
  C5       1.0000 0.47690  0.67320  0.81520  Biso   1.000  C
  H4       1.0000 0.45520  0.70480  0.79710  Biso   1.000  H
  C6       1.0000 0.51150  0.52400  0.91560  Biso   1.000  C
  C7       1.0000 0.54720  0.43050  0.97700  Biso   1.000  C
  H5       1.0000 0.54930  0.45080  0.01210  Biso   1.000  H
  H6       1.0000 0.57450  0.40920  0.99650  Biso   1.000  H
  C8       1.0000 0.32500  0.46510  0.91300  Biso   1.000  C
  H7       1.0000 0.32420  0.50690  0.89750  Biso   1.000  H
  C9       1.0000 0.35790  0.42450  0.93330  Biso   1.000  C
  H8       1.0000 0.37840  0.43780  0.92970  Biso   1.000  H
  C10      1.0000 0.36140  0.36580  0.95860  Biso   1.000  C
  C11      1.0000 0.33060  0.34820  0.96160  Biso   1.000  C
  H9       1.0000 0.33240  0.30820  0.98060  Biso   1.000  H
  C12      1.0000 0.29720  0.38940  0.93700  Biso   1.000  C
  H10      1.0000 0.27490  0.37510  0.93610  Biso   1.000  H
  C13      1.0000 0.39640  0.32020  0.98270  Biso   1.000  C
  C14      1.0000 0.45140  0.29100  0.98110  Biso   1.000  C
  H11      1.0000 0.47460  0.29290  0.02810  Biso   1.000  H
  H12      1.0000 0.44080  0.24590  0.96920  Biso   1.000  H
  C15      1.0000 0.30460  0.10000  0.60660  Biso   1.000  C
  H13      1.0000 0.28750  0.08520  0.56350  Biso   1.000  H
  C16      1.0000 0.33480  0.14900  0.62700  Biso   1.000  C
  H14      1.0000 0.33660  0.17010  0.59780  Biso   1.000  H
  C17      1.0000 0.36100  0.16500  0.69000  Biso   1.000  C
  C18      1.0000 0.35630  0.13960  0.73030  Biso   1.000  C
  H15      1.0000 0.37350  0.15340  0.77380  Biso   1.000  H
  C19      1.0000 0.32650  0.09400  0.70790  Biso   1.000  C
  H16      1.0000 0.32420  0.07450  0.73730  Biso   1.000  H
  C20      1.0000 0.39300  0.22000  0.71200  Biso   1.000  C
  C21      1.0000 0.45200  0.27800  0.79600  Biso   1.000  C
  H17      1.0000 0.44150  0.31370  0.76460  Biso   1.000  H
  H18      1.0000 0.47590  0.25680  0.80270  Biso   1.000  H
  C22      1.0000 0.46610  0.30520  0.85760  Biso   1.000  C
  C23      1.0000 0.49590  0.35220  0.88550  Biso   1.000  C
  H19      1.0000 0.50580  0.36690  0.86400  Biso   1.000  H
  C24      1.0000 0.51270  0.37990  0.94430  Biso   1.000  C
  C25      1.0000 0.49750  0.35920  0.97360  Biso   1.000  C
  H20      1.0000 0.50840  0.37790  0.01360  Biso   1.000  H
  C26      1.0000 0.46660  0.31160  0.94720  Biso   1.000  C
  C27      1.0000 0.45050  0.28550  0.88830  Biso   1.000  C
  H21      1.0000 0.42870  0.25390  0.86860  Biso   1.000  H
  C28      1.0000 0.47490  0.81960  0.63430  Biso   1.000  C
  H22      1.0000 0.45570  0.78460  0.61220  Biso   1.000  H
  C29      1.0000 0.47460  0.86730  0.59960  Biso   1.000  C
  H23      1.0000 0.45580  0.86520  0.55410  Biso   1.000  H
  C30      1.0000 0.50260  0.91970  0.63210  Biso   1.000  C
  C31      1.0000 0.52960  0.91990  0.69720  Biso   1.000  C
  H24      1.0000 0.54880  0.95490  0.72020  Biso   1.000  H
  C32      1.0000 0.52920  0.86940  0.72970  Biso   1.000  C
  H25      1.0000 0.54900  0.86890  0.77530  Biso   1.000  H
  C33      1.0000 0.50050  0.97280  0.59300  Biso   1.000  C
  C34      1.0000 0.53290  0.07170  0.59860  Biso   1.000  C
  H26      1.0000 0.53480  0.05240  0.56710  Biso   1.000  H
  H27      1.0000 0.55950  0.09540  0.63100  Biso   1.000  H
  C35      1.0000 0.32290  0.43760  0.50620  Biso   1.000  C
  H28      1.0000 0.32230  0.47860  0.52160  Biso   1.000  H
  C36      1.0000 0.35720  0.39700  0.54900  Biso   1.000  C
  H29      1.0000 0.37890  0.40950  0.59230  Biso   1.000  H
  C37      1.0000 0.35850  0.34000  0.52700  Biso   1.000  C
  C38      1.0000 0.32680  0.32400  0.46600  Biso   1.000  C
  H30      1.0000 0.32720  0.28350  0.44900  Biso   1.000  H
  C39      1.0000 0.29200  0.36800  0.42600  Biso   1.000  C
  H31      1.0000 0.26880  0.35560  0.38310  Biso   1.000  H
  C40      1.0000 0.39400  0.29300  0.56900  Biso   1.000  C
  C41      1.0000 0.42000  0.18900  0.58800  Biso   1.000  C
  H32      1.0000 0.40780  0.14670  0.58640  Biso   1.000  H
  H33      1.0000 0.43970  0.20360  0.63330  Biso   1.000  H
  C42      1.0000 0.32670  0.07210  0.17230  Biso   1.000  C
  H34      1.0000 0.32620  0.05420  0.13950  Biso   1.000  H
  C43      1.0000 0.35940  0.11460  0.21720  Biso   1.000  C
  H35      1.0000 0.38090  0.12410  0.21480  Biso   1.000  H
  C44      1.0000 0.36100  0.14250  0.26440  Biso   1.000  C
  C45      1.0000 0.32880  0.12590  0.26510  Biso   1.000  C
  H36      1.0000 0.32870  0.14300  0.29760  Biso   1.000  H
  C46      1.0000 0.29700  0.08520  0.21970  Biso   1.000  C
  H37      1.0000 0.27440  0.07680  0.21980  Biso   1.000  H
  C47      1.0000 0.39560  0.18380  0.31150  Biso   1.000  C
  C48      1.0000 0.43770  0.22330  0.41800  Biso   1.000  C
  H38      1.0000 0.42900  0.26880  0.41490  Biso   1.000  H
  H39      1.0000 0.46100  0.22280  0.41630  Biso   1.000  H
  C49      1.0000 0.49640  0.11800  0.56490  Biso   1.000  C
  C50      1.0000 0.47610  0.13460  0.58910  Biso   1.000  C
  H40      1.0000 0.48400  0.11330  0.62640  Biso   1.000  H
  C51      1.0000 0.44520  0.18040  0.56050  Biso   1.000  C
  C52      1.0000 0.43140  0.21030  0.50280  Biso   1.000  C
  H41      1.0000 0.40870  0.24050  0.48120  Biso   1.000  H
  C53      1.0000 0.45180  0.19440  0.47830  Biso   1.000  C
  C54      1.0000 0.48350  0.14920  0.50980  Biso   1.000  C
  H42      1.0000 0.49720  0.13870  0.49300  Biso   1.000  H
  Cu2      1.0000 0.75288  0.49004  0.11360  Biso   1.000  Cu
  O13      1.0000 0.98760  0.02200  0.92960  Biso   1.000  O
  O14      1.0000 0.03950  0.98100  0.93260  Biso   1.000  O
  O15      1.0000 0.90440  0.77490  0.01700  Biso   1.000  O
  O16      1.0000 0.91700  0.83540  0.96230  Biso   1.000  O
  O17      1.0000 0.89300  0.74700  0.67200  Biso   1.000  O
  O18      1.0000 0.91820  0.73170  0.77300  Biso   1.000  O
  O19      1.0000 0.97960  0.47070  0.53580  Biso   1.000  O
  O20      1.0000 0.02740  0.51980  0.63030  Biso   1.000  O
  O21      1.0000 0.92720  0.81400  0.61500  Biso   1.000  O
  O22      1.0000 0.88700  0.73610  0.54840  Biso   1.000  O
  O23      1.0000 0.91700  0.71270  0.30250  Biso   1.000  O
  O24      1.0000 0.90250  0.68590  0.36560  Biso   1.000  O
  N7       1.0000 0.00390  0.17880  0.80540  Biso   1.000  N
  N8       1.0000 0.79430  0.94810  0.91410  Biso   1.000  N
  N9       1.0000 0.79980  0.57440  0.64660  Biso   1.000  N
  N10      1.0000 0.00100  0.32010  0.69820  Biso   1.000  N
  N11      1.0000 0.79170  0.92280  0.44660  Biso   1.000  N
  N12      1.0000 0.79690  0.55670  0.17470  Biso   1.000  N
  C55      1.0000 0.03440  0.13430  0.83180  Biso   1.000  C
  H43      1.0000 0.05460  0.13790  0.82560  Biso   1.000  H
  C56      1.0000 0.03750  0.08370  0.86740  Biso   1.000  C
  H44      1.0000 0.05960  0.05270  0.88540  Biso   1.000  H
  C57      1.0000 0.00900  0.07780  0.87710  Biso   1.000  C
  C58      1.0000 0.97820  0.12290  0.85090  Biso   1.000  C
  H45      1.0000 0.95780  0.12040  0.85660  Biso   1.000  H
  C59      1.0000 0.97690  0.17320  0.81520  Biso   1.000  C
  H46      1.0000 0.95520  0.20480  0.79710  Biso   1.000  H
  C60      1.0000 0.01150  0.02400  0.91560  Biso   1.000  C
  C61      1.0000 0.04720  0.93050  0.97700  Biso   1.000  C
  H47      1.0000 0.04930  0.95080  0.01210  Biso   1.000  H
  H48      1.0000 0.07450  0.90920  0.99650  Biso   1.000  H
  C62      1.0000 0.82500  0.96510  0.91300  Biso   1.000  C
  H49      1.0000 0.82420  0.00690  0.89750  Biso   1.000  H
  C63      1.0000 0.85790  0.92450  0.93330  Biso   1.000  C
  H50      1.0000 0.87840  0.93780  0.92970  Biso   1.000  H
  C64      1.0000 0.86140  0.86580  0.95860  Biso   1.000  C
  C65      1.0000 0.83060  0.84820  0.96160  Biso   1.000  C
  H51      1.0000 0.83240  0.80820  0.98060  Biso   1.000  H
  C66      1.0000 0.79720  0.88940  0.93700  Biso   1.000  C
  H52      1.0000 0.77490  0.87510  0.93610  Biso   1.000  H
  C67      1.0000 0.89640  0.82020  0.98270  Biso   1.000  C
  C68      1.0000 0.95140  0.79100  0.98110  Biso   1.000  C
  H53      1.0000 0.97460  0.79290  0.02810  Biso   1.000  H
  H54      1.0000 0.94080  0.74590  0.96920  Biso   1.000  H
  C69      1.0000 0.80460  0.60000  0.60660  Biso   1.000  C
  H55      1.0000 0.78750  0.58520  0.56350  Biso   1.000  H
  C70      1.0000 0.83480  0.64900  0.62700  Biso   1.000  C
  H56      1.0000 0.83660  0.67010  0.59780  Biso   1.000  H
  C71      1.0000 0.86100  0.66500  0.69000  Biso   1.000  C
  C72      1.0000 0.85630  0.63960  0.73030  Biso   1.000  C
  H57      1.0000 0.87350  0.65340  0.77380  Biso   1.000  H
  C73      1.0000 0.82650  0.59400  0.70790  Biso   1.000  C
  H58      1.0000 0.82420  0.57450  0.73730  Biso   1.000  H
  C74      1.0000 0.89300  0.72000  0.71200  Biso   1.000  C
  C75      1.0000 0.95200  0.77800  0.79600  Biso   1.000  C
  H59      1.0000 0.94150  0.81370  0.76460  Biso   1.000  H
  H60      1.0000 0.97590  0.75680  0.80270  Biso   1.000  H
  C76      1.0000 0.96610  0.80520  0.85760  Biso   1.000  C
  C77      1.0000 0.99590  0.85220  0.88550  Biso   1.000  C
  H61      1.0000 0.00580  0.86690  0.86400  Biso   1.000  H
  C78      1.0000 0.01270  0.87990  0.94430  Biso   1.000  C
  C79      1.0000 0.99750  0.85920  0.97360  Biso   1.000  C
  H62      1.0000 0.00840  0.87790  0.01360  Biso   1.000  H
  C80      1.0000 0.96660  0.81160  0.94720  Biso   1.000  C
  C81      1.0000 0.95050  0.78550  0.88830  Biso   1.000  C
  H63      1.0000 0.92870  0.75390  0.86860  Biso   1.000  H
  C82      1.0000 0.97490  0.31960  0.63430  Biso   1.000  C
  H64      1.0000 0.95570  0.28460  0.61220  Biso   1.000  H
  C83      1.0000 0.97460  0.36730  0.59960  Biso   1.000  C
  H65      1.0000 0.95580  0.36520  0.55410  Biso   1.000  H
  C84      1.0000 0.00260  0.41970  0.63210  Biso   1.000  C
  C85      1.0000 0.02960  0.41990  0.69720  Biso   1.000  C
  H66      1.0000 0.04880  0.45490  0.72020  Biso   1.000  H
  C86      1.0000 0.02920  0.36940  0.72970  Biso   1.000  C
  H67      1.0000 0.04900  0.36890  0.77530  Biso   1.000  H
  C87      1.0000 0.00050  0.47280  0.59300  Biso   1.000  C
  C88      1.0000 0.03290  0.57170  0.59860  Biso   1.000  C
  H68      1.0000 0.03480  0.55240  0.56710  Biso   1.000  H
  H69      1.0000 0.05950  0.59540  0.63100  Biso   1.000  H
  C89      1.0000 0.82290  0.93760  0.50620  Biso   1.000  C
  H70      1.0000 0.82230  0.97860  0.52160  Biso   1.000  H
  C90      1.0000 0.85720  0.89700  0.54900  Biso   1.000  C
  H71      1.0000 0.87890  0.90950  0.59230  Biso   1.000  H
  C91      1.0000 0.85850  0.84000  0.52700  Biso   1.000  C
  C92      1.0000 0.82680  0.82400  0.46600  Biso   1.000  C
  H72      1.0000 0.82720  0.78350  0.44900  Biso   1.000  H
  C93      1.0000 0.79200  0.86800  0.42600  Biso   1.000  C
  H73      1.0000 0.76880  0.85560  0.38310  Biso   1.000  H
  C94      1.0000 0.89400  0.79300  0.56900  Biso   1.000  C
  C95      1.0000 0.92000  0.68900  0.58800  Biso   1.000  C
  H74      1.0000 0.90780  0.64670  0.58640  Biso   1.000  H
  H75      1.0000 0.93970  0.70360  0.63330  Biso   1.000  H
  C96      1.0000 0.82670  0.57210  0.17230  Biso   1.000  C
  H76      1.0000 0.82620  0.55420  0.13950  Biso   1.000  H
  C97      1.0000 0.85940  0.61460  0.21720  Biso   1.000  C
  H77      1.0000 0.88090  0.62410  0.21480  Biso   1.000  H
  C98      1.0000 0.86100  0.64250  0.26440  Biso   1.000  C
  C99      1.0000 0.82880  0.62590  0.26510  Biso   1.000  C
  H78      1.0000 0.82870  0.64300  0.29760  Biso   1.000  H
  C100     1.0000 0.79700  0.58520  0.21970  Biso   1.000  C
  H79      1.0000 0.77440  0.57680  0.21980  Biso   1.000  H
  C101     1.0000 0.89560  0.68380  0.31150  Biso   1.000  C
  C102     1.0000 0.93770  0.72330  0.41800  Biso   1.000  C
  H80      1.0000 0.92900  0.76880  0.41490  Biso   1.000  H
  H81      1.0000 0.96100  0.72280  0.41630  Biso   1.000  H
  C103     1.0000 0.99640  0.61800  0.56490  Biso   1.000  C
  C104     1.0000 0.97610  0.63460  0.58910  Biso   1.000  C
  H82      1.0000 0.98400  0.61330  0.62640  Biso   1.000  H
  C105     1.0000 0.94520  0.68040  0.56050  Biso   1.000  C
  C106     1.0000 0.93140  0.71030  0.50280  Biso   1.000  C
  H83      1.0000 0.90870  0.74050  0.48120  Biso   1.000  H
  C107     1.0000 0.95180  0.69440  0.47830  Biso   1.000  C
  C108     1.0000 0.98350  0.64920  0.50980  Biso   1.000  C
  H84      1.0000 0.99720  0.63870  0.49300  Biso   1.000  H
  Cu3      1.0000 0.74712  0.99004  0.38640  Biso   1.000  Cu
  O25      1.0000 0.51240  0.52200  0.57040  Biso   1.000  O
  O26      1.0000 0.46050  0.48100  0.56740  Biso   1.000  O
  O27      1.0000 0.59560  0.27490  0.48300  Biso   1.000  O
  O28      1.0000 0.58300  0.33540  0.53770  Biso   1.000  O
  O29      1.0000 0.60700  0.24700  0.82800  Biso   1.000  O
  O30      1.0000 0.58180  0.23170  0.72700  Biso   1.000  O
  O31      1.0000 0.52040  0.97070  0.96420  Biso   1.000  O
  O32      1.0000 0.47260  0.01980  0.86970  Biso   1.000  O
  O33      1.0000 0.57280  0.31400  0.88500  Biso   1.000  O
  O34      1.0000 0.61300  0.23610  0.95160  Biso   1.000  O
  O35      1.0000 0.58300  0.21270  0.19750  Biso   1.000  O
  O36      1.0000 0.59750  0.18590  0.13440  Biso   1.000  O
  N13      1.0000 0.49610  0.67880  0.69460  Biso   1.000  N
  N14      1.0000 0.70570  0.44810  0.58590  Biso   1.000  N
  N15      1.0000 0.70020  0.07440  0.85340  Biso   1.000  N
  N16      1.0000 0.49900  0.82010  0.80180  Biso   1.000  N
  N17      1.0000 0.70830  0.42280  0.05340  Biso   1.000  N
  N18      1.0000 0.70310  0.05670  0.32530  Biso   1.000  N
  C109     1.0000 0.46560  0.63430  0.66820  Biso   1.000  C
  H85      1.0000 0.44540  0.63790  0.67440  Biso   1.000  H
  C110     1.0000 0.46250  0.58370  0.63260  Biso   1.000  C
  H86      1.0000 0.44040  0.55270  0.61460  Biso   1.000  H
  C111     1.0000 0.49100  0.57780  0.62290  Biso   1.000  C
  C112     1.0000 0.52180  0.62290  0.64910  Biso   1.000  C
  H87      1.0000 0.54220  0.62040  0.64340  Biso   1.000  H
  C113     1.0000 0.52310  0.67320  0.68480  Biso   1.000  C
  H88      1.0000 0.54480  0.70480  0.70290  Biso   1.000  H
  C114     1.0000 0.48850  0.52400  0.58440  Biso   1.000  C
  C115     1.0000 0.45280  0.43050  0.52300  Biso   1.000  C
  H89      1.0000 0.45070  0.45080  0.48790  Biso   1.000  H
  H90      1.0000 0.42550  0.40920  0.50350  Biso   1.000  H
  C116     1.0000 0.67500  0.46510  0.58700  Biso   1.000  C
  H91      1.0000 0.67580  0.50690  0.60250  Biso   1.000  H
  C117     1.0000 0.64210  0.42450  0.56670  Biso   1.000  C
  H92      1.0000 0.62160  0.43780  0.57030  Biso   1.000  H
  C118     1.0000 0.63860  0.36580  0.54140  Biso   1.000  C
  C119     1.0000 0.66940  0.34820  0.53840  Biso   1.000  C
  H93      1.0000 0.66760  0.30820  0.51940  Biso   1.000  H
  C120     1.0000 0.70280  0.38940  0.56300  Biso   1.000  C
  H94      1.0000 0.72510  0.37510  0.56390  Biso   1.000  H
  C121     1.0000 0.60360  0.32020  0.51730  Biso   1.000  C
  C122     1.0000 0.54860  0.29100  0.51890  Biso   1.000  C
  H95      1.0000 0.52540  0.29290  0.47190  Biso   1.000  H
  H96      1.0000 0.55920  0.24590  0.53080  Biso   1.000  H
  C123     1.0000 0.69540  0.10000  0.89340  Biso   1.000  C
  H97      1.0000 0.71250  0.08520  0.93650  Biso   1.000  H
  C124     1.0000 0.66520  0.14900  0.87300  Biso   1.000  C
  H98      1.0000 0.66340  0.17010  0.90220  Biso   1.000  H
  C125     1.0000 0.63900  0.16500  0.81000  Biso   1.000  C
  C126     1.0000 0.64370  0.13960  0.76970  Biso   1.000  C
  H99      1.0000 0.62650  0.15340  0.72620  Biso   1.000  H
  C127     1.0000 0.67350  0.09400  0.79210  Biso   1.000  C
  H100     1.0000 0.67580  0.07450  0.76270  Biso   1.000  H
  C128     1.0000 0.60700  0.22000  0.78800  Biso   1.000  C
  C129     1.0000 0.54800  0.27800  0.70400  Biso   1.000  C
  H101     1.0000 0.55850  0.31370  0.73540  Biso   1.000  H
  H102     1.0000 0.52410  0.25680  0.69730  Biso   1.000  H
  C130     1.0000 0.53390  0.30520  0.64240  Biso   1.000  C
  C131     1.0000 0.50410  0.35220  0.61450  Biso   1.000  C
  H103     1.0000 0.49420  0.36690  0.63600  Biso   1.000  H
  C132     1.0000 0.48730  0.37990  0.55570  Biso   1.000  C
  C133     1.0000 0.50250  0.35920  0.52640  Biso   1.000  C
  H104     1.0000 0.49160  0.37790  0.48640  Biso   1.000  H
  C134     1.0000 0.53340  0.31160  0.55280  Biso   1.000  C
  C135     1.0000 0.54950  0.28550  0.61170  Biso   1.000  C
  H105     1.0000 0.57130  0.25390  0.63140  Biso   1.000  H
  C136     1.0000 0.52510  0.81960  0.86570  Biso   1.000  C
  H106     1.0000 0.54430  0.78460  0.88780  Biso   1.000  H
  C137     1.0000 0.52540  0.86730  0.90040  Biso   1.000  C
  H107     1.0000 0.54420  0.86520  0.94590  Biso   1.000  H
  C138     1.0000 0.49740  0.91970  0.86790  Biso   1.000  C
  C139     1.0000 0.47040  0.91990  0.80280  Biso   1.000  C
  H108     1.0000 0.45120  0.95490  0.77980  Biso   1.000  H
  C140     1.0000 0.47080  0.86940  0.77030  Biso   1.000  C
  H109     1.0000 0.45100  0.86890  0.72470  Biso   1.000  H
  C141     1.0000 0.49950  0.97280  0.90700  Biso   1.000  C
  C142     1.0000 0.46710  0.07170  0.90140  Biso   1.000  C
  H110     1.0000 0.46520  0.05240  0.93290  Biso   1.000  H
  H111     1.0000 0.44050  0.09540  0.86900  Biso   1.000  H
  C143     1.0000 0.67710  0.43760  0.99380  Biso   1.000  C
  H112     1.0000 0.67770  0.47860  0.97840  Biso   1.000  H
  C144     1.0000 0.64280  0.39700  0.95100  Biso   1.000  C
  H113     1.0000 0.62110  0.40950  0.90770  Biso   1.000  H
  C145     1.0000 0.64150  0.34000  0.97300  Biso   1.000  C
  C146     1.0000 0.67320  0.32400  0.03400  Biso   1.000  C
  H114     1.0000 0.67280  0.28350  0.05100  Biso   1.000  H
  C147     1.0000 0.70800  0.36800  0.07400  Biso   1.000  C
  H115     1.0000 0.73120  0.35560  0.11690  Biso   1.000  H
  C148     1.0000 0.60600  0.29300  0.93100  Biso   1.000  C
  C149     1.0000 0.58000  0.18900  0.91200  Biso   1.000  C
  H116     1.0000 0.59220  0.14670  0.91360  Biso   1.000  H
  H117     1.0000 0.56030  0.20360  0.86670  Biso   1.000  H
  C150     1.0000 0.67330  0.07210  0.32770  Biso   1.000  C
  H118     1.0000 0.67380  0.05420  0.36050  Biso   1.000  H
  C151     1.0000 0.64060  0.11460  0.28280  Biso   1.000  C
  H119     1.0000 0.61910  0.12410  0.28520  Biso   1.000  H
  C152     1.0000 0.63900  0.14250  0.23560  Biso   1.000  C
  C153     1.0000 0.67120  0.12590  0.23490  Biso   1.000  C
  H120     1.0000 0.67130  0.14300  0.20240  Biso   1.000  H
  C154     1.0000 0.70300  0.08520  0.28030  Biso   1.000  C
  H121     1.0000 0.72560  0.07680  0.28020  Biso   1.000  H
  C155     1.0000 0.60440  0.18380  0.18850  Biso   1.000  C
  C156     1.0000 0.56230  0.22330  0.08200  Biso   1.000  C
  H122     1.0000 0.57100  0.26880  0.08510  Biso   1.000  H
  H123     1.0000 0.53900  0.22280  0.08370  Biso   1.000  H
  C157     1.0000 0.50360  0.11800  0.93510  Biso   1.000  C
  C158     1.0000 0.52390  0.13460  0.91090  Biso   1.000  C
  H124     1.0000 0.51600  0.11330  0.87360  Biso   1.000  H
  C159     1.0000 0.55480  0.18040  0.93950  Biso   1.000  C
  C160     1.0000 0.56860  0.21030  0.99720  Biso   1.000  C
  H125     1.0000 0.59130  0.24050  0.01880  Biso   1.000  H
  C161     1.0000 0.54820  0.19440  0.02170  Biso   1.000  C
  C162     1.0000 0.51650  0.14920  0.99020  Biso   1.000  C
  H126     1.0000 0.50280  0.13870  0.00700  Biso   1.000  H
  Cu4      1.0000 0.24712  0.49004  0.38640  Biso   1.000  Cu
  O37      1.0000 0.01240  0.02200  0.57040  Biso   1.000  O
  O38      1.0000 0.96050  0.98100  0.56740  Biso   1.000  O
  O39      1.0000 0.09560  0.77490  0.48300  Biso   1.000  O
  O40      1.0000 0.08300  0.83540  0.53770  Biso   1.000  O
  O41      1.0000 0.10700  0.74700  0.82800  Biso   1.000  O
  O42      1.0000 0.08180  0.73170  0.72700  Biso   1.000  O
  O43      1.0000 0.02040  0.47070  0.96420  Biso   1.000  O
  O44      1.0000 0.97260  0.51980  0.86970  Biso   1.000  O
  O45      1.0000 0.07280  0.81400  0.88500  Biso   1.000  O
  O46      1.0000 0.11300  0.73610  0.95160  Biso   1.000  O
  O47      1.0000 0.08300  0.71270  0.19750  Biso   1.000  O
  O48      1.0000 0.09750  0.68590  0.13440  Biso   1.000  O
  N19      1.0000 0.99610  0.17880  0.69460  Biso   1.000  N
  N20      1.0000 0.20570  0.94810  0.58590  Biso   1.000  N
  N21      1.0000 0.20020  0.57440  0.85340  Biso   1.000  N
  N22      1.0000 0.99900  0.32010  0.80180  Biso   1.000  N
  N23      1.0000 0.20830  0.92280  0.05340  Biso   1.000  N
  N24      1.0000 0.20310  0.55670  0.32530  Biso   1.000  N
  C163     1.0000 0.96560  0.13430  0.66820  Biso   1.000  C
  H127     1.0000 0.94540  0.13790  0.67440  Biso   1.000  H
  C164     1.0000 0.96250  0.08370  0.63260  Biso   1.000  C
  H128     1.0000 0.94040  0.05270  0.61460  Biso   1.000  H
  C165     1.0000 0.99100  0.07780  0.62290  Biso   1.000  C
  C166     1.0000 0.02180  0.12290  0.64910  Biso   1.000  C
  H129     1.0000 0.04220  0.12040  0.64340  Biso   1.000  H
  C167     1.0000 0.02310  0.17320  0.68480  Biso   1.000  C
  H130     1.0000 0.04480  0.20480  0.70290  Biso   1.000  H
  C168     1.0000 0.98850  0.02400  0.58440  Biso   1.000  C
  C169     1.0000 0.95280  0.93050  0.52300  Biso   1.000  C
  H131     1.0000 0.95070  0.95080  0.48790  Biso   1.000  H
  H132     1.0000 0.92550  0.90920  0.50350  Biso   1.000  H
  C170     1.0000 0.17500  0.96510  0.58700  Biso   1.000  C
  H133     1.0000 0.17580  0.00690  0.60250  Biso   1.000  H
  C171     1.0000 0.14210  0.92450  0.56670  Biso   1.000  C
  H134     1.0000 0.12160  0.93780  0.57030  Biso   1.000  H
  C172     1.0000 0.13860  0.86580  0.54140  Biso   1.000  C
  C173     1.0000 0.16940  0.84820  0.53840  Biso   1.000  C
  H135     1.0000 0.16760  0.80820  0.51940  Biso   1.000  H
  C174     1.0000 0.20280  0.88940  0.56300  Biso   1.000  C
  H136     1.0000 0.22510  0.87510  0.56390  Biso   1.000  H
  C175     1.0000 0.10360  0.82020  0.51730  Biso   1.000  C
  C176     1.0000 0.04860  0.79100  0.51890  Biso   1.000  C
  H137     1.0000 0.02540  0.79290  0.47190  Biso   1.000  H
  H138     1.0000 0.05920  0.74590  0.53080  Biso   1.000  H
  C177     1.0000 0.19540  0.60000  0.89340  Biso   1.000  C
  H139     1.0000 0.21250  0.58520  0.93650  Biso   1.000  H
  C178     1.0000 0.16520  0.64900  0.87300  Biso   1.000  C
  H140     1.0000 0.16340  0.67010  0.90220  Biso   1.000  H
  C179     1.0000 0.13900  0.66500  0.81000  Biso   1.000  C
  C180     1.0000 0.14370  0.63960  0.76970  Biso   1.000  C
  H141     1.0000 0.12650  0.65340  0.72620  Biso   1.000  H
  C181     1.0000 0.17350  0.59400  0.79210  Biso   1.000  C
  H142     1.0000 0.17580  0.57450  0.76270  Biso   1.000  H
  C182     1.0000 0.10700  0.72000  0.78800  Biso   1.000  C
  C183     1.0000 0.04800  0.77800  0.70400  Biso   1.000  C
  H143     1.0000 0.05850  0.81370  0.73540  Biso   1.000  H
  H144     1.0000 0.02410  0.75680  0.69730  Biso   1.000  H
  C184     1.0000 0.03390  0.80520  0.64240  Biso   1.000  C
  C185     1.0000 0.00410  0.85220  0.61450  Biso   1.000  C
  H145     1.0000 0.99420  0.86690  0.63600  Biso   1.000  H
  C186     1.0000 0.98730  0.87990  0.55570  Biso   1.000  C
  C187     1.0000 0.00250  0.85920  0.52640  Biso   1.000  C
  H146     1.0000 0.99160  0.87790  0.48640  Biso   1.000  H
  C188     1.0000 0.03340  0.81160  0.55280  Biso   1.000  C
  C189     1.0000 0.04950  0.78550  0.61170  Biso   1.000  C
  H147     1.0000 0.07130  0.75390  0.63140  Biso   1.000  H
  C190     1.0000 0.02510  0.31960  0.86570  Biso   1.000  C
  H148     1.0000 0.04430  0.28460  0.88780  Biso   1.000  H
  C191     1.0000 0.02540  0.36730  0.90040  Biso   1.000  C
  H149     1.0000 0.04420  0.36520  0.94590  Biso   1.000  H
  C192     1.0000 0.99740  0.41970  0.86790  Biso   1.000  C
  C193     1.0000 0.97040  0.41990  0.80280  Biso   1.000  C
  H150     1.0000 0.95120  0.45490  0.77980  Biso   1.000  H
  C194     1.0000 0.97080  0.36940  0.77030  Biso   1.000  C
  H151     1.0000 0.95100  0.36890  0.72470  Biso   1.000  H
  C195     1.0000 0.99950  0.47280  0.90700  Biso   1.000  C
  C196     1.0000 0.96710  0.57170  0.90140  Biso   1.000  C
  H152     1.0000 0.96520  0.55240  0.93290  Biso   1.000  H
  H153     1.0000 0.94050  0.59540  0.86900  Biso   1.000  H
  C197     1.0000 0.17710  0.93760  0.99380  Biso   1.000  C
  H154     1.0000 0.17770  0.97860  0.97840  Biso   1.000  H
  C198     1.0000 0.14280  0.89700  0.95100  Biso   1.000  C
  H155     1.0000 0.12110  0.90950  0.90770  Biso   1.000  H
  C199     1.0000 0.14150  0.84000  0.97300  Biso   1.000  C
  C200     1.0000 0.17320  0.82400  0.03400  Biso   1.000  C
  H156     1.0000 0.17280  0.78350  0.05100  Biso   1.000  H
  C201     1.0000 0.20800  0.86800  0.07400  Biso   1.000  C
  H157     1.0000 0.23120  0.85560  0.11690  Biso   1.000  H
  C202     1.0000 0.10600  0.79300  0.93100  Biso   1.000  C
  C203     1.0000 0.08000  0.68900  0.91200  Biso   1.000  C
  H158     1.0000 0.09220  0.64670  0.91360  Biso   1.000  H
  H159     1.0000 0.06030  0.70360  0.86670  Biso   1.000  H
  C204     1.0000 0.17330  0.57210  0.32770  Biso   1.000  C
  H160     1.0000 0.17380  0.55420  0.36050  Biso   1.000  H
  C205     1.0000 0.14060  0.61460  0.28280  Biso   1.000  C
  H161     1.0000 0.11910  0.62410  0.28520  Biso   1.000  H
  C206     1.0000 0.13900  0.64250  0.23560  Biso   1.000  C
  C207     1.0000 0.17120  0.62590  0.23490  Biso   1.000  C
  H162     1.0000 0.17130  0.64300  0.20240  Biso   1.000  H
  C208     1.0000 0.20300  0.58520  0.28030  Biso   1.000  C
  H163     1.0000 0.22560  0.57680  0.28020  Biso   1.000  H
  C209     1.0000 0.10440  0.68380  0.18850  Biso   1.000  C
  C210     1.0000 0.06230  0.72330  0.08200  Biso   1.000  C
  H164     1.0000 0.07100  0.76880  0.08510  Biso   1.000  H
  H165     1.0000 0.03900  0.72280  0.08370  Biso   1.000  H
  C211     1.0000 0.00360  0.61800  0.93510  Biso   1.000  C
  C212     1.0000 0.02390  0.63460  0.91090  Biso   1.000  C
  H166     1.0000 0.01600  0.61330  0.87360  Biso   1.000  H
  C213     1.0000 0.05480  0.68040  0.93950  Biso   1.000  C
  C214     1.0000 0.06860  0.71030  0.99720  Biso   1.000  C
  H167     1.0000 0.09130  0.74050  0.01880  Biso   1.000  H
  C215     1.0000 0.04820  0.69440  0.02170  Biso   1.000  C
  C216     1.0000 0.01650  0.64920  0.99020  Biso   1.000  C
  H168     1.0000 0.00280  0.63870  0.00700  Biso   1.000  H
  Cu5      1.0000 0.74712  0.00996  0.88640  Biso   1.000  Cu
  O49      1.0000 0.51240  0.47800  0.07040  Biso   1.000  O
  O50      1.0000 0.46050  0.51900  0.06740  Biso   1.000  O
  O51      1.0000 0.59560  0.72510  0.98300  Biso   1.000  O
  O52      1.0000 0.58300  0.66460  0.03770  Biso   1.000  O
  O53      1.0000 0.60700  0.75300  0.32800  Biso   1.000  O
  O54      1.0000 0.58180  0.76830  0.22700  Biso   1.000  O
  O55      1.0000 0.52040  0.02930  0.46420  Biso   1.000  O
  O56      1.0000 0.47260  0.98020  0.36970  Biso   1.000  O
  O57      1.0000 0.57280  0.68600  0.38500  Biso   1.000  O
  O58      1.0000 0.61300  0.76390  0.45160  Biso   1.000  O
  O59      1.0000 0.58300  0.78730  0.69750  Biso   1.000  O
  O60      1.0000 0.59750  0.81410  0.63440  Biso   1.000  O
  N25      1.0000 0.49610  0.32120  0.19460  Biso   1.000  N
  N26      1.0000 0.70570  0.55190  0.08590  Biso   1.000  N
  N27      1.0000 0.70020  0.92560  0.35340  Biso   1.000  N
  N28      1.0000 0.49900  0.17990  0.30180  Biso   1.000  N
  N29      1.0000 0.70830  0.57720  0.55340  Biso   1.000  N
  N30      1.0000 0.70310  0.94330  0.82530  Biso   1.000  N
  C217     1.0000 0.46560  0.36570  0.16820  Biso   1.000  C
  H169     1.0000 0.44540  0.36210  0.17440  Biso   1.000  H
  C218     1.0000 0.46250  0.41630  0.13260  Biso   1.000  C
  H170     1.0000 0.44040  0.44730  0.11460  Biso   1.000  H
  C219     1.0000 0.49100  0.42220  0.12290  Biso   1.000  C
  C220     1.0000 0.52180  0.37710  0.14910  Biso   1.000  C
  H171     1.0000 0.54220  0.37960  0.14340  Biso   1.000  H
  C221     1.0000 0.52310  0.32680  0.18480  Biso   1.000  C
  H172     1.0000 0.54480  0.29520  0.20290  Biso   1.000  H
  C222     1.0000 0.48850  0.47600  0.08440  Biso   1.000  C
  C223     1.0000 0.45280  0.56950  0.02300  Biso   1.000  C
  H173     1.0000 0.45070  0.54920  0.98790  Biso   1.000  H
  H174     1.0000 0.42550  0.59080  0.00350  Biso   1.000  H
  C224     1.0000 0.67500  0.53490  0.08700  Biso   1.000  C
  H175     1.0000 0.67580  0.49310  0.10250  Biso   1.000  H
  C225     1.0000 0.64210  0.57550  0.06670  Biso   1.000  C
  H176     1.0000 0.62160  0.56220  0.07030  Biso   1.000  H
  C226     1.0000 0.63860  0.63420  0.04140  Biso   1.000  C
  C227     1.0000 0.66940  0.65180  0.03840  Biso   1.000  C
  H177     1.0000 0.66760  0.69180  0.01940  Biso   1.000  H
  C228     1.0000 0.70280  0.61060  0.06300  Biso   1.000  C
  H178     1.0000 0.72510  0.62490  0.06390  Biso   1.000  H
  C229     1.0000 0.60360  0.67980  0.01730  Biso   1.000  C
  C230     1.0000 0.54860  0.70900  0.01890  Biso   1.000  C
  H179     1.0000 0.52540  0.70710  0.97190  Biso   1.000  H
  H180     1.0000 0.55920  0.75410  0.03080  Biso   1.000  H
  C231     1.0000 0.69540  0.90000  0.39340  Biso   1.000  C
  H181     1.0000 0.71250  0.91480  0.43650  Biso   1.000  H
  C232     1.0000 0.66520  0.85100  0.37300  Biso   1.000  C
  H182     1.0000 0.66340  0.82990  0.40220  Biso   1.000  H
  C233     1.0000 0.63900  0.83500  0.31000  Biso   1.000  C
  C234     1.0000 0.64370  0.86040  0.26970  Biso   1.000  C
  H183     1.0000 0.62650  0.84660  0.22620  Biso   1.000  H
  C235     1.0000 0.67350  0.90600  0.29210  Biso   1.000  C
  H184     1.0000 0.67580  0.92550  0.26270  Biso   1.000  H
  C236     1.0000 0.60700  0.78000  0.28800  Biso   1.000  C
  C237     1.0000 0.54800  0.72200  0.20400  Biso   1.000  C
  H185     1.0000 0.55850  0.68630  0.23540  Biso   1.000  H
  H186     1.0000 0.52410  0.74320  0.19730  Biso   1.000  H
  C238     1.0000 0.53390  0.69480  0.14240  Biso   1.000  C
  C239     1.0000 0.50410  0.64780  0.11450  Biso   1.000  C
  H187     1.0000 0.49420  0.63310  0.13600  Biso   1.000  H
  C240     1.0000 0.48730  0.62010  0.05570  Biso   1.000  C
  C241     1.0000 0.50250  0.64080  0.02640  Biso   1.000  C
  H188     1.0000 0.49160  0.62210  0.98640  Biso   1.000  H
  C242     1.0000 0.53340  0.68840  0.05280  Biso   1.000  C
  C243     1.0000 0.54950  0.71450  0.11170  Biso   1.000  C
  H189     1.0000 0.57130  0.74610  0.13140  Biso   1.000  H
  C244     1.0000 0.52510  0.18040  0.36570  Biso   1.000  C
  H190     1.0000 0.54430  0.21540  0.38780  Biso   1.000  H
  C245     1.0000 0.52540  0.13270  0.40040  Biso   1.000  C
  H191     1.0000 0.54420  0.13480  0.44590  Biso   1.000  H
  C246     1.0000 0.49740  0.08030  0.36790  Biso   1.000  C
  C247     1.0000 0.47040  0.08010  0.30280  Biso   1.000  C
  H192     1.0000 0.45120  0.04510  0.27980  Biso   1.000  H
  C248     1.0000 0.47080  0.13060  0.27030  Biso   1.000  C
  H193     1.0000 0.45100  0.13110  0.22470  Biso   1.000  H
  C249     1.0000 0.49950  0.02720  0.40700  Biso   1.000  C
  C250     1.0000 0.46710  0.92830  0.40140  Biso   1.000  C
  H194     1.0000 0.46520  0.94760  0.43290  Biso   1.000  H
  H195     1.0000 0.44050  0.90460  0.36900  Biso   1.000  H
  C251     1.0000 0.67710  0.56240  0.49380  Biso   1.000  C
  H196     1.0000 0.67770  0.52140  0.47840  Biso   1.000  H
  C252     1.0000 0.64280  0.60300  0.45100  Biso   1.000  C
  H197     1.0000 0.62110  0.59050  0.40770  Biso   1.000  H
  C253     1.0000 0.64150  0.66000  0.47300  Biso   1.000  C
  C254     1.0000 0.67320  0.67600  0.53400  Biso   1.000  C
  H198     1.0000 0.67280  0.71650  0.55100  Biso   1.000  H
  C255     1.0000 0.70800  0.63200  0.57400  Biso   1.000  C
  H199     1.0000 0.73120  0.64440  0.61690  Biso   1.000  H
  C256     1.0000 0.60600  0.70700  0.43100  Biso   1.000  C
  C257     1.0000 0.58000  0.81100  0.41200  Biso   1.000  C
  H200     1.0000 0.59220  0.85330  0.41360  Biso   1.000  H
  H201     1.0000 0.56030  0.79640  0.36670  Biso   1.000  H
  C258     1.0000 0.67330  0.92790  0.82770  Biso   1.000  C
  H202     1.0000 0.67380  0.94580  0.86050  Biso   1.000  H
  C259     1.0000 0.64060  0.88540  0.78280  Biso   1.000  C
  H203     1.0000 0.61910  0.87590  0.78520  Biso   1.000  H
  C260     1.0000 0.63900  0.85750  0.73560  Biso   1.000  C
  C261     1.0000 0.67120  0.87410  0.73490  Biso   1.000  C
  H204     1.0000 0.67130  0.85700  0.70240  Biso   1.000  H
  C262     1.0000 0.70300  0.91480  0.78030  Biso   1.000  C
  H205     1.0000 0.72560  0.92320  0.78020  Biso   1.000  H
  C263     1.0000 0.60440  0.81620  0.68850  Biso   1.000  C
  C264     1.0000 0.56230  0.77670  0.58200  Biso   1.000  C
  H206     1.0000 0.57100  0.73120  0.58510  Biso   1.000  H
  H207     1.0000 0.53900  0.77720  0.58370  Biso   1.000  H
  C265     1.0000 0.50360  0.88200  0.43510  Biso   1.000  C
  C266     1.0000 0.52390  0.86540  0.41090  Biso   1.000  C
  H208     1.0000 0.51600  0.88670  0.37360  Biso   1.000  H
  C267     1.0000 0.55480  0.81960  0.43950  Biso   1.000  C
  C268     1.0000 0.56860  0.78970  0.49720  Biso   1.000  C
  H209     1.0000 0.59130  0.75950  0.51880  Biso   1.000  H
  C269     1.0000 0.54820  0.80560  0.52170  Biso   1.000  C
  C270     1.0000 0.51650  0.85080  0.49020  Biso   1.000  C
  H210     1.0000 0.50280  0.86130  0.50700  Biso   1.000  H
  Cu6      1.0000 0.24712  0.50996  0.88640  Biso   1.000  Cu
  O61      1.0000 0.01240  0.97800  0.07040  Biso   1.000  O
  O62      1.0000 0.96050  0.01900  0.06740  Biso   1.000  O
  O63      1.0000 0.09560  0.22510  0.98300  Biso   1.000  O
  O64      1.0000 0.08300  0.16460  0.03770  Biso   1.000  O
  O65      1.0000 0.10700  0.25300  0.32800  Biso   1.000  O
  O66      1.0000 0.08180  0.26830  0.22700  Biso   1.000  O
  O67      1.0000 0.02040  0.52930  0.46420  Biso   1.000  O
  O68      1.0000 0.97260  0.48020  0.36970  Biso   1.000  O
  O69      1.0000 0.07280  0.18600  0.38500  Biso   1.000  O
  O70      1.0000 0.11300  0.26390  0.45160  Biso   1.000  O
  O71      1.0000 0.08300  0.28730  0.69750  Biso   1.000  O
  O72      1.0000 0.09750  0.31410  0.63440  Biso   1.000  O
  N31      1.0000 0.99610  0.82120  0.19460  Biso   1.000  N
  N32      1.0000 0.20570  0.05190  0.08590  Biso   1.000  N
  N33      1.0000 0.20020  0.42560  0.35340  Biso   1.000  N
  N34      1.0000 0.99900  0.67990  0.30180  Biso   1.000  N
  N35      1.0000 0.20830  0.07720  0.55340  Biso   1.000  N
  N36      1.0000 0.20310  0.44330  0.82530  Biso   1.000  N
  C271     1.0000 0.96560  0.86570  0.16820  Biso   1.000  C
  H211     1.0000 0.94540  0.86210  0.17440  Biso   1.000  H
  C272     1.0000 0.96250  0.91630  0.13260  Biso   1.000  C
  H212     1.0000 0.94040  0.94730  0.11460  Biso   1.000  H
  C273     1.0000 0.99100  0.92220  0.12290  Biso   1.000  C
  C274     1.0000 0.02180  0.87710  0.14910  Biso   1.000  C
  H213     1.0000 0.04220  0.87960  0.14340  Biso   1.000  H
  C275     1.0000 0.02310  0.82680  0.18480  Biso   1.000  C
  H214     1.0000 0.04480  0.79520  0.20290  Biso   1.000  H
  C276     1.0000 0.98850  0.97600  0.08440  Biso   1.000  C
  C277     1.0000 0.95280  0.06950  0.02300  Biso   1.000  C
  H215     1.0000 0.95070  0.04920  0.98790  Biso   1.000  H
  H216     1.0000 0.92550  0.09080  0.00350  Biso   1.000  H
  C278     1.0000 0.17500  0.03490  0.08700  Biso   1.000  C
  H217     1.0000 0.17580  0.99310  0.10250  Biso   1.000  H
  C279     1.0000 0.14210  0.07550  0.06670  Biso   1.000  C
  H218     1.0000 0.12160  0.06220  0.07030  Biso   1.000  H
  C280     1.0000 0.13860  0.13420  0.04140  Biso   1.000  C
  C281     1.0000 0.16940  0.15180  0.03840  Biso   1.000  C
  H219     1.0000 0.16760  0.19180  0.01940  Biso   1.000  H
  C282     1.0000 0.20280  0.11060  0.06300  Biso   1.000  C
  H220     1.0000 0.22510  0.12490  0.06390  Biso   1.000  H
  C283     1.0000 0.10360  0.17980  0.01730  Biso   1.000  C
  C284     1.0000 0.04860  0.20900  0.01890  Biso   1.000  C
  H221     1.0000 0.02540  0.20710  0.97190  Biso   1.000  H
  H222     1.0000 0.05920  0.25410  0.03080  Biso   1.000  H
  C285     1.0000 0.19540  0.40000  0.39340  Biso   1.000  C
  H223     1.0000 0.21250  0.41480  0.43650  Biso   1.000  H
  C286     1.0000 0.16520  0.35100  0.37300  Biso   1.000  C
  H224     1.0000 0.16340  0.32990  0.40220  Biso   1.000  H
  C287     1.0000 0.13900  0.33500  0.31000  Biso   1.000  C
  C288     1.0000 0.14370  0.36040  0.26970  Biso   1.000  C
  H225     1.0000 0.12650  0.34660  0.22620  Biso   1.000  H
  C289     1.0000 0.17350  0.40600  0.29210  Biso   1.000  C
  H226     1.0000 0.17580  0.42550  0.26270  Biso   1.000  H
  C290     1.0000 0.10700  0.28000  0.28800  Biso   1.000  C
  C291     1.0000 0.04800  0.22200  0.20400  Biso   1.000  C
  H227     1.0000 0.05850  0.18630  0.23540  Biso   1.000  H
  H228     1.0000 0.02410  0.24320  0.19730  Biso   1.000  H
  C292     1.0000 0.03390  0.19480  0.14240  Biso   1.000  C
  C293     1.0000 0.00410  0.14780  0.11450  Biso   1.000  C
  H229     1.0000 0.99420  0.13310  0.13600  Biso   1.000  H
  C294     1.0000 0.98730  0.12010  0.05570  Biso   1.000  C
  C295     1.0000 0.00250  0.14080  0.02640  Biso   1.000  C
  H230     1.0000 0.99160  0.12210  0.98640  Biso   1.000  H
  C296     1.0000 0.03340  0.18840  0.05280  Biso   1.000  C
  C297     1.0000 0.04950  0.21450  0.11170  Biso   1.000  C
  H231     1.0000 0.07130  0.24610  0.13140  Biso   1.000  H
  C298     1.0000 0.02510  0.68040  0.36570  Biso   1.000  C
  H232     1.0000 0.04430  0.71540  0.38780  Biso   1.000  H
  C299     1.0000 0.02540  0.63270  0.40040  Biso   1.000  C
  H233     1.0000 0.04420  0.63480  0.44590  Biso   1.000  H
  C300     1.0000 0.99740  0.58030  0.36790  Biso   1.000  C
  C301     1.0000 0.97040  0.58010  0.30280  Biso   1.000  C
  H234     1.0000 0.95120  0.54510  0.27980  Biso   1.000  H
  C302     1.0000 0.97080  0.63060  0.27030  Biso   1.000  C
  H235     1.0000 0.95100  0.63110  0.22470  Biso   1.000  H
  C303     1.0000 0.99950  0.52720  0.40700  Biso   1.000  C
  C304     1.0000 0.96710  0.42830  0.40140  Biso   1.000  C
  H236     1.0000 0.96520  0.44760  0.43290  Biso   1.000  H
  H237     1.0000 0.94050  0.40460  0.36900  Biso   1.000  H
  C305     1.0000 0.17710  0.06240  0.49380  Biso   1.000  C
  H238     1.0000 0.17770  0.02140  0.47840  Biso   1.000  H
  C306     1.0000 0.14280  0.10300  0.45100  Biso   1.000  C
  H239     1.0000 0.12110  0.09050  0.40770  Biso   1.000  H
  C307     1.0000 0.14150  0.16000  0.47300  Biso   1.000  C
  C308     1.0000 0.17320  0.17600  0.53400  Biso   1.000  C
  H240     1.0000 0.17280  0.21650  0.55100  Biso   1.000  H
  C309     1.0000 0.20800  0.13200  0.57400  Biso   1.000  C
  H241     1.0000 0.23120  0.14440  0.61690  Biso   1.000  H
  C310     1.0000 0.10600  0.20700  0.43100  Biso   1.000  C
  C311     1.0000 0.08000  0.31100  0.41200  Biso   1.000  C
  H242     1.0000 0.09220  0.35330  0.41360  Biso   1.000  H
  H243     1.0000 0.06030  0.29640  0.36670  Biso   1.000  H
  C312     1.0000 0.17330  0.42790  0.82770  Biso   1.000  C
  H244     1.0000 0.17380  0.44580  0.86050  Biso   1.000  H
  C313     1.0000 0.14060  0.38540  0.78280  Biso   1.000  C
  H245     1.0000 0.11910  0.37590  0.78520  Biso   1.000  H
  C314     1.0000 0.13900  0.35750  0.73560  Biso   1.000  C
  C315     1.0000 0.17120  0.37410  0.73490  Biso   1.000  C
  H246     1.0000 0.17130  0.35700  0.70240  Biso   1.000  H
  C316     1.0000 0.20300  0.41480  0.78030  Biso   1.000  C
  H247     1.0000 0.22560  0.42320  0.78020  Biso   1.000  H
  C317     1.0000 0.10440  0.31620  0.68850  Biso   1.000  C
  C318     1.0000 0.06230  0.27670  0.58200  Biso   1.000  C
  H248     1.0000 0.07100  0.23120  0.58510  Biso   1.000  H
  H249     1.0000 0.03900  0.27720  0.58370  Biso   1.000  H
  C319     1.0000 0.00360  0.38200  0.43510  Biso   1.000  C
  C320     1.0000 0.02390  0.36540  0.41090  Biso   1.000  C
  H250     1.0000 0.01600  0.38670  0.37360  Biso   1.000  H
  C321     1.0000 0.05480  0.31960  0.43950  Biso   1.000  C
  C322     1.0000 0.06860  0.28970  0.49720  Biso   1.000  C
  H251     1.0000 0.09130  0.25950  0.51880  Biso   1.000  H
  C323     1.0000 0.04820  0.30560  0.52170  Biso   1.000  C
  C324     1.0000 0.01650  0.35080  0.49020  Biso   1.000  C
  H252     1.0000 0.00280  0.36130  0.50700  Biso   1.000  H
  Cu7      1.0000 0.25288  0.00996  0.61360  Biso   1.000  Cu
  O73      1.0000 0.48760  0.47800  0.42960  Biso   1.000  O
  O74      1.0000 0.53950  0.51900  0.43260  Biso   1.000  O
  O75      1.0000 0.40440  0.72510  0.51700  Biso   1.000  O
  O76      1.0000 0.41700  0.66460  0.46230  Biso   1.000  O
  O77      1.0000 0.39300  0.75300  0.17200  Biso   1.000  O
  O78      1.0000 0.41820  0.76830  0.27300  Biso   1.000  O
  O79      1.0000 0.47960  0.02930  0.03580  Biso   1.000  O
  O80      1.0000 0.52740  0.98020  0.13030  Biso   1.000  O
  O81      1.0000 0.42720  0.68600  0.11500  Biso   1.000  O
  O82      1.0000 0.38700  0.76390  0.04840  Biso   1.000  O
  O83      1.0000 0.41700  0.78730  0.80250  Biso   1.000  O
  O84      1.0000 0.40250  0.81410  0.86560  Biso   1.000  O
  N37      1.0000 0.50390  0.32120  0.30540  Biso   1.000  N
  N38      1.0000 0.29430  0.55190  0.41410  Biso   1.000  N
  N39      1.0000 0.29980  0.92560  0.14660  Biso   1.000  N
  N40      1.0000 0.50100  0.17990  0.19820  Biso   1.000  N
  N41      1.0000 0.29170  0.57720  0.94660  Biso   1.000  N
  N42      1.0000 0.29690  0.94330  0.67470  Biso   1.000  N
  C325     1.0000 0.53440  0.36570  0.33180  Biso   1.000  C
  H253     1.0000 0.55460  0.36210  0.32560  Biso   1.000  H
  C326     1.0000 0.53750  0.41630  0.36740  Biso   1.000  C
  H254     1.0000 0.55960  0.44730  0.38540  Biso   1.000  H
  C327     1.0000 0.50900  0.42220  0.37710  Biso   1.000  C
  C328     1.0000 0.47820  0.37710  0.35090  Biso   1.000  C
  H255     1.0000 0.45780  0.37960  0.35660  Biso   1.000  H
  C329     1.0000 0.47690  0.32680  0.31520  Biso   1.000  C
  H256     1.0000 0.45520  0.29520  0.29710  Biso   1.000  H
  C330     1.0000 0.51150  0.47600  0.41560  Biso   1.000  C
  C331     1.0000 0.54720  0.56950  0.47700  Biso   1.000  C
  H257     1.0000 0.54930  0.54920  0.51210  Biso   1.000  H
  H258     1.0000 0.57450  0.59080  0.49650  Biso   1.000  H
  C332     1.0000 0.32500  0.53490  0.41300  Biso   1.000  C
  H259     1.0000 0.32420  0.49310  0.39750  Biso   1.000  H
  C333     1.0000 0.35790  0.57550  0.43330  Biso   1.000  C
  H260     1.0000 0.37840  0.56220  0.42970  Biso   1.000  H
  C334     1.0000 0.36140  0.63420  0.45860  Biso   1.000  C
  C335     1.0000 0.33060  0.65180  0.46160  Biso   1.000  C
  H261     1.0000 0.33240  0.69180  0.48060  Biso   1.000  H
  C336     1.0000 0.29720  0.61060  0.43700  Biso   1.000  C
  H262     1.0000 0.27490  0.62490  0.43610  Biso   1.000  H
  C337     1.0000 0.39640  0.67980  0.48270  Biso   1.000  C
  C338     1.0000 0.45140  0.70900  0.48110  Biso   1.000  C
  H263     1.0000 0.47460  0.70710  0.52810  Biso   1.000  H
  H264     1.0000 0.44080  0.75410  0.46920  Biso   1.000  H
  C339     1.0000 0.30460  0.90000  0.10660  Biso   1.000  C
  H265     1.0000 0.28750  0.91480  0.06350  Biso   1.000  H
  C340     1.0000 0.33480  0.85100  0.12700  Biso   1.000  C
  H266     1.0000 0.33660  0.82990  0.09780  Biso   1.000  H
  C341     1.0000 0.36100  0.83500  0.19000  Biso   1.000  C
  C342     1.0000 0.35630  0.86040  0.23030  Biso   1.000  C
  H267     1.0000 0.37350  0.84660  0.27380  Biso   1.000  H
  C343     1.0000 0.32650  0.90600  0.20790  Biso   1.000  C
  H268     1.0000 0.32420  0.92550  0.23730  Biso   1.000  H
  C344     1.0000 0.39300  0.78000  0.21200  Biso   1.000  C
  C345     1.0000 0.45200  0.72200  0.29600  Biso   1.000  C
  H269     1.0000 0.44150  0.68630  0.26460  Biso   1.000  H
  H270     1.0000 0.47590  0.74320  0.30270  Biso   1.000  H
  C346     1.0000 0.46610  0.69480  0.35760  Biso   1.000  C
  C347     1.0000 0.49590  0.64780  0.38550  Biso   1.000  C
  H271     1.0000 0.50580  0.63310  0.36400  Biso   1.000  H
  C348     1.0000 0.51270  0.62010  0.44430  Biso   1.000  C
  C349     1.0000 0.49750  0.64080  0.47360  Biso   1.000  C
  H272     1.0000 0.50840  0.62210  0.51360  Biso   1.000  H
  C350     1.0000 0.46660  0.68840  0.44720  Biso   1.000  C
  C351     1.0000 0.45050  0.71450  0.38830  Biso   1.000  C
  H273     1.0000 0.42870  0.74610  0.36860  Biso   1.000  H
  C352     1.0000 0.47490  0.18040  0.13430  Biso   1.000  C
  H274     1.0000 0.45570  0.21540  0.11220  Biso   1.000  H
  C353     1.0000 0.47460  0.13270  0.09960  Biso   1.000  C
  H275     1.0000 0.45580  0.13480  0.05410  Biso   1.000  H
  C354     1.0000 0.50260  0.08030  0.13210  Biso   1.000  C
  C355     1.0000 0.52960  0.08010  0.19720  Biso   1.000  C
  H276     1.0000 0.54880  0.04510  0.22020  Biso   1.000  H
  C356     1.0000 0.52920  0.13060  0.22970  Biso   1.000  C
  H277     1.0000 0.54900  0.13110  0.27530  Biso   1.000  H
  C357     1.0000 0.50050  0.02720  0.09300  Biso   1.000  C
  C358     1.0000 0.53290  0.92830  0.09860  Biso   1.000  C
  H278     1.0000 0.53480  0.94760  0.06710  Biso   1.000  H
  H279     1.0000 0.55950  0.90460  0.13100  Biso   1.000  H
  C359     1.0000 0.32290  0.56240  0.00620  Biso   1.000  C
  H280     1.0000 0.32230  0.52140  0.02160  Biso   1.000  H
  C360     1.0000 0.35720  0.60300  0.04900  Biso   1.000  C
  H281     1.0000 0.37890  0.59050  0.09230  Biso   1.000  H
  C361     1.0000 0.35850  0.66000  0.02700  Biso   1.000  C
  C362     1.0000 0.32680  0.67600  0.96600  Biso   1.000  C
  H282     1.0000 0.32720  0.71650  0.94900  Biso   1.000  H
  C363     1.0000 0.29200  0.63200  0.92600  Biso   1.000  C
  H283     1.0000 0.26880  0.64440  0.88310  Biso   1.000  H
  C364     1.0000 0.39400  0.70700  0.06900  Biso   1.000  C
  C365     1.0000 0.42000  0.81100  0.08800  Biso   1.000  C
  H284     1.0000 0.40780  0.85330  0.08640  Biso   1.000  H
  H285     1.0000 0.43970  0.79640  0.13330  Biso   1.000  H
  C366     1.0000 0.32670  0.92790  0.67230  Biso   1.000  C
  H286     1.0000 0.32620  0.94580  0.63950  Biso   1.000  H
  C367     1.0000 0.35940  0.88540  0.71720  Biso   1.000  C
  H287     1.0000 0.38090  0.87590  0.71480  Biso   1.000  H
  C368     1.0000 0.36100  0.85750  0.76440  Biso   1.000  C
  C369     1.0000 0.32880  0.87410  0.76510  Biso   1.000  C
  H288     1.0000 0.32870  0.85700  0.79760  Biso   1.000  H
  C370     1.0000 0.29700  0.91480  0.71970  Biso   1.000  C
  H289     1.0000 0.27440  0.92320  0.71980  Biso   1.000  H
  C371     1.0000 0.39560  0.81620  0.81150  Biso   1.000  C
  C372     1.0000 0.43770  0.77670  0.91800  Biso   1.000  C
  H290     1.0000 0.42900  0.73120  0.91490  Biso   1.000  H
  H291     1.0000 0.46100  0.77720  0.91630  Biso   1.000  H
  C373     1.0000 0.49640  0.88200  0.06490  Biso   1.000  C
  C374     1.0000 0.47610  0.86540  0.08910  Biso   1.000  C
  H292     1.0000 0.48400  0.88670  0.12640  Biso   1.000  H
  C375     1.0000 0.44520  0.81960  0.06050  Biso   1.000  C
  C376     1.0000 0.43140  0.78970  0.00280  Biso   1.000  C
  H293     1.0000 0.40870  0.75950  0.98120  Biso   1.000  H
  C377     1.0000 0.45180  0.80560  0.97830  Biso   1.000  C
  C378     1.0000 0.48350  0.85080  0.00980  Biso   1.000  C
  H294     1.0000 0.49720  0.86130  0.99300  Biso   1.000  H
  Cu8      1.0000 0.75288  0.50996  0.61360  Biso   1.000  Cu
  O85      1.0000 0.98760  0.97800  0.42960  Biso   1.000  O
  O86      1.0000 0.03950  0.01900  0.43260  Biso   1.000  O
  O87      1.0000 0.90440  0.22510  0.51700  Biso   1.000  O
  O88      1.0000 0.91700  0.16460  0.46230  Biso   1.000  O
  O89      1.0000 0.89300  0.25300  0.17200  Biso   1.000  O
  O90      1.0000 0.91820  0.26830  0.27300  Biso   1.000  O
  O91      1.0000 0.97960  0.52930  0.03580  Biso   1.000  O
  O92      1.0000 0.02740  0.48020  0.13030  Biso   1.000  O
  O93      1.0000 0.92720  0.18600  0.11500  Biso   1.000  O
  O94      1.0000 0.88700  0.26390  0.04840  Biso   1.000  O
  O95      1.0000 0.91700  0.28730  0.80250  Biso   1.000  O
  O96      1.0000 0.90250  0.31410  0.86560  Biso   1.000  O
  N43      1.0000 0.00390  0.82120  0.30540  Biso   1.000  N
  N44      1.0000 0.79430  0.05190  0.41410  Biso   1.000  N
  N45      1.0000 0.79980  0.42560  0.14660  Biso   1.000  N
  N46      1.0000 0.00100  0.67990  0.19820  Biso   1.000  N
  N47      1.0000 0.79170  0.07720  0.94660  Biso   1.000  N
  N48      1.0000 0.79690  0.44330  0.67470  Biso   1.000  N
  C379     1.0000 0.03440  0.86570  0.33180  Biso   1.000  C
  H295     1.0000 0.05460  0.86210  0.32560  Biso   1.000  H
  C380     1.0000 0.03750  0.91630  0.36740  Biso   1.000  C
  H296     1.0000 0.05960  0.94730  0.38540  Biso   1.000  H
  C381     1.0000 0.00900  0.92220  0.37710  Biso   1.000  C
  C382     1.0000 0.97820  0.87710  0.35090  Biso   1.000  C
  H297     1.0000 0.95780  0.87960  0.35660  Biso   1.000  H
  C383     1.0000 0.97690  0.82680  0.31520  Biso   1.000  C
  H298     1.0000 0.95520  0.79520  0.29710  Biso   1.000  H
  C384     1.0000 0.01150  0.97600  0.41560  Biso   1.000  C
  C385     1.0000 0.04720  0.06950  0.47700  Biso   1.000  C
  H299     1.0000 0.04930  0.04920  0.51210  Biso   1.000  H
  H300     1.0000 0.07450  0.09080  0.49650  Biso   1.000  H
  C386     1.0000 0.82500  0.03490  0.41300  Biso   1.000  C
  H301     1.0000 0.82420  0.99310  0.39750  Biso   1.000  H
  C387     1.0000 0.85790  0.07550  0.43330  Biso   1.000  C
  H302     1.0000 0.87840  0.06220  0.42970  Biso   1.000  H
  C388     1.0000 0.86140  0.13420  0.45860  Biso   1.000  C
  C389     1.0000 0.83060  0.15180  0.46160  Biso   1.000  C
  H303     1.0000 0.83240  0.19180  0.48060  Biso   1.000  H
  C390     1.0000 0.79720  0.11060  0.43700  Biso   1.000  C
  H304     1.0000 0.77490  0.12490  0.43610  Biso   1.000  H
  C391     1.0000 0.89640  0.17980  0.48270  Biso   1.000  C
  C392     1.0000 0.95140  0.20900  0.48110  Biso   1.000  C
  H305     1.0000 0.97460  0.20710  0.52810  Biso   1.000  H
  H306     1.0000 0.94080  0.25410  0.46920  Biso   1.000  H
  C393     1.0000 0.80460  0.40000  0.10660  Biso   1.000  C
  H307     1.0000 0.78750  0.41480  0.06350  Biso   1.000  H
  C394     1.0000 0.83480  0.35100  0.12700  Biso   1.000  C
  H308     1.0000 0.83660  0.32990  0.09780  Biso   1.000  H
  C395     1.0000 0.86100  0.33500  0.19000  Biso   1.000  C
  C396     1.0000 0.85630  0.36040  0.23030  Biso   1.000  C
  H309     1.0000 0.87350  0.34660  0.27380  Biso   1.000  H
  C397     1.0000 0.82650  0.40600  0.20790  Biso   1.000  C
  H310     1.0000 0.82420  0.42550  0.23730  Biso   1.000  H
  C398     1.0000 0.89300  0.28000  0.21200  Biso   1.000  C
  C399     1.0000 0.95200  0.22200  0.29600  Biso   1.000  C
  H311     1.0000 0.94150  0.18630  0.26460  Biso   1.000  H
  H312     1.0000 0.97590  0.24320  0.30270  Biso   1.000  H
  C400     1.0000 0.96610  0.19480  0.35760  Biso   1.000  C
  C401     1.0000 0.99590  0.14780  0.38550  Biso   1.000  C
  H313     1.0000 0.00580  0.13310  0.36400  Biso   1.000  H
  C402     1.0000 0.01270  0.12010  0.44430  Biso   1.000  C
  C403     1.0000 0.99750  0.14080  0.47360  Biso   1.000  C
  H314     1.0000 0.00840  0.12210  0.51360  Biso   1.000  H
  C404     1.0000 0.96660  0.18840  0.44720  Biso   1.000  C
  C405     1.0000 0.95050  0.21450  0.38830  Biso   1.000  C
  H315     1.0000 0.92870  0.24610  0.36860  Biso   1.000  H
  C406     1.0000 0.97490  0.68040  0.13430  Biso   1.000  C
  H316     1.0000 0.95570  0.71540  0.11220  Biso   1.000  H
  C407     1.0000 0.97460  0.63270  0.09960  Biso   1.000  C
  H317     1.0000 0.95580  0.63480  0.05410  Biso   1.000  H
  C408     1.0000 0.00260  0.58030  0.13210  Biso   1.000  C
  C409     1.0000 0.02960  0.58010  0.19720  Biso   1.000  C
  H318     1.0000 0.04880  0.54510  0.22020  Biso   1.000  H
  C410     1.0000 0.02920  0.63060  0.22970  Biso   1.000  C
  H319     1.0000 0.04900  0.63110  0.27530  Biso   1.000  H
  C411     1.0000 0.00050  0.52720  0.09300  Biso   1.000  C
  C412     1.0000 0.03290  0.42830  0.09860  Biso   1.000  C
  H320     1.0000 0.03480  0.44760  0.06710  Biso   1.000  H
  H321     1.0000 0.05950  0.40460  0.13100  Biso   1.000  H
  C413     1.0000 0.82290  0.06240  0.00620  Biso   1.000  C
  H322     1.0000 0.82230  0.02140  0.02160  Biso   1.000  H
  C414     1.0000 0.85720  0.10300  0.04900  Biso   1.000  C
  H323     1.0000 0.87890  0.09050  0.09230  Biso   1.000  H
  C415     1.0000 0.85850  0.16000  0.02700  Biso   1.000  C
  C416     1.0000 0.82680  0.17600  0.96600  Biso   1.000  C
  H324     1.0000 0.82720  0.21650  0.94900  Biso   1.000  H
  C417     1.0000 0.79200  0.13200  0.92600  Biso   1.000  C
  H325     1.0000 0.76880  0.14440  0.88310  Biso   1.000  H
  C418     1.0000 0.89400  0.20700  0.06900  Biso   1.000  C
  C419     1.0000 0.92000  0.31100  0.08800  Biso   1.000  C
  H326     1.0000 0.90780  0.35330  0.08640  Biso   1.000  H
  H327     1.0000 0.93970  0.29640  0.13330  Biso   1.000  H
  C420     1.0000 0.82670  0.42790  0.67230  Biso   1.000  C
  H328     1.0000 0.82620  0.44580  0.63950  Biso   1.000  H
  C421     1.0000 0.85940  0.38540  0.71720  Biso   1.000  C
  H329     1.0000 0.88090  0.37590  0.71480  Biso   1.000  H
  C422     1.0000 0.86100  0.35750  0.76440  Biso   1.000  C
  C423     1.0000 0.82880  0.37410  0.76510  Biso   1.000  C
  H330     1.0000 0.82870  0.35700  0.79760  Biso   1.000  H
  C424     1.0000 0.79700  0.41480  0.71970  Biso   1.000  C
  H331     1.0000 0.77440  0.42320  0.71980  Biso   1.000  H
  C425     1.0000 0.89560  0.31620  0.81150  Biso   1.000  C
  C426     1.0000 0.93770  0.27670  0.91800  Biso   1.000  C
  H332     1.0000 0.92900  0.23120  0.91490  Biso   1.000  H
  H333     1.0000 0.96100  0.27720  0.91630  Biso   1.000  H
  C427     1.0000 0.99640  0.38200  0.06490  Biso   1.000  C
  C428     1.0000 0.97610  0.36540  0.08910  Biso   1.000  C
  H334     1.0000 0.98400  0.38670  0.12640  Biso   1.000  H
  C429     1.0000 0.94520  0.31960  0.06050  Biso   1.000  C
  C430     1.0000 0.93140  0.28970  0.00280  Biso   1.000  C
  H335     1.0000 0.90870  0.25950  0.98120  Biso   1.000  H
  C431     1.0000 0.95180  0.30560  0.97830  Biso   1.000  C
  C432     1.0000 0.98350  0.35080  0.00980  Biso   1.000  C
  H336     1.0000 0.99720  0.36130  0.99300  Biso   1.000  H
  Cu9      1.0000 0.50000  0.74990  0.75000  Biso   1.000  Cu
  Cu10     1.0000 0.00000  0.24990  0.75000  Biso   1.000  Cu
  Cu11     1.0000 0.50000  0.25010  0.25000  Biso   1.000  Cu
  Cu12     1.0000 0.00000  0.75010  0.25000  Biso   1.000  Cu
