data_image0
_cell_length_a       28.552
_cell_length_b       27.8454
_cell_length_c       27.887
_cell_angle_alpha    90
_cell_angle_beta     120.61
_cell_angle_gamma    90

_symmetry_space_group_name_H-M    "P 1"
_symmetry_int_tables_number       1

loop_
  _symmetry_equiv_pos_as_xyz
  'x, y, z'

loop_
  _atom_site_label
  _atom_site_occupancy
  _atom_site_fract_x
  _atom_site_fract_y
  _atom_site_fract_z
  _atom_site_thermal_displace_type
  _atom_site_B_iso_or_equiv
  _atom_site_type_symbol
  W1       1.0000 0.14493  0.62793  0.19992  Biso   1.000  W
  W2       1.0000 0.22764  0.62804  0.14688  Biso   1.000  W
  W3       1.0000 0.19343  0.57842  0.33850  Biso   1.000  W
  W4       1.0000 0.26763  0.41135  0.35364  Biso   1.000  W
  W5       1.0000 0.36485  0.57968  0.22854  Biso   1.000  W
  W6       1.0000 0.35895  0.41194  0.29547  Biso   1.000  W
  W7       1.0000 0.41043  0.53648  0.35685  Biso   1.000  W
  W8       1.0000 0.14141  0.45450  0.27700  Biso   1.000  W
  W9       1.0000 0.32045  0.53570  0.41408  Biso   1.000  W
  W10      1.0000 0.31551  0.45545  0.16746  Biso   1.000  W
  W11      1.0000 0.09327  0.50417  0.13620  Biso   1.000  W
  W12      1.0000 0.11230  0.37155  0.16000  Biso   1.000  W
  W13      1.0000 0.19790  0.37127  0.10803  Biso   1.000  W
  W14      1.0000 0.17564  0.50341  0.08420  Biso   1.000  W
  W15      1.0000 0.24136  0.32862  0.23843  Biso   1.000  W
  Ni1      1.0000 0.42111  0.62610  0.45475  Biso   1.000  Ni
  Ni2      1.0000 0.19318  0.70465  0.32315  Biso   1.000  Ni
  Ni3      1.0000 0.34977  0.53122  0.55584  Biso   1.000  Ni
  Ni4      1.0000 0.26293  0.70084  0.26481  Biso   1.000  Ni
  Ni5      1.0000 0.38018  0.66170  0.33446  Biso   1.000  Ni
  Ni6      1.0000 0.30331  0.66168  0.38333  Biso   1.000  Ni
  Ni7      1.0000 0.34620  0.70489  0.22319  Biso   1.000  Ni
  P1       1.0000 0.27889  0.58552  0.28321  Biso   1.000  P
  P2       1.0000 0.22292  0.45127  0.21584  Biso   1.000  P
  O1       1.0000 0.33980  0.59810  0.42290  Biso   1.000  O
  O2       1.0000 0.34720  0.51090  0.20330  Biso   1.000  O
  O3       1.0000 0.16980  0.51010  0.31500  Biso   1.000  O
  O4       1.0000 0.16860  0.43200  0.07950  Biso   1.000  O
  O5       1.0000 0.37970  0.68000  0.40400  Biso   1.000  O
  O6       1.0000 0.26310  0.67620  0.19470  Biso   1.000  O
  O7       1.0000 0.30000  0.63620  0.30950  Biso   1.000  O
  O8       1.0000 0.16320  0.32120  0.20340  Biso   1.000  O
  O9       1.0000 0.12410  0.39820  0.22740  Biso   1.000  O
  O10      1.0000 0.26280  0.27060  0.26440  Biso   1.000  O
  O11      1.0000 0.21930  0.45570  0.26810  Biso   1.000  O
  O12      1.0000 0.15110  0.59120  0.26000  Biso   1.000  O
  O13      1.0000 0.18530  0.48900  0.17070  Biso   1.000  O
  O14      1.0000 0.34040  0.71950  0.29020  Biso   1.000  O
  O15      1.0000 0.20210  0.40060  0.19130  Biso   1.000  O
  O16      1.0000 0.22870  0.32120  0.16330  Biso   1.000  O
  O17      1.0000 0.26320  0.55760  0.32130  Biso   1.000  O
  O18      1.0000 0.22540  0.63590  0.35190  Biso   1.000  O
  O19      1.0000 0.15930  0.64300  0.14120  Biso   1.000  O
  O20      1.0000 0.32460  0.55850  0.28000  Biso   1.000  O
  O21      1.0000 0.36870  0.51720  0.39130  Biso   1.000  O
  O22      1.0000 0.32610  0.41330  0.33970  Biso   1.000  O
  O23      1.0000 0.36380  0.41700  0.22900  Biso   1.000  O
  O24      1.0000 0.30320  0.69160  0.44980  Biso   1.000  O
  O25      1.0000 0.29230  0.59050  0.17120  Biso   1.000  O
  O26      1.0000 0.28530  0.47010  0.38480  Biso   1.000  O
  O27      1.0000 0.35500  0.51710  0.48360  Biso   1.000  O
  O28      1.0000 0.18530  0.67610  0.24300  Biso   1.000  O
  O29      1.0000 0.22930  0.59210  0.22450  Biso   1.000  O
  O30      1.0000 0.10850  0.48890  0.20890  Biso   1.000  O
  O31      1.0000 0.28110  0.45570  0.22890  Biso   1.000  O
  O32      1.0000 0.26700  0.39930  0.13850  Biso   1.000  O
  O33      1.0000 0.30680  0.35880  0.25740  Biso   1.000  O
  O34      1.0000 0.24240  0.35820  0.29780  Biso   1.000  O
  O35      1.0000 0.09160  0.43250  0.12850  Biso   1.000  O
  O36      1.0000 0.18890  0.56480  0.10980  Biso   1.000  O
  O37      1.0000 0.11600  0.56540  0.15580  Biso   1.000  O
  O38      1.0000 0.38740  0.47060  0.31860  Biso   1.000  O
  O39      1.0000 0.42290  0.55240  0.29720  Biso   1.000  O
  O40      1.0000 0.25070  0.55130  0.40580  Biso   1.000  O
  O41      1.0000 0.36990  0.63750  0.26020  Biso   1.000  O
  O42      1.0000 0.08530  0.44800  0.28470  Biso   1.000  O
  O43      1.0000 0.26700  0.71910  0.33570  Biso   1.000  O
  O44      1.0000 0.12890  0.35410  0.10290  Biso   1.000  O
  O45      1.0000 0.10410  0.50510  0.07380  Biso   1.000  O
  O46      1.0000 0.34250  0.44980  0.12460  Biso   1.000  O
  O47      1.0000 0.21900  0.72240  0.40520  Biso   1.000  O
  O48      1.0000 0.42710  0.72200  0.26570  Biso   1.000  O
  O49      1.0000 0.45180  0.69120  0.35380  Biso   1.000  O
  O50      1.0000 0.24970  0.48940  0.11860  Biso   1.000  O
  O51      1.0000 0.41330  0.59830  0.37870  Biso   1.000  O
  O52      1.0000 0.19280  0.41520  0.33570  Biso   1.000  O
  N1       1.0000 0.34490  0.68820  0.15150  Biso   1.000  N
  H1       1.0000 0.37820  0.67850  0.15960  Biso   1.000  H
  H2       1.0000 0.32150  0.66380  0.13430  Biso   1.000  H
  N2       1.0000 0.00640  0.50620  0.30240  Biso   1.000  N
  H3       1.0000 0.98320  0.50200  0.31480  Biso   1.000  H
  H4       1.0000 0.04050  0.50810  0.33190  Biso   1.000  H
  N3       1.0000 0.32140  0.77060  0.18350  Biso   1.000  N
  H5       1.0000 0.29100  0.77970  0.18320  Biso   1.000  H
  H6       1.0000 0.34740  0.79250  0.20320  Biso   1.000  H
  N4       1.0000 0.37490  0.46150  0.58200  Biso   1.000  N
  H7       1.0000 0.39850  0.45180  0.57150  Biso   1.000  H
  H8       1.0000 0.39140  0.45950  0.61930  Biso   1.000  H
  N5       1.0000 0.46570  0.56880  0.50340  Biso   1.000  N
  H9       1.0000 0.45370  0.56020  0.52640  Biso   1.000  H
  H10      1.0000 0.46220  0.54350  0.48180  Biso   1.000  H
  N6       1.0000 0.49610  0.65590  0.47920  Biso   1.000  N
  H11      1.0000 0.49590  0.67000  0.45000  Biso   1.000  H
  H12      1.0000 0.50470  0.67810  0.50580  Biso   1.000  H
  N7       1.0000 0.11650  0.68640  0.30440  Biso   1.000  N
  H13      1.0000 0.10120  0.66650  0.27490  Biso   1.000  H
  H14      1.0000 0.11760  0.67140  0.33350  Biso   1.000  H
  N8       1.0000 0.15870  0.76960  0.29480  Biso   1.000  N
  H15      1.0000 0.17470  0.79090  0.32290  Biso   1.000  H
  H16      1.0000 0.16540  0.77910  0.26800  Biso   1.000  H
  N9       1.0000 0.27290  0.50060  0.51440  Biso   1.000  N
  H17      1.0000 0.25290  0.51140  0.52870  Biso   1.000  H
  H18      1.0000 0.25570  0.50830  0.47800  Biso   1.000  H
  C1       1.0000 0.26470  0.71460  0.44870  Biso   1.000  C
  C2       1.0000 0.27400  0.73790  0.50110  Biso   1.000  C
  H19      1.0000 0.30260  0.76160  0.51230  Biso   1.000  H
  H20      1.0000 0.28730  0.71360  0.53000  Biso   1.000  H
  C3       1.0000 0.31040  0.77010  0.12640  Biso   1.000  C
  H21      1.0000 0.27150  0.77300  0.10120  Biso   1.000  H
  H22      1.0000 0.32750  0.79810  0.12100  Biso   1.000  H
  C4       1.0000 0.52120  0.58340  0.53490  Biso   1.000  C
  H23      1.0000 0.54450  0.55530  0.54670  Biso   1.000  H
  H24      1.0000 0.52740  0.60040  0.56800  Biso   1.000  H
  C5       1.0000 0.46060  0.71230  0.31680  Biso   1.000  C
  C6       1.0000 0.09830  0.77120  0.27160  Biso   1.000  C
  H25      1.0000 0.08840  0.80030  0.28340  Biso   1.000  H
  H26      1.0000 0.07910  0.77060  0.23120  Biso   1.000  H
  C7       1.0000 0.08460  0.73130  0.29150  Biso   1.000  C
  H27      1.0000 0.04710  0.72330  0.26440  Biso   1.000  H
  H28      1.0000 0.08530  0.74100  0.32530  Biso   1.000  H
  C8       1.0000 0.31500  0.72350  0.05070  Biso   1.000  C
  H29      1.0000 0.27890  0.71030  0.02860  Biso   1.000  H
  H30      1.0000 0.34090  0.70170  0.05070  Biso   1.000  H
  H31      1.0000 0.31670  0.75370  0.03520  Biso   1.000  H
  C9       1.0000 0.99300  0.54960  0.26800  Biso   1.000  C
  H32      1.0000 0.95300  0.54700  0.24500  Biso   1.000  H
  C10      1.0000 0.00100  0.59990  0.27900  Biso   1.000  C
  H33      1.0000 0.03600  0.60870  0.31080  Biso   1.000  H
  H34      1.0000 0.97130  0.61680  0.27890  Biso   1.000  H
  C11      1.0000 0.27900  0.45220  0.52100  Biso   1.000  C
  H35      1.0000 0.27000  0.45400  0.55000  Biso   1.000  H
  C12      1.0000 0.23450  0.41690  0.49000  Biso   1.000  C
  H36      1.0000 0.24960  0.38520  0.49560  Biso   1.000  H
  H37      1.0000 0.21550  0.42440  0.45090  Biso   1.000  H
  H38      1.0000 0.20960  0.41820  0.50350  Biso   1.000  H
  C13      1.0000 0.32770  0.43280  0.55660  Biso   1.000  C
  H39      1.0000 0.33410  0.40720  0.53710  Biso   1.000  H
  H40      1.0000 0.32450  0.41800  0.58630  Biso   1.000  H
  C14      1.0000 0.32770  0.73120  0.11230  Biso   1.000  C
  H41      1.0000 0.36500  0.74300  0.12600  Biso   1.000  H
  C15      1.0000 0.53620  0.61580  0.50110  Biso   1.000  C
  H42      1.0000 0.52000  0.59600  0.46700  Biso   1.000  H
  C16      1.0000 0.58470  0.61850  0.50900  Biso   1.000  C
  H43      1.0000 0.58680  0.64530  0.48830  Biso   1.000  H
  H44      1.0000 0.59290  0.58940  0.49580  Biso   1.000  H
  H45      1.0000 0.61050  0.62270  0.54770  Biso   1.000  H
  C17      1.0000 0.51900  0.72590  0.33300  Biso   1.000  C
  H46      1.0000 0.51890  0.75760  0.31930  Biso   1.000  H
  H47      1.0000 0.53220  0.70330  0.31670  Biso   1.000  H
  H48      1.0000 0.54170  0.72540  0.37270  Biso   1.000  H
  W16      1.0000 0.64493  0.12793  0.19992  Biso   1.000  W
  W17      1.0000 0.72764  0.12804  0.14688  Biso   1.000  W
  W18      1.0000 0.69343  0.07842  0.33850  Biso   1.000  W
  W19      1.0000 0.76763  0.91135  0.35364  Biso   1.000  W
  W20      1.0000 0.86485  0.07968  0.22854  Biso   1.000  W
  W21      1.0000 0.85895  0.91194  0.29547  Biso   1.000  W
  W22      1.0000 0.91043  0.03648  0.35685  Biso   1.000  W
  W23      1.0000 0.64141  0.95450  0.27700  Biso   1.000  W
  W24      1.0000 0.82045  0.03570  0.41408  Biso   1.000  W
  W25      1.0000 0.81551  0.95545  0.16746  Biso   1.000  W
  W26      1.0000 0.59327  0.00417  0.13620  Biso   1.000  W
  W27      1.0000 0.61230  0.87155  0.16000  Biso   1.000  W
  W28      1.0000 0.69790  0.87127  0.10803  Biso   1.000  W
  W29      1.0000 0.67564  0.00341  0.08420  Biso   1.000  W
  W30      1.0000 0.74136  0.82862  0.23843  Biso   1.000  W
  Ni8      1.0000 0.92111  0.12610  0.45475  Biso   1.000  Ni
  Ni9      1.0000 0.69318  0.20465  0.32315  Biso   1.000  Ni
  Ni10     1.0000 0.84977  0.03122  0.55584  Biso   1.000  Ni
  Ni11     1.0000 0.76293  0.20084  0.26481  Biso   1.000  Ni
  Ni12     1.0000 0.88018  0.16170  0.33446  Biso   1.000  Ni
  Ni13     1.0000 0.80331  0.16168  0.38333  Biso   1.000  Ni
  Ni14     1.0000 0.84620  0.20489  0.22319  Biso   1.000  Ni
  P3       1.0000 0.77889  0.08552  0.28321  Biso   1.000  P
  P4       1.0000 0.72292  0.95127  0.21584  Biso   1.000  P
  O53      1.0000 0.83980  0.09810  0.42290  Biso   1.000  O
  O54      1.0000 0.84720  0.01090  0.20330  Biso   1.000  O
  O55      1.0000 0.66980  0.01010  0.31500  Biso   1.000  O
  O56      1.0000 0.66860  0.93200  0.07950  Biso   1.000  O
  O57      1.0000 0.87970  0.18000  0.40400  Biso   1.000  O
  O58      1.0000 0.76310  0.17620  0.19470  Biso   1.000  O
  O59      1.0000 0.80000  0.13620  0.30950  Biso   1.000  O
  O60      1.0000 0.66320  0.82120  0.20340  Biso   1.000  O
  O61      1.0000 0.62410  0.89820  0.22740  Biso   1.000  O
  O62      1.0000 0.76280  0.77060  0.26440  Biso   1.000  O
  O63      1.0000 0.71930  0.95570  0.26810  Biso   1.000  O
  O64      1.0000 0.65110  0.09120  0.26000  Biso   1.000  O
  O65      1.0000 0.68530  0.98900  0.17070  Biso   1.000  O
  O66      1.0000 0.84040  0.21950  0.29020  Biso   1.000  O
  O67      1.0000 0.70210  0.90060  0.19130  Biso   1.000  O
  O68      1.0000 0.72870  0.82120  0.16330  Biso   1.000  O
  O69      1.0000 0.76320  0.05760  0.32130  Biso   1.000  O
  O70      1.0000 0.72540  0.13590  0.35190  Biso   1.000  O
  O71      1.0000 0.65930  0.14300  0.14120  Biso   1.000  O
  O72      1.0000 0.82460  0.05850  0.28000  Biso   1.000  O
  O73      1.0000 0.86870  0.01720  0.39130  Biso   1.000  O
  O74      1.0000 0.82610  0.91330  0.33970  Biso   1.000  O
  O75      1.0000 0.86380  0.91700  0.22900  Biso   1.000  O
  O76      1.0000 0.80320  0.19160  0.44980  Biso   1.000  O
  O77      1.0000 0.79230  0.09050  0.17120  Biso   1.000  O
  O78      1.0000 0.78530  0.97010  0.38480  Biso   1.000  O
  O79      1.0000 0.85500  0.01710  0.48360  Biso   1.000  O
  O80      1.0000 0.68530  0.17610  0.24300  Biso   1.000  O
  O81      1.0000 0.72930  0.09210  0.22450  Biso   1.000  O
  O82      1.0000 0.60850  0.98890  0.20890  Biso   1.000  O
  O83      1.0000 0.78110  0.95570  0.22890  Biso   1.000  O
  O84      1.0000 0.76700  0.89930  0.13850  Biso   1.000  O
  O85      1.0000 0.80680  0.85880  0.25740  Biso   1.000  O
  O86      1.0000 0.74240  0.85820  0.29780  Biso   1.000  O
  O87      1.0000 0.59160  0.93250  0.12850  Biso   1.000  O
  O88      1.0000 0.68890  0.06480  0.10980  Biso   1.000  O
  O89      1.0000 0.61600  0.06540  0.15580  Biso   1.000  O
  O90      1.0000 0.88740  0.97060  0.31860  Biso   1.000  O
  O91      1.0000 0.92290  0.05240  0.29720  Biso   1.000  O
  O92      1.0000 0.75070  0.05130  0.40580  Biso   1.000  O
  O93      1.0000 0.86990  0.13750  0.26020  Biso   1.000  O
  O94      1.0000 0.58530  0.94800  0.28470  Biso   1.000  O
  O95      1.0000 0.76700  0.21910  0.33570  Biso   1.000  O
  O96      1.0000 0.62890  0.85410  0.10290  Biso   1.000  O
  O97      1.0000 0.60410  0.00510  0.07380  Biso   1.000  O
  O98      1.0000 0.84250  0.94980  0.12460  Biso   1.000  O
  O99      1.0000 0.71900  0.22240  0.40520  Biso   1.000  O
  O100     1.0000 0.92710  0.22200  0.26570  Biso   1.000  O
  O101     1.0000 0.95180  0.19120  0.35380  Biso   1.000  O
  O102     1.0000 0.74970  0.98940  0.11860  Biso   1.000  O
  O103     1.0000 0.91330  0.09830  0.37870  Biso   1.000  O
  O104     1.0000 0.69280  0.91520  0.33570  Biso   1.000  O
  N10      1.0000 0.84490  0.18820  0.15150  Biso   1.000  N
  H49      1.0000 0.87820  0.17850  0.15960  Biso   1.000  H
  H50      1.0000 0.82150  0.16380  0.13430  Biso   1.000  H
  N11      1.0000 0.50640  0.00620  0.30240  Biso   1.000  N
  H51      1.0000 0.48320  0.00200  0.31480  Biso   1.000  H
  H52      1.0000 0.54050  0.00810  0.33190  Biso   1.000  H
  N12      1.0000 0.82140  0.27060  0.18350  Biso   1.000  N
  H53      1.0000 0.79100  0.27970  0.18320  Biso   1.000  H
  H54      1.0000 0.84740  0.29250  0.20320  Biso   1.000  H
  N13      1.0000 0.87490  0.96150  0.58200  Biso   1.000  N
  H55      1.0000 0.89850  0.95180  0.57150  Biso   1.000  H
  H56      1.0000 0.89140  0.95950  0.61930  Biso   1.000  H
  N14      1.0000 0.96570  0.06880  0.50340  Biso   1.000  N
  H57      1.0000 0.95370  0.06020  0.52640  Biso   1.000  H
  H58      1.0000 0.96220  0.04350  0.48180  Biso   1.000  H
  N15      1.0000 0.99610  0.15590  0.47920  Biso   1.000  N
  H59      1.0000 0.99590  0.17000  0.45000  Biso   1.000  H
  H60      1.0000 0.00470  0.17810  0.50580  Biso   1.000  H
  N16      1.0000 0.61650  0.18640  0.30440  Biso   1.000  N
  H61      1.0000 0.60120  0.16650  0.27490  Biso   1.000  H
  H62      1.0000 0.61760  0.17140  0.33350  Biso   1.000  H
  N17      1.0000 0.65870  0.26960  0.29480  Biso   1.000  N
  H63      1.0000 0.67470  0.29090  0.32290  Biso   1.000  H
  H64      1.0000 0.66540  0.27910  0.26800  Biso   1.000  H
  N18      1.0000 0.77290  0.00060  0.51440  Biso   1.000  N
  H65      1.0000 0.75290  0.01140  0.52870  Biso   1.000  H
  H66      1.0000 0.75570  0.00830  0.47800  Biso   1.000  H
  C18      1.0000 0.76470  0.21460  0.44870  Biso   1.000  C
  C19      1.0000 0.77400  0.23790  0.50110  Biso   1.000  C
  H67      1.0000 0.80260  0.26160  0.51230  Biso   1.000  H
  H68      1.0000 0.78730  0.21360  0.53000  Biso   1.000  H
  C20      1.0000 0.81040  0.27010  0.12640  Biso   1.000  C
  H69      1.0000 0.77150  0.27300  0.10120  Biso   1.000  H
  H70      1.0000 0.82750  0.29810  0.12100  Biso   1.000  H
  C21      1.0000 0.02120  0.08340  0.53490  Biso   1.000  C
  H71      1.0000 0.04450  0.05530  0.54670  Biso   1.000  H
  H72      1.0000 0.02740  0.10040  0.56800  Biso   1.000  H
  C22      1.0000 0.96060  0.21230  0.31680  Biso   1.000  C
  C23      1.0000 0.59830  0.27120  0.27160  Biso   1.000  C
  H73      1.0000 0.58840  0.30030  0.28340  Biso   1.000  H
  H74      1.0000 0.57910  0.27060  0.23120  Biso   1.000  H
  C24      1.0000 0.58460  0.23130  0.29150  Biso   1.000  C
  H75      1.0000 0.54710  0.22330  0.26440  Biso   1.000  H
  H76      1.0000 0.58530  0.24100  0.32530  Biso   1.000  H
  C25      1.0000 0.81500  0.22350  0.05070  Biso   1.000  C
  H77      1.0000 0.77890  0.21030  0.02860  Biso   1.000  H
  H78      1.0000 0.84090  0.20170  0.05070  Biso   1.000  H
  H79      1.0000 0.81670  0.25370  0.03520  Biso   1.000  H
  C26      1.0000 0.49300  0.04960  0.26800  Biso   1.000  C
  H80      1.0000 0.45300  0.04700  0.24500  Biso   1.000  H
  C27      1.0000 0.50100  0.09990  0.27900  Biso   1.000  C
  H81      1.0000 0.53600  0.10870  0.31080  Biso   1.000  H
  H82      1.0000 0.47130  0.11680  0.27890  Biso   1.000  H
  C28      1.0000 0.77900  0.95220  0.52100  Biso   1.000  C
  H83      1.0000 0.77000  0.95400  0.55000  Biso   1.000  H
  C29      1.0000 0.73450  0.91690  0.49000  Biso   1.000  C
  H84      1.0000 0.74960  0.88520  0.49560  Biso   1.000  H
  H85      1.0000 0.71550  0.92440  0.45090  Biso   1.000  H
  H86      1.0000 0.70960  0.91820  0.50350  Biso   1.000  H
  C30      1.0000 0.82770  0.93280  0.55660  Biso   1.000  C
  H87      1.0000 0.83410  0.90720  0.53710  Biso   1.000  H
  H88      1.0000 0.82450  0.91800  0.58630  Biso   1.000  H
  C31      1.0000 0.82770  0.23120  0.11230  Biso   1.000  C
  H89      1.0000 0.86500  0.24300  0.12600  Biso   1.000  H
  C32      1.0000 0.03620  0.11580  0.50110  Biso   1.000  C
  H90      1.0000 0.02000  0.09600  0.46700  Biso   1.000  H
  C33      1.0000 0.08470  0.11850  0.50900  Biso   1.000  C
  H91      1.0000 0.08680  0.14530  0.48830  Biso   1.000  H
  H92      1.0000 0.09290  0.08940  0.49580  Biso   1.000  H
  H93      1.0000 0.11050  0.12270  0.54770  Biso   1.000  H
  C34      1.0000 0.01900  0.22590  0.33300  Biso   1.000  C
  H94      1.0000 0.01890  0.25760  0.31930  Biso   1.000  H
  H95      1.0000 0.03220  0.20330  0.31670  Biso   1.000  H
  H96      1.0000 0.04170  0.22540  0.37270  Biso   1.000  H
  W31      1.0000 0.85507  0.62793  0.30008  Biso   1.000  W
  W32      1.0000 0.77236  0.62804  0.35312  Biso   1.000  W
  W33      1.0000 0.80657  0.57842  0.16150  Biso   1.000  W
  W34      1.0000 0.73237  0.41135  0.14636  Biso   1.000  W
  W35      1.0000 0.63515  0.57968  0.27146  Biso   1.000  W
  W36      1.0000 0.64105  0.41194  0.20453  Biso   1.000  W
  W37      1.0000 0.58957  0.53648  0.14315  Biso   1.000  W
  W38      1.0000 0.85859  0.45450  0.22300  Biso   1.000  W
  W39      1.0000 0.67955  0.53570  0.08592  Biso   1.000  W
  W40      1.0000 0.68449  0.45545  0.33254  Biso   1.000  W
  W41      1.0000 0.90673  0.50417  0.36380  Biso   1.000  W
  W42      1.0000 0.88770  0.37155  0.34000  Biso   1.000  W
  W43      1.0000 0.80210  0.37127  0.39197  Biso   1.000  W
  W44      1.0000 0.82436  0.50341  0.41580  Biso   1.000  W
  W45      1.0000 0.75864  0.32862  0.26157  Biso   1.000  W
  Ni15     1.0000 0.57889  0.62610  0.04525  Biso   1.000  Ni
  Ni16     1.0000 0.80682  0.70465  0.17685  Biso   1.000  Ni
  Ni17     1.0000 0.65023  0.53122  0.94416  Biso   1.000  Ni
  Ni18     1.0000 0.73707  0.70084  0.23519  Biso   1.000  Ni
  Ni19     1.0000 0.61982  0.66170  0.16554  Biso   1.000  Ni
  Ni20     1.0000 0.69669  0.66168  0.11667  Biso   1.000  Ni
  Ni21     1.0000 0.65380  0.70489  0.27681  Biso   1.000  Ni
  P5       1.0000 0.72111  0.58552  0.21679  Biso   1.000  P
  P6       1.0000 0.77708  0.45127  0.28416  Biso   1.000  P
  O105     1.0000 0.66020  0.59810  0.07710  Biso   1.000  O
  O106     1.0000 0.65280  0.51090  0.29670  Biso   1.000  O
  O107     1.0000 0.83020  0.51010  0.18500  Biso   1.000  O
  O108     1.0000 0.83140  0.43200  0.42050  Biso   1.000  O
  O109     1.0000 0.62030  0.68000  0.09600  Biso   1.000  O
  O110     1.0000 0.73690  0.67620  0.30530  Biso   1.000  O
  O111     1.0000 0.70000  0.63620  0.19050  Biso   1.000  O
  O112     1.0000 0.83680  0.32120  0.29660  Biso   1.000  O
  O113     1.0000 0.87590  0.39820  0.27260  Biso   1.000  O
  O114     1.0000 0.73720  0.27060  0.23560  Biso   1.000  O
  O115     1.0000 0.78070  0.45570  0.23190  Biso   1.000  O
  O116     1.0000 0.84890  0.59120  0.24000  Biso   1.000  O
  O117     1.0000 0.81470  0.48900  0.32930  Biso   1.000  O
  O118     1.0000 0.65960  0.71950  0.20980  Biso   1.000  O
  O119     1.0000 0.79790  0.40060  0.30870  Biso   1.000  O
  O120     1.0000 0.77130  0.32120  0.33670  Biso   1.000  O
  O121     1.0000 0.73680  0.55760  0.17870  Biso   1.000  O
  O122     1.0000 0.77460  0.63590  0.14810  Biso   1.000  O
  O123     1.0000 0.84070  0.64300  0.35880  Biso   1.000  O
  O124     1.0000 0.67540  0.55850  0.22000  Biso   1.000  O
  O125     1.0000 0.63130  0.51720  0.10870  Biso   1.000  O
  O126     1.0000 0.67390  0.41330  0.16030  Biso   1.000  O
  O127     1.0000 0.63620  0.41700  0.27100  Biso   1.000  O
  O128     1.0000 0.69680  0.69160  0.05020  Biso   1.000  O
  O129     1.0000 0.70770  0.59050  0.32880  Biso   1.000  O
  O130     1.0000 0.71470  0.47010  0.11520  Biso   1.000  O
  O131     1.0000 0.64500  0.51710  0.01640  Biso   1.000  O
  O132     1.0000 0.81470  0.67610  0.25700  Biso   1.000  O
  O133     1.0000 0.77070  0.59210  0.27550  Biso   1.000  O
  O134     1.0000 0.89150  0.48890  0.29110  Biso   1.000  O
  O135     1.0000 0.71890  0.45570  0.27110  Biso   1.000  O
  O136     1.0000 0.73300  0.39930  0.36150  Biso   1.000  O
  O137     1.0000 0.69320  0.35880  0.24260  Biso   1.000  O
  O138     1.0000 0.75760  0.35820  0.20220  Biso   1.000  O
  O139     1.0000 0.90840  0.43250  0.37150  Biso   1.000  O
  O140     1.0000 0.81110  0.56480  0.39020  Biso   1.000  O
  O141     1.0000 0.88400  0.56540  0.34420  Biso   1.000  O
  O142     1.0000 0.61260  0.47060  0.18140  Biso   1.000  O
  O143     1.0000 0.57710  0.55240  0.20280  Biso   1.000  O
  O144     1.0000 0.74930  0.55130  0.09420  Biso   1.000  O
  O145     1.0000 0.63010  0.63750  0.23980  Biso   1.000  O
  O146     1.0000 0.91470  0.44800  0.21530  Biso   1.000  O
  O147     1.0000 0.73300  0.71910  0.16430  Biso   1.000  O
  O148     1.0000 0.87110  0.35410  0.39710  Biso   1.000  O
  O149     1.0000 0.89590  0.50510  0.42620  Biso   1.000  O
  O150     1.0000 0.65750  0.44980  0.37540  Biso   1.000  O
  O151     1.0000 0.78100  0.72240  0.09480  Biso   1.000  O
  O152     1.0000 0.57290  0.72200  0.23430  Biso   1.000  O
  O153     1.0000 0.54820  0.69120  0.14620  Biso   1.000  O
  O154     1.0000 0.75030  0.48940  0.38140  Biso   1.000  O
  O155     1.0000 0.58670  0.59830  0.12130  Biso   1.000  O
  O156     1.0000 0.80720  0.41520  0.16430  Biso   1.000  O
  N19      1.0000 0.65510  0.68820  0.34850  Biso   1.000  N
  H97      1.0000 0.62180  0.67850  0.34040  Biso   1.000  H
  H98      1.0000 0.67850  0.66380  0.36570  Biso   1.000  H
  N20      1.0000 0.99360  0.50620  0.19760  Biso   1.000  N
  H99      1.0000 0.01680  0.50200  0.18520  Biso   1.000  H
  H100     1.0000 0.95950  0.50810  0.16810  Biso   1.000  H
  N21      1.0000 0.67860  0.77060  0.31650  Biso   1.000  N
  H101     1.0000 0.70900  0.77970  0.31680  Biso   1.000  H
  H102     1.0000 0.65260  0.79250  0.29680  Biso   1.000  H
  N22      1.0000 0.62510  0.46150  0.91800  Biso   1.000  N
  H103     1.0000 0.60150  0.45180  0.92850  Biso   1.000  H
  H104     1.0000 0.60860  0.45950  0.88070  Biso   1.000  H
  N23      1.0000 0.53430  0.56880  0.99660  Biso   1.000  N
  H105     1.0000 0.54630  0.56020  0.97360  Biso   1.000  H
  H106     1.0000 0.53780  0.54350  0.01820  Biso   1.000  H
  N24      1.0000 0.50390  0.65590  0.02080  Biso   1.000  N
  H107     1.0000 0.50410  0.67000  0.05000  Biso   1.000  H
  H108     1.0000 0.49530  0.67810  0.99420  Biso   1.000  H
  N25      1.0000 0.88350  0.68640  0.19560  Biso   1.000  N
  H109     1.0000 0.89880  0.66650  0.22510  Biso   1.000  H
  H110     1.0000 0.88240  0.67140  0.16650  Biso   1.000  H
  N26      1.0000 0.84130  0.76960  0.20520  Biso   1.000  N
  H111     1.0000 0.82530  0.79090  0.17710  Biso   1.000  H
  H112     1.0000 0.83460  0.77910  0.23200  Biso   1.000  H
  N27      1.0000 0.72710  0.50060  0.98560  Biso   1.000  N
  H113     1.0000 0.74710  0.51140  0.97130  Biso   1.000  H
  H114     1.0000 0.74430  0.50830  0.02200  Biso   1.000  H
  C35      1.0000 0.73530  0.71460  0.05130  Biso   1.000  C
  C36      1.0000 0.72600  0.73790  0.99890  Biso   1.000  C
  H115     1.0000 0.69740  0.76160  0.98770  Biso   1.000  H
  H116     1.0000 0.71270  0.71360  0.97000  Biso   1.000  H
  C37      1.0000 0.68960  0.77010  0.37360  Biso   1.000  C
  H117     1.0000 0.72850  0.77300  0.39880  Biso   1.000  H
  H118     1.0000 0.67250  0.79810  0.37900  Biso   1.000  H
  C38      1.0000 0.47880  0.58340  0.96510  Biso   1.000  C
  H119     1.0000 0.45550  0.55530  0.95330  Biso   1.000  H
  H120     1.0000 0.47260  0.60040  0.93200  Biso   1.000  H
  C39      1.0000 0.53940  0.71230  0.18320  Biso   1.000  C
  C40      1.0000 0.90170  0.77120  0.22840  Biso   1.000  C
  H121     1.0000 0.91160  0.80030  0.21660  Biso   1.000  H
  H122     1.0000 0.92090  0.77060  0.26880  Biso   1.000  H
  C41      1.0000 0.91540  0.73130  0.20850  Biso   1.000  C
  H123     1.0000 0.95290  0.72330  0.23560  Biso   1.000  H
  H124     1.0000 0.91470  0.74100  0.17470  Biso   1.000  H
  C42      1.0000 0.68500  0.72350  0.44930  Biso   1.000  C
  H125     1.0000 0.72110  0.71030  0.47140  Biso   1.000  H
  H126     1.0000 0.65910  0.70170  0.44930  Biso   1.000  H
  H127     1.0000 0.68330  0.75370  0.46480  Biso   1.000  H
  C43      1.0000 0.00700  0.54960  0.23200  Biso   1.000  C
  H128     1.0000 0.04700  0.54700  0.25500  Biso   1.000  H
  C44      1.0000 0.99900  0.59990  0.22100  Biso   1.000  C
  H129     1.0000 0.96400  0.60870  0.18920  Biso   1.000  H
  H130     1.0000 0.02870  0.61680  0.22110  Biso   1.000  H
  C45      1.0000 0.72100  0.45220  0.97900  Biso   1.000  C
  H131     1.0000 0.73000  0.45400  0.95000  Biso   1.000  H
  C46      1.0000 0.76550  0.41690  0.01000  Biso   1.000  C
  H132     1.0000 0.75040  0.38520  0.00440  Biso   1.000  H
  H133     1.0000 0.78450  0.42440  0.04910  Biso   1.000  H
  H134     1.0000 0.79040  0.41820  0.99650  Biso   1.000  H
  C47      1.0000 0.67230  0.43280  0.94340  Biso   1.000  C
  H135     1.0000 0.66590  0.40720  0.96290  Biso   1.000  H
  H136     1.0000 0.67550  0.41800  0.91370  Biso   1.000  H
  C48      1.0000 0.67230  0.73120  0.38770  Biso   1.000  C
  H137     1.0000 0.63500  0.74300  0.37400  Biso   1.000  H
  C49      1.0000 0.46380  0.61580  0.99890  Biso   1.000  C
  H138     1.0000 0.48000  0.59600  0.03300  Biso   1.000  H
  C50      1.0000 0.41530  0.61850  0.99100  Biso   1.000  C
  H139     1.0000 0.41320  0.64530  0.01170  Biso   1.000  H
  H140     1.0000 0.40710  0.58940  0.00420  Biso   1.000  H
  H141     1.0000 0.38950  0.62270  0.95230  Biso   1.000  H
  C51      1.0000 0.48100  0.72590  0.16700  Biso   1.000  C
  H142     1.0000 0.48110  0.75760  0.18070  Biso   1.000  H
  H143     1.0000 0.46780  0.70330  0.18330  Biso   1.000  H
  H144     1.0000 0.45830  0.72540  0.12730  Biso   1.000  H
  W46      1.0000 0.35507  0.12793  0.30008  Biso   1.000  W
  W47      1.0000 0.27236  0.12804  0.35312  Biso   1.000  W
  W48      1.0000 0.30657  0.07842  0.16150  Biso   1.000  W
  W49      1.0000 0.23237  0.91135  0.14636  Biso   1.000  W
  W50      1.0000 0.13515  0.07968  0.27146  Biso   1.000  W
  W51      1.0000 0.14105  0.91194  0.20453  Biso   1.000  W
  W52      1.0000 0.08957  0.03648  0.14315  Biso   1.000  W
  W53      1.0000 0.35859  0.95450  0.22300  Biso   1.000  W
  W54      1.0000 0.17955  0.03570  0.08592  Biso   1.000  W
  W55      1.0000 0.18449  0.95545  0.33254  Biso   1.000  W
  W56      1.0000 0.40673  0.00417  0.36380  Biso   1.000  W
  W57      1.0000 0.38770  0.87155  0.34000  Biso   1.000  W
  W58      1.0000 0.30210  0.87127  0.39197  Biso   1.000  W
  W59      1.0000 0.32436  0.00341  0.41580  Biso   1.000  W
  W60      1.0000 0.25864  0.82862  0.26157  Biso   1.000  W
  Ni22     1.0000 0.07889  0.12610  0.04525  Biso   1.000  Ni
  Ni23     1.0000 0.30682  0.20465  0.17685  Biso   1.000  Ni
  Ni24     1.0000 0.15023  0.03122  0.94416  Biso   1.000  Ni
  Ni25     1.0000 0.23707  0.20084  0.23519  Biso   1.000  Ni
  Ni26     1.0000 0.11982  0.16170  0.16554  Biso   1.000  Ni
  Ni27     1.0000 0.19669  0.16168  0.11667  Biso   1.000  Ni
  Ni28     1.0000 0.15380  0.20489  0.27681  Biso   1.000  Ni
  P7       1.0000 0.22111  0.08552  0.21679  Biso   1.000  P
  P8       1.0000 0.27708  0.95127  0.28416  Biso   1.000  P
  O157     1.0000 0.16020  0.09810  0.07710  Biso   1.000  O
  O158     1.0000 0.15280  0.01090  0.29670  Biso   1.000  O
  O159     1.0000 0.33020  0.01010  0.18500  Biso   1.000  O
  O160     1.0000 0.33140  0.93200  0.42050  Biso   1.000  O
  O161     1.0000 0.12030  0.18000  0.09600  Biso   1.000  O
  O162     1.0000 0.23690  0.17620  0.30530  Biso   1.000  O
  O163     1.0000 0.20000  0.13620  0.19050  Biso   1.000  O
  O164     1.0000 0.33680  0.82120  0.29660  Biso   1.000  O
  O165     1.0000 0.37590  0.89820  0.27260  Biso   1.000  O
  O166     1.0000 0.23720  0.77060  0.23560  Biso   1.000  O
  O167     1.0000 0.28070  0.95570  0.23190  Biso   1.000  O
  O168     1.0000 0.34890  0.09120  0.24000  Biso   1.000  O
  O169     1.0000 0.31470  0.98900  0.32930  Biso   1.000  O
  O170     1.0000 0.15960  0.21950  0.20980  Biso   1.000  O
  O171     1.0000 0.29790  0.90060  0.30870  Biso   1.000  O
  O172     1.0000 0.27130  0.82120  0.33670  Biso   1.000  O
  O173     1.0000 0.23680  0.05760  0.17870  Biso   1.000  O
  O174     1.0000 0.27460  0.13590  0.14810  Biso   1.000  O
  O175     1.0000 0.34070  0.14300  0.35880  Biso   1.000  O
  O176     1.0000 0.17540  0.05850  0.22000  Biso   1.000  O
  O177     1.0000 0.13130  0.01720  0.10870  Biso   1.000  O
  O178     1.0000 0.17390  0.91330  0.16030  Biso   1.000  O
  O179     1.0000 0.13620  0.91700  0.27100  Biso   1.000  O
  O180     1.0000 0.19680  0.19160  0.05020  Biso   1.000  O
  O181     1.0000 0.20770  0.09050  0.32880  Biso   1.000  O
  O182     1.0000 0.21470  0.97010  0.11520  Biso   1.000  O
  O183     1.0000 0.14500  0.01710  0.01640  Biso   1.000  O
  O184     1.0000 0.31470  0.17610  0.25700  Biso   1.000  O
  O185     1.0000 0.27070  0.09210  0.27550  Biso   1.000  O
  O186     1.0000 0.39150  0.98890  0.29110  Biso   1.000  O
  O187     1.0000 0.21890  0.95570  0.27110  Biso   1.000  O
  O188     1.0000 0.23300  0.89930  0.36150  Biso   1.000  O
  O189     1.0000 0.19320  0.85880  0.24260  Biso   1.000  O
  O190     1.0000 0.25760  0.85820  0.20220  Biso   1.000  O
  O191     1.0000 0.40840  0.93250  0.37150  Biso   1.000  O
  O192     1.0000 0.31110  0.06480  0.39020  Biso   1.000  O
  O193     1.0000 0.38400  0.06540  0.34420  Biso   1.000  O
  O194     1.0000 0.11260  0.97060  0.18140  Biso   1.000  O
  O195     1.0000 0.07710  0.05240  0.20280  Biso   1.000  O
  O196     1.0000 0.24930  0.05130  0.09420  Biso   1.000  O
  O197     1.0000 0.13010  0.13750  0.23980  Biso   1.000  O
  O198     1.0000 0.41470  0.94800  0.21530  Biso   1.000  O
  O199     1.0000 0.23300  0.21910  0.16430  Biso   1.000  O
  O200     1.0000 0.37110  0.85410  0.39710  Biso   1.000  O
  O201     1.0000 0.39590  0.00510  0.42620  Biso   1.000  O
  O202     1.0000 0.15750  0.94980  0.37540  Biso   1.000  O
  O203     1.0000 0.28100  0.22240  0.09480  Biso   1.000  O
  O204     1.0000 0.07290  0.22200  0.23430  Biso   1.000  O
  O205     1.0000 0.04820  0.19120  0.14620  Biso   1.000  O
  O206     1.0000 0.25030  0.98940  0.38140  Biso   1.000  O
  O207     1.0000 0.08670  0.09830  0.12130  Biso   1.000  O
  O208     1.0000 0.30720  0.91520  0.16430  Biso   1.000  O
  N28      1.0000 0.15510  0.18820  0.34850  Biso   1.000  N
  H145     1.0000 0.12180  0.17850  0.34040  Biso   1.000  H
  H146     1.0000 0.17850  0.16380  0.36570  Biso   1.000  H
  N29      1.0000 0.49360  0.00620  0.19760  Biso   1.000  N
  H147     1.0000 0.51680  0.00200  0.18520  Biso   1.000  H
  H148     1.0000 0.45950  0.00810  0.16810  Biso   1.000  H
  N30      1.0000 0.17860  0.27060  0.31650  Biso   1.000  N
  H149     1.0000 0.20900  0.27970  0.31680  Biso   1.000  H
  H150     1.0000 0.15260  0.29250  0.29680  Biso   1.000  H
  N31      1.0000 0.12510  0.96150  0.91800  Biso   1.000  N
  H151     1.0000 0.10150  0.95180  0.92850  Biso   1.000  H
  H152     1.0000 0.10860  0.95950  0.88070  Biso   1.000  H
  N32      1.0000 0.03430  0.06880  0.99660  Biso   1.000  N
  H153     1.0000 0.04630  0.06020  0.97360  Biso   1.000  H
  H154     1.0000 0.03780  0.04350  0.01820  Biso   1.000  H
  N33      1.0000 0.00390  0.15590  0.02080  Biso   1.000  N
  H155     1.0000 0.00410  0.17000  0.05000  Biso   1.000  H
  H156     1.0000 0.99530  0.17810  0.99420  Biso   1.000  H
  N34      1.0000 0.38350  0.18640  0.19560  Biso   1.000  N
  H157     1.0000 0.39880  0.16650  0.22510  Biso   1.000  H
  H158     1.0000 0.38240  0.17140  0.16650  Biso   1.000  H
  N35      1.0000 0.34130  0.26960  0.20520  Biso   1.000  N
  H159     1.0000 0.32530  0.29090  0.17710  Biso   1.000  H
  H160     1.0000 0.33460  0.27910  0.23200  Biso   1.000  H
  N36      1.0000 0.22710  0.00060  0.98560  Biso   1.000  N
  H161     1.0000 0.24710  0.01140  0.97130  Biso   1.000  H
  H162     1.0000 0.24430  0.00830  0.02200  Biso   1.000  H
  C52      1.0000 0.23530  0.21460  0.05130  Biso   1.000  C
  C53      1.0000 0.22600  0.23790  0.99890  Biso   1.000  C
  H163     1.0000 0.19740  0.26160  0.98770  Biso   1.000  H
  H164     1.0000 0.21270  0.21360  0.97000  Biso   1.000  H
  C54      1.0000 0.18960  0.27010  0.37360  Biso   1.000  C
  H165     1.0000 0.22850  0.27300  0.39880  Biso   1.000  H
  H166     1.0000 0.17250  0.29810  0.37900  Biso   1.000  H
  C55      1.0000 0.97880  0.08340  0.96510  Biso   1.000  C
  H167     1.0000 0.95550  0.05530  0.95330  Biso   1.000  H
  H168     1.0000 0.97260  0.10040  0.93200  Biso   1.000  H
  C56      1.0000 0.03940  0.21230  0.18320  Biso   1.000  C
  C57      1.0000 0.40170  0.27120  0.22840  Biso   1.000  C
  H169     1.0000 0.41160  0.30030  0.21660  Biso   1.000  H
  H170     1.0000 0.42090  0.27060  0.26880  Biso   1.000  H
  C58      1.0000 0.41540  0.23130  0.20850  Biso   1.000  C
  H171     1.0000 0.45290  0.22330  0.23560  Biso   1.000  H
  H172     1.0000 0.41470  0.24100  0.17470  Biso   1.000  H
  C59      1.0000 0.18500  0.22350  0.44930  Biso   1.000  C
  H173     1.0000 0.22110  0.21030  0.47140  Biso   1.000  H
  H174     1.0000 0.15910  0.20170  0.44930  Biso   1.000  H
  H175     1.0000 0.18330  0.25370  0.46480  Biso   1.000  H
  C60      1.0000 0.50700  0.04960  0.23200  Biso   1.000  C
  H176     1.0000 0.54700  0.04700  0.25500  Biso   1.000  H
  C61      1.0000 0.49900  0.09990  0.22100  Biso   1.000  C
  H177     1.0000 0.46400  0.10870  0.18920  Biso   1.000  H
  H178     1.0000 0.52870  0.11680  0.22110  Biso   1.000  H
  C62      1.0000 0.22100  0.95220  0.97900  Biso   1.000  C
  H179     1.0000 0.23000  0.95400  0.95000  Biso   1.000  H
  C63      1.0000 0.26550  0.91690  0.01000  Biso   1.000  C
  H180     1.0000 0.25040  0.88520  0.00440  Biso   1.000  H
  H181     1.0000 0.28450  0.92440  0.04910  Biso   1.000  H
  H182     1.0000 0.29040  0.91820  0.99650  Biso   1.000  H
  C64      1.0000 0.17230  0.93280  0.94340  Biso   1.000  C
  H183     1.0000 0.16590  0.90720  0.96290  Biso   1.000  H
  H184     1.0000 0.17550  0.91800  0.91370  Biso   1.000  H
  C65      1.0000 0.17230  0.23120  0.38770  Biso   1.000  C
  H185     1.0000 0.13500  0.24300  0.37400  Biso   1.000  H
  C66      1.0000 0.96380  0.11580  0.99890  Biso   1.000  C
  H186     1.0000 0.98000  0.09600  0.03300  Biso   1.000  H
  C67      1.0000 0.91530  0.11850  0.99100  Biso   1.000  C
  H187     1.0000 0.91320  0.14530  0.01170  Biso   1.000  H
  H188     1.0000 0.90710  0.08940  0.00420  Biso   1.000  H
  H189     1.0000 0.88950  0.12270  0.95230  Biso   1.000  H
  C68      1.0000 0.98100  0.22590  0.16700  Biso   1.000  C
  H190     1.0000 0.98110  0.25760  0.18070  Biso   1.000  H
  H191     1.0000 0.96780  0.20330  0.18330  Biso   1.000  H
  H192     1.0000 0.95830  0.22540  0.12730  Biso   1.000  H
  W61      1.0000 0.85507  0.37207  0.80008  Biso   1.000  W
  W62      1.0000 0.77236  0.37196  0.85312  Biso   1.000  W
  W63      1.0000 0.80657  0.42158  0.66150  Biso   1.000  W
  W64      1.0000 0.73237  0.58865  0.64636  Biso   1.000  W
  W65      1.0000 0.63515  0.42032  0.77146  Biso   1.000  W
  W66      1.0000 0.64105  0.58806  0.70453  Biso   1.000  W
  W67      1.0000 0.58957  0.46352  0.64315  Biso   1.000  W
  W68      1.0000 0.85859  0.54550  0.72300  Biso   1.000  W
  W69      1.0000 0.67955  0.46430  0.58592  Biso   1.000  W
  W70      1.0000 0.68449  0.54455  0.83254  Biso   1.000  W
  W71      1.0000 0.90673  0.49583  0.86380  Biso   1.000  W
  W72      1.0000 0.88770  0.62845  0.84000  Biso   1.000  W
  W73      1.0000 0.80210  0.62873  0.89197  Biso   1.000  W
  W74      1.0000 0.82436  0.49659  0.91580  Biso   1.000  W
  W75      1.0000 0.75864  0.67138  0.76157  Biso   1.000  W
  Ni29     1.0000 0.57889  0.37390  0.54525  Biso   1.000  Ni
  Ni30     1.0000 0.80682  0.29535  0.67685  Biso   1.000  Ni
  Ni31     1.0000 0.65023  0.46878  0.44416  Biso   1.000  Ni
  Ni32     1.0000 0.73707  0.29916  0.73519  Biso   1.000  Ni
  Ni33     1.0000 0.61982  0.33830  0.66554  Biso   1.000  Ni
  Ni34     1.0000 0.69669  0.33832  0.61667  Biso   1.000  Ni
  Ni35     1.0000 0.65380  0.29511  0.77681  Biso   1.000  Ni
  P9       1.0000 0.72111  0.41448  0.71679  Biso   1.000  P
  P10      1.0000 0.77708  0.54873  0.78416  Biso   1.000  P
  O209     1.0000 0.66020  0.40190  0.57710  Biso   1.000  O
  O210     1.0000 0.65280  0.48910  0.79670  Biso   1.000  O
  O211     1.0000 0.83020  0.48990  0.68500  Biso   1.000  O
  O212     1.0000 0.83140  0.56800  0.92050  Biso   1.000  O
  O213     1.0000 0.62030  0.32000  0.59600  Biso   1.000  O
  O214     1.0000 0.73690  0.32380  0.80530  Biso   1.000  O
  O215     1.0000 0.70000  0.36380  0.69050  Biso   1.000  O
  O216     1.0000 0.83680  0.67880  0.79660  Biso   1.000  O
  O217     1.0000 0.87590  0.60180  0.77260  Biso   1.000  O
  O218     1.0000 0.73720  0.72940  0.73560  Biso   1.000  O
  O219     1.0000 0.78070  0.54430  0.73190  Biso   1.000  O
  O220     1.0000 0.84890  0.40880  0.74000  Biso   1.000  O
  O221     1.0000 0.81470  0.51100  0.82930  Biso   1.000  O
  O222     1.0000 0.65960  0.28050  0.70980  Biso   1.000  O
  O223     1.0000 0.79790  0.59940  0.80870  Biso   1.000  O
  O224     1.0000 0.77130  0.67880  0.83670  Biso   1.000  O
  O225     1.0000 0.73680  0.44240  0.67870  Biso   1.000  O
  O226     1.0000 0.77460  0.36410  0.64810  Biso   1.000  O
  O227     1.0000 0.84070  0.35700  0.85880  Biso   1.000  O
  O228     1.0000 0.67540  0.44150  0.72000  Biso   1.000  O
  O229     1.0000 0.63130  0.48280  0.60870  Biso   1.000  O
  O230     1.0000 0.67390  0.58670  0.66030  Biso   1.000  O
  O231     1.0000 0.63620  0.58300  0.77100  Biso   1.000  O
  O232     1.0000 0.69680  0.30840  0.55020  Biso   1.000  O
  O233     1.0000 0.70770  0.40950  0.82880  Biso   1.000  O
  O234     1.0000 0.71470  0.52990  0.61520  Biso   1.000  O
  O235     1.0000 0.64500  0.48290  0.51640  Biso   1.000  O
  O236     1.0000 0.81470  0.32390  0.75700  Biso   1.000  O
  O237     1.0000 0.77070  0.40790  0.77550  Biso   1.000  O
  O238     1.0000 0.89150  0.51110  0.79110  Biso   1.000  O
  O239     1.0000 0.71890  0.54430  0.77110  Biso   1.000  O
  O240     1.0000 0.73300  0.60070  0.86150  Biso   1.000  O
  O241     1.0000 0.69320  0.64120  0.74260  Biso   1.000  O
  O242     1.0000 0.75760  0.64180  0.70220  Biso   1.000  O
  O243     1.0000 0.90840  0.56750  0.87150  Biso   1.000  O
  O244     1.0000 0.81110  0.43520  0.89020  Biso   1.000  O
  O245     1.0000 0.88400  0.43460  0.84420  Biso   1.000  O
  O246     1.0000 0.61260  0.52940  0.68140  Biso   1.000  O
  O247     1.0000 0.57710  0.44760  0.70280  Biso   1.000  O
  O248     1.0000 0.74930  0.44870  0.59420  Biso   1.000  O
  O249     1.0000 0.63010  0.36250  0.73980  Biso   1.000  O
  O250     1.0000 0.91470  0.55200  0.71530  Biso   1.000  O
  O251     1.0000 0.73300  0.28090  0.66430  Biso   1.000  O
  O252     1.0000 0.87110  0.64590  0.89710  Biso   1.000  O
  O253     1.0000 0.89590  0.49490  0.92620  Biso   1.000  O
  O254     1.0000 0.65750  0.55020  0.87540  Biso   1.000  O
  O255     1.0000 0.78100  0.27760  0.59480  Biso   1.000  O
  O256     1.0000 0.57290  0.27800  0.73430  Biso   1.000  O
  O257     1.0000 0.54820  0.30880  0.64620  Biso   1.000  O
  O258     1.0000 0.75030  0.51060  0.88140  Biso   1.000  O
  O259     1.0000 0.58670  0.40170  0.62130  Biso   1.000  O
  O260     1.0000 0.80720  0.58480  0.66430  Biso   1.000  O
  N37      1.0000 0.65510  0.31180  0.84850  Biso   1.000  N
  H193     1.0000 0.62180  0.32150  0.84040  Biso   1.000  H
  H194     1.0000 0.67850  0.33620  0.86570  Biso   1.000  H
  N38      1.0000 0.99360  0.49380  0.69760  Biso   1.000  N
  H195     1.0000 0.01680  0.49800  0.68520  Biso   1.000  H
  H196     1.0000 0.95950  0.49190  0.66810  Biso   1.000  H
  N39      1.0000 0.67860  0.22940  0.81650  Biso   1.000  N
  H197     1.0000 0.70900  0.22030  0.81680  Biso   1.000  H
  H198     1.0000 0.65260  0.20750  0.79680  Biso   1.000  H
  N40      1.0000 0.62510  0.53850  0.41800  Biso   1.000  N
  H199     1.0000 0.60150  0.54820  0.42850  Biso   1.000  H
  H200     1.0000 0.60860  0.54050  0.38070  Biso   1.000  H
  N41      1.0000 0.53430  0.43120  0.49660  Biso   1.000  N
  H201     1.0000 0.54630  0.43980  0.47360  Biso   1.000  H
  H202     1.0000 0.53780  0.45650  0.51820  Biso   1.000  H
  N42      1.0000 0.50390  0.34410  0.52080  Biso   1.000  N
  H203     1.0000 0.50410  0.33000  0.55000  Biso   1.000  H
  H204     1.0000 0.49530  0.32190  0.49420  Biso   1.000  H
  N43      1.0000 0.88350  0.31360  0.69560  Biso   1.000  N
  H205     1.0000 0.89880  0.33350  0.72510  Biso   1.000  H
  H206     1.0000 0.88240  0.32860  0.66650  Biso   1.000  H
  N44      1.0000 0.84130  0.23040  0.70520  Biso   1.000  N
  H207     1.0000 0.82530  0.20910  0.67710  Biso   1.000  H
  H208     1.0000 0.83460  0.22090  0.73200  Biso   1.000  H
  N45      1.0000 0.72710  0.49940  0.48560  Biso   1.000  N
  H209     1.0000 0.74710  0.48860  0.47130  Biso   1.000  H
  H210     1.0000 0.74430  0.49170  0.52200  Biso   1.000  H
  C69      1.0000 0.73530  0.28540  0.55130  Biso   1.000  C
  C70      1.0000 0.72600  0.26210  0.49890  Biso   1.000  C
  H211     1.0000 0.69740  0.23840  0.48770  Biso   1.000  H
  H212     1.0000 0.71270  0.28640  0.47000  Biso   1.000  H
  C71      1.0000 0.68960  0.22990  0.87360  Biso   1.000  C
  H213     1.0000 0.72850  0.22700  0.89880  Biso   1.000  H
  H214     1.0000 0.67250  0.20190  0.87900  Biso   1.000  H
  C72      1.0000 0.47880  0.41660  0.46510  Biso   1.000  C
  H215     1.0000 0.45550  0.44470  0.45330  Biso   1.000  H
  H216     1.0000 0.47260  0.39960  0.43200  Biso   1.000  H
  C73      1.0000 0.53940  0.28770  0.68320  Biso   1.000  C
  C74      1.0000 0.90170  0.22880  0.72840  Biso   1.000  C
  H217     1.0000 0.91160  0.19970  0.71660  Biso   1.000  H
  H218     1.0000 0.92090  0.22940  0.76880  Biso   1.000  H
  C75      1.0000 0.91540  0.26870  0.70850  Biso   1.000  C
  H219     1.0000 0.95290  0.27670  0.73560  Biso   1.000  H
  H220     1.0000 0.91470  0.25900  0.67470  Biso   1.000  H
  C76      1.0000 0.68500  0.27650  0.94930  Biso   1.000  C
  H221     1.0000 0.72110  0.28970  0.97140  Biso   1.000  H
  H222     1.0000 0.65910  0.29830  0.94930  Biso   1.000  H
  H223     1.0000 0.68330  0.24630  0.96480  Biso   1.000  H
  C77      1.0000 0.00700  0.45040  0.73200  Biso   1.000  C
  H224     1.0000 0.04700  0.45300  0.75500  Biso   1.000  H
  C78      1.0000 0.99900  0.40010  0.72100  Biso   1.000  C
  H225     1.0000 0.96400  0.39130  0.68920  Biso   1.000  H
  H226     1.0000 0.02870  0.38320  0.72110  Biso   1.000  H
  C79      1.0000 0.72100  0.54780  0.47900  Biso   1.000  C
  H227     1.0000 0.73000  0.54600  0.45000  Biso   1.000  H
  C80      1.0000 0.76550  0.58310  0.51000  Biso   1.000  C
  H228     1.0000 0.75040  0.61480  0.50440  Biso   1.000  H
  H229     1.0000 0.78450  0.57560  0.54910  Biso   1.000  H
  H230     1.0000 0.79040  0.58180  0.49650  Biso   1.000  H
  C81      1.0000 0.67230  0.56720  0.44340  Biso   1.000  C
  H231     1.0000 0.66590  0.59280  0.46290  Biso   1.000  H
  H232     1.0000 0.67550  0.58200  0.41370  Biso   1.000  H
  C82      1.0000 0.67230  0.26880  0.88770  Biso   1.000  C
  H233     1.0000 0.63500  0.25700  0.87400  Biso   1.000  H
  C83      1.0000 0.46380  0.38420  0.49890  Biso   1.000  C
  H234     1.0000 0.48000  0.40400  0.53300  Biso   1.000  H
  C84      1.0000 0.41530  0.38150  0.49100  Biso   1.000  C
  H235     1.0000 0.41320  0.35470  0.51170  Biso   1.000  H
  H236     1.0000 0.40710  0.41060  0.50420  Biso   1.000  H
  H237     1.0000 0.38950  0.37730  0.45230  Biso   1.000  H
  C85      1.0000 0.48100  0.27410  0.66700  Biso   1.000  C
  H238     1.0000 0.48110  0.24240  0.68070  Biso   1.000  H
  H239     1.0000 0.46780  0.29670  0.68330  Biso   1.000  H
  H240     1.0000 0.45830  0.27460  0.62730  Biso   1.000  H
  W76      1.0000 0.35507  0.87207  0.80008  Biso   1.000  W
  W77      1.0000 0.27236  0.87196  0.85312  Biso   1.000  W
  W78      1.0000 0.30657  0.92158  0.66150  Biso   1.000  W
  W79      1.0000 0.23237  0.08865  0.64636  Biso   1.000  W
  W80      1.0000 0.13515  0.92032  0.77146  Biso   1.000  W
  W81      1.0000 0.14105  0.08806  0.70453  Biso   1.000  W
  W82      1.0000 0.08957  0.96352  0.64315  Biso   1.000  W
  W83      1.0000 0.35859  0.04550  0.72300  Biso   1.000  W
  W84      1.0000 0.17955  0.96430  0.58592  Biso   1.000  W
  W85      1.0000 0.18449  0.04455  0.83254  Biso   1.000  W
  W86      1.0000 0.40673  0.99583  0.86380  Biso   1.000  W
  W87      1.0000 0.38770  0.12845  0.84000  Biso   1.000  W
  W88      1.0000 0.30210  0.12873  0.89197  Biso   1.000  W
  W89      1.0000 0.32436  0.99659  0.91580  Biso   1.000  W
  W90      1.0000 0.25864  0.17138  0.76157  Biso   1.000  W
  Ni36     1.0000 0.07889  0.87390  0.54525  Biso   1.000  Ni
  Ni37     1.0000 0.30682  0.79535  0.67685  Biso   1.000  Ni
  Ni38     1.0000 0.15023  0.96878  0.44416  Biso   1.000  Ni
  Ni39     1.0000 0.23707  0.79916  0.73519  Biso   1.000  Ni
  Ni40     1.0000 0.11982  0.83830  0.66554  Biso   1.000  Ni
  Ni41     1.0000 0.19669  0.83832  0.61667  Biso   1.000  Ni
  Ni42     1.0000 0.15380  0.79511  0.77681  Biso   1.000  Ni
  P11      1.0000 0.22111  0.91448  0.71679  Biso   1.000  P
  P12      1.0000 0.27708  0.04873  0.78416  Biso   1.000  P
  O261     1.0000 0.16020  0.90190  0.57710  Biso   1.000  O
  O262     1.0000 0.15280  0.98910  0.79670  Biso   1.000  O
  O263     1.0000 0.33020  0.98990  0.68500  Biso   1.000  O
  O264     1.0000 0.33140  0.06800  0.92050  Biso   1.000  O
  O265     1.0000 0.12030  0.82000  0.59600  Biso   1.000  O
  O266     1.0000 0.23690  0.82380  0.80530  Biso   1.000  O
  O267     1.0000 0.20000  0.86380  0.69050  Biso   1.000  O
  O268     1.0000 0.33680  0.17880  0.79660  Biso   1.000  O
  O269     1.0000 0.37590  0.10180  0.77260  Biso   1.000  O
  O270     1.0000 0.23720  0.22940  0.73560  Biso   1.000  O
  O271     1.0000 0.28070  0.04430  0.73190  Biso   1.000  O
  O272     1.0000 0.34890  0.90880  0.74000  Biso   1.000  O
  O273     1.0000 0.31470  0.01100  0.82930  Biso   1.000  O
  O274     1.0000 0.15960  0.78050  0.70980  Biso   1.000  O
  O275     1.0000 0.29790  0.09940  0.80870  Biso   1.000  O
  O276     1.0000 0.27130  0.17880  0.83670  Biso   1.000  O
  O277     1.0000 0.23680  0.94240  0.67870  Biso   1.000  O
  O278     1.0000 0.27460  0.86410  0.64810  Biso   1.000  O
  O279     1.0000 0.34070  0.85700  0.85880  Biso   1.000  O
  O280     1.0000 0.17540  0.94150  0.72000  Biso   1.000  O
  O281     1.0000 0.13130  0.98280  0.60870  Biso   1.000  O
  O282     1.0000 0.17390  0.08670  0.66030  Biso   1.000  O
  O283     1.0000 0.13620  0.08300  0.77100  Biso   1.000  O
  O284     1.0000 0.19680  0.80840  0.55020  Biso   1.000  O
  O285     1.0000 0.20770  0.90950  0.82880  Biso   1.000  O
  O286     1.0000 0.21470  0.02990  0.61520  Biso   1.000  O
  O287     1.0000 0.14500  0.98290  0.51640  Biso   1.000  O
  O288     1.0000 0.31470  0.82390  0.75700  Biso   1.000  O
  O289     1.0000 0.27070  0.90790  0.77550  Biso   1.000  O
  O290     1.0000 0.39150  0.01110  0.79110  Biso   1.000  O
  O291     1.0000 0.21890  0.04430  0.77110  Biso   1.000  O
  O292     1.0000 0.23300  0.10070  0.86150  Biso   1.000  O
  O293     1.0000 0.19320  0.14120  0.74260  Biso   1.000  O
  O294     1.0000 0.25760  0.14180  0.70220  Biso   1.000  O
  O295     1.0000 0.40840  0.06750  0.87150  Biso   1.000  O
  O296     1.0000 0.31110  0.93520  0.89020  Biso   1.000  O
  O297     1.0000 0.38400  0.93460  0.84420  Biso   1.000  O
  O298     1.0000 0.11260  0.02940  0.68140  Biso   1.000  O
  O299     1.0000 0.07710  0.94760  0.70280  Biso   1.000  O
  O300     1.0000 0.24930  0.94870  0.59420  Biso   1.000  O
  O301     1.0000 0.13010  0.86250  0.73980  Biso   1.000  O
  O302     1.0000 0.41470  0.05200  0.71530  Biso   1.000  O
  O303     1.0000 0.23300  0.78090  0.66430  Biso   1.000  O
  O304     1.0000 0.37110  0.14590  0.89710  Biso   1.000  O
  O305     1.0000 0.39590  0.99490  0.92620  Biso   1.000  O
  O306     1.0000 0.15750  0.05020  0.87540  Biso   1.000  O
  O307     1.0000 0.28100  0.77760  0.59480  Biso   1.000  O
  O308     1.0000 0.07290  0.77800  0.73430  Biso   1.000  O
  O309     1.0000 0.04820  0.80880  0.64620  Biso   1.000  O
  O310     1.0000 0.25030  0.01060  0.88140  Biso   1.000  O
  O311     1.0000 0.08670  0.90170  0.62130  Biso   1.000  O
  O312     1.0000 0.30720  0.08480  0.66430  Biso   1.000  O
  N46      1.0000 0.15510  0.81180  0.84850  Biso   1.000  N
  H241     1.0000 0.12180  0.82150  0.84040  Biso   1.000  H
  H242     1.0000 0.17850  0.83620  0.86570  Biso   1.000  H
  N47      1.0000 0.49360  0.99380  0.69760  Biso   1.000  N
  H243     1.0000 0.51680  0.99800  0.68520  Biso   1.000  H
  H244     1.0000 0.45950  0.99190  0.66810  Biso   1.000  H
  N48      1.0000 0.17860  0.72940  0.81650  Biso   1.000  N
  H245     1.0000 0.20900  0.72030  0.81680  Biso   1.000  H
  H246     1.0000 0.15260  0.70750  0.79680  Biso   1.000  H
  N49      1.0000 0.12510  0.03850  0.41800  Biso   1.000  N
  H247     1.0000 0.10150  0.04820  0.42850  Biso   1.000  H
  H248     1.0000 0.10860  0.04050  0.38070  Biso   1.000  H
  N50      1.0000 0.03430  0.93120  0.49660  Biso   1.000  N
  H249     1.0000 0.04630  0.93980  0.47360  Biso   1.000  H
  H250     1.0000 0.03780  0.95650  0.51820  Biso   1.000  H
  N51      1.0000 0.00390  0.84410  0.52080  Biso   1.000  N
  H251     1.0000 0.00410  0.83000  0.55000  Biso   1.000  H
  H252     1.0000 0.99530  0.82190  0.49420  Biso   1.000  H
  N52      1.0000 0.38350  0.81360  0.69560  Biso   1.000  N
  H253     1.0000 0.39880  0.83350  0.72510  Biso   1.000  H
  H254     1.0000 0.38240  0.82860  0.66650  Biso   1.000  H
  N53      1.0000 0.34130  0.73040  0.70520  Biso   1.000  N
  H255     1.0000 0.32530  0.70910  0.67710  Biso   1.000  H
  H256     1.0000 0.33460  0.72090  0.73200  Biso   1.000  H
  N54      1.0000 0.22710  0.99940  0.48560  Biso   1.000  N
  H257     1.0000 0.24710  0.98860  0.47130  Biso   1.000  H
  H258     1.0000 0.24430  0.99170  0.52200  Biso   1.000  H
  C86      1.0000 0.23530  0.78540  0.55130  Biso   1.000  C
  C87      1.0000 0.22600  0.76210  0.49890  Biso   1.000  C
  H259     1.0000 0.19740  0.73840  0.48770  Biso   1.000  H
  H260     1.0000 0.21270  0.78640  0.47000  Biso   1.000  H
  C88      1.0000 0.18960  0.72990  0.87360  Biso   1.000  C
  H261     1.0000 0.22850  0.72700  0.89880  Biso   1.000  H
  H262     1.0000 0.17250  0.70190  0.87900  Biso   1.000  H
  C89      1.0000 0.97880  0.91660  0.46510  Biso   1.000  C
  H263     1.0000 0.95550  0.94470  0.45330  Biso   1.000  H
  H264     1.0000 0.97260  0.89960  0.43200  Biso   1.000  H
  C90      1.0000 0.03940  0.78770  0.68320  Biso   1.000  C
  C91      1.0000 0.40170  0.72880  0.72840  Biso   1.000  C
  H265     1.0000 0.41160  0.69970  0.71660  Biso   1.000  H
  H266     1.0000 0.42090  0.72940  0.76880  Biso   1.000  H
  C92      1.0000 0.41540  0.76870  0.70850  Biso   1.000  C
  H267     1.0000 0.45290  0.77670  0.73560  Biso   1.000  H
  H268     1.0000 0.41470  0.75900  0.67470  Biso   1.000  H
  C93      1.0000 0.18500  0.77650  0.94930  Biso   1.000  C
  H269     1.0000 0.22110  0.78970  0.97140  Biso   1.000  H
  H270     1.0000 0.15910  0.79830  0.94930  Biso   1.000  H
  H271     1.0000 0.18330  0.74630  0.96480  Biso   1.000  H
  C94      1.0000 0.50700  0.95040  0.73200  Biso   1.000  C
  H272     1.0000 0.54700  0.95300  0.75500  Biso   1.000  H
  C95      1.0000 0.49900  0.90010  0.72100  Biso   1.000  C
  H273     1.0000 0.46400  0.89130  0.68920  Biso   1.000  H
  H274     1.0000 0.52870  0.88320  0.72110  Biso   1.000  H
  C96      1.0000 0.22100  0.04780  0.47900  Biso   1.000  C
  H275     1.0000 0.23000  0.04600  0.45000  Biso   1.000  H
  C97      1.0000 0.26550  0.08310  0.51000  Biso   1.000  C
  H276     1.0000 0.25040  0.11480  0.50440  Biso   1.000  H
  H277     1.0000 0.28450  0.07560  0.54910  Biso   1.000  H
  H278     1.0000 0.29040  0.08180  0.49650  Biso   1.000  H
  C98      1.0000 0.17230  0.06720  0.44340  Biso   1.000  C
  H279     1.0000 0.16590  0.09280  0.46290  Biso   1.000  H
  H280     1.0000 0.17550  0.08200  0.41370  Biso   1.000  H
  C99      1.0000 0.17230  0.76880  0.88770  Biso   1.000  C
  H281     1.0000 0.13500  0.75700  0.87400  Biso   1.000  H
  C100     1.0000 0.96380  0.88420  0.49890  Biso   1.000  C
  H282     1.0000 0.98000  0.90400  0.53300  Biso   1.000  H
  C101     1.0000 0.91530  0.88150  0.49100  Biso   1.000  C
  H283     1.0000 0.91320  0.85470  0.51170  Biso   1.000  H
  H284     1.0000 0.90710  0.91060  0.50420  Biso   1.000  H
  H285     1.0000 0.88950  0.87730  0.45230  Biso   1.000  H
  C102     1.0000 0.98100  0.77410  0.66700  Biso   1.000  C
  H286     1.0000 0.98110  0.74240  0.68070  Biso   1.000  H
  H287     1.0000 0.96780  0.79670  0.68330  Biso   1.000  H
  H288     1.0000 0.95830  0.77460  0.62730  Biso   1.000  H
  W91      1.0000 0.14493  0.37207  0.69992  Biso   1.000  W
  W92      1.0000 0.22764  0.37196  0.64688  Biso   1.000  W
  W93      1.0000 0.19343  0.42158  0.83850  Biso   1.000  W
  W94      1.0000 0.26763  0.58865  0.85364  Biso   1.000  W
  W95      1.0000 0.36485  0.42032  0.72854  Biso   1.000  W
  W96      1.0000 0.35895  0.58806  0.79547  Biso   1.000  W
  W97      1.0000 0.41043  0.46352  0.85685  Biso   1.000  W
  W98      1.0000 0.14141  0.54550  0.77700  Biso   1.000  W
  W99      1.0000 0.32045  0.46430  0.91408  Biso   1.000  W
  W100     1.0000 0.31551  0.54455  0.66746  Biso   1.000  W
  W101     1.0000 0.09327  0.49583  0.63620  Biso   1.000  W
  W102     1.0000 0.11230  0.62845  0.66000  Biso   1.000  W
  W103     1.0000 0.19790  0.62873  0.60803  Biso   1.000  W
  W104     1.0000 0.17564  0.49659  0.58420  Biso   1.000  W
  W105     1.0000 0.24136  0.67138  0.73843  Biso   1.000  W
  Ni43     1.0000 0.42111  0.37390  0.95475  Biso   1.000  Ni
  Ni44     1.0000 0.19318  0.29535  0.82315  Biso   1.000  Ni
  Ni45     1.0000 0.34977  0.46878  0.05584  Biso   1.000  Ni
  Ni46     1.0000 0.26293  0.29916  0.76481  Biso   1.000  Ni
  Ni47     1.0000 0.38018  0.33830  0.83446  Biso   1.000  Ni
  Ni48     1.0000 0.30331  0.33832  0.88333  Biso   1.000  Ni
  Ni49     1.0000 0.34620  0.29511  0.72319  Biso   1.000  Ni
  P13      1.0000 0.27889  0.41448  0.78321  Biso   1.000  P
  P14      1.0000 0.22292  0.54873  0.71584  Biso   1.000  P
  O313     1.0000 0.33980  0.40190  0.92290  Biso   1.000  O
  O314     1.0000 0.34720  0.48910  0.70330  Biso   1.000  O
  O315     1.0000 0.16980  0.48990  0.81500  Biso   1.000  O
  O316     1.0000 0.16860  0.56800  0.57950  Biso   1.000  O
  O317     1.0000 0.37970  0.32000  0.90400  Biso   1.000  O
  O318     1.0000 0.26310  0.32380  0.69470  Biso   1.000  O
  O319     1.0000 0.30000  0.36380  0.80950  Biso   1.000  O
  O320     1.0000 0.16320  0.67880  0.70340  Biso   1.000  O
  O321     1.0000 0.12410  0.60180  0.72740  Biso   1.000  O
  O322     1.0000 0.26280  0.72940  0.76440  Biso   1.000  O
  O323     1.0000 0.21930  0.54430  0.76810  Biso   1.000  O
  O324     1.0000 0.15110  0.40880  0.76000  Biso   1.000  O
  O325     1.0000 0.18530  0.51100  0.67070  Biso   1.000  O
  O326     1.0000 0.34040  0.28050  0.79020  Biso   1.000  O
  O327     1.0000 0.20210  0.59940  0.69130  Biso   1.000  O
  O328     1.0000 0.22870  0.67880  0.66330  Biso   1.000  O
  O329     1.0000 0.26320  0.44240  0.82130  Biso   1.000  O
  O330     1.0000 0.22540  0.36410  0.85190  Biso   1.000  O
  O331     1.0000 0.15930  0.35700  0.64120  Biso   1.000  O
  O332     1.0000 0.32460  0.44150  0.78000  Biso   1.000  O
  O333     1.0000 0.36870  0.48280  0.89130  Biso   1.000  O
  O334     1.0000 0.32610  0.58670  0.83970  Biso   1.000  O
  O335     1.0000 0.36380  0.58300  0.72900  Biso   1.000  O
  O336     1.0000 0.30320  0.30840  0.94980  Biso   1.000  O
  O337     1.0000 0.29230  0.40950  0.67120  Biso   1.000  O
  O338     1.0000 0.28530  0.52990  0.88480  Biso   1.000  O
  O339     1.0000 0.35500  0.48290  0.98360  Biso   1.000  O
  O340     1.0000 0.18530  0.32390  0.74300  Biso   1.000  O
  O341     1.0000 0.22930  0.40790  0.72450  Biso   1.000  O
  O342     1.0000 0.10850  0.51110  0.70890  Biso   1.000  O
  O343     1.0000 0.28110  0.54430  0.72890  Biso   1.000  O
  O344     1.0000 0.26700  0.60070  0.63850  Biso   1.000  O
  O345     1.0000 0.30680  0.64120  0.75740  Biso   1.000  O
  O346     1.0000 0.24240  0.64180  0.79780  Biso   1.000  O
  O347     1.0000 0.09160  0.56750  0.62850  Biso   1.000  O
  O348     1.0000 0.18890  0.43520  0.60980  Biso   1.000  O
  O349     1.0000 0.11600  0.43460  0.65580  Biso   1.000  O
  O350     1.0000 0.38740  0.52940  0.81860  Biso   1.000  O
  O351     1.0000 0.42290  0.44760  0.79720  Biso   1.000  O
  O352     1.0000 0.25070  0.44870  0.90580  Biso   1.000  O
  O353     1.0000 0.36990  0.36250  0.76020  Biso   1.000  O
  O354     1.0000 0.08530  0.55200  0.78470  Biso   1.000  O
  O355     1.0000 0.26700  0.28090  0.83570  Biso   1.000  O
  O356     1.0000 0.12890  0.64590  0.60290  Biso   1.000  O
  O357     1.0000 0.10410  0.49490  0.57380  Biso   1.000  O
  O358     1.0000 0.34250  0.55020  0.62460  Biso   1.000  O
  O359     1.0000 0.21900  0.27760  0.90520  Biso   1.000  O
  O360     1.0000 0.42710  0.27800  0.76570  Biso   1.000  O
  O361     1.0000 0.45180  0.30880  0.85380  Biso   1.000  O
  O362     1.0000 0.24970  0.51060  0.61860  Biso   1.000  O
  O363     1.0000 0.41330  0.40170  0.87870  Biso   1.000  O
  O364     1.0000 0.19280  0.58480  0.83570  Biso   1.000  O
  N55      1.0000 0.34490  0.31180  0.65150  Biso   1.000  N
  H289     1.0000 0.37820  0.32150  0.65960  Biso   1.000  H
  H290     1.0000 0.32150  0.33620  0.63430  Biso   1.000  H
  N56      1.0000 0.00640  0.49380  0.80240  Biso   1.000  N
  H291     1.0000 0.98320  0.49800  0.81480  Biso   1.000  H
  H292     1.0000 0.04050  0.49190  0.83190  Biso   1.000  H
  N57      1.0000 0.32140  0.22940  0.68350  Biso   1.000  N
  H293     1.0000 0.29100  0.22030  0.68320  Biso   1.000  H
  H294     1.0000 0.34740  0.20750  0.70320  Biso   1.000  H
  N58      1.0000 0.37490  0.53850  0.08200  Biso   1.000  N
  H295     1.0000 0.39850  0.54820  0.07150  Biso   1.000  H
  H296     1.0000 0.39140  0.54050  0.11930  Biso   1.000  H
  N59      1.0000 0.46570  0.43120  0.00340  Biso   1.000  N
  H297     1.0000 0.45370  0.43980  0.02640  Biso   1.000  H
  H298     1.0000 0.46220  0.45650  0.98180  Biso   1.000  H
  N60      1.0000 0.49610  0.34410  0.97920  Biso   1.000  N
  H299     1.0000 0.49590  0.33000  0.95000  Biso   1.000  H
  H300     1.0000 0.50470  0.32190  0.00580  Biso   1.000  H
  N61      1.0000 0.11650  0.31360  0.80440  Biso   1.000  N
  H301     1.0000 0.10120  0.33350  0.77490  Biso   1.000  H
  H302     1.0000 0.11760  0.32860  0.83350  Biso   1.000  H
  N62      1.0000 0.15870  0.23040  0.79480  Biso   1.000  N
  H303     1.0000 0.17470  0.20910  0.82290  Biso   1.000  H
  H304     1.0000 0.16540  0.22090  0.76800  Biso   1.000  H
  N63      1.0000 0.27290  0.49940  0.01440  Biso   1.000  N
  H305     1.0000 0.25290  0.48860  0.02870  Biso   1.000  H
  H306     1.0000 0.25570  0.49170  0.97800  Biso   1.000  H
  C103     1.0000 0.26470  0.28540  0.94870  Biso   1.000  C
  C104     1.0000 0.27400  0.26210  0.00110  Biso   1.000  C
  H307     1.0000 0.30260  0.23840  0.01230  Biso   1.000  H
  H308     1.0000 0.28730  0.28640  0.03000  Biso   1.000  H
  C105     1.0000 0.31040  0.22990  0.62640  Biso   1.000  C
  H309     1.0000 0.27150  0.22700  0.60120  Biso   1.000  H
  H310     1.0000 0.32750  0.20190  0.62100  Biso   1.000  H
  C106     1.0000 0.52120  0.41660  0.03490  Biso   1.000  C
  H311     1.0000 0.54450  0.44470  0.04670  Biso   1.000  H
  H312     1.0000 0.52740  0.39960  0.06800  Biso   1.000  H
  C107     1.0000 0.46060  0.28770  0.81680  Biso   1.000  C
  C108     1.0000 0.09830  0.22880  0.77160  Biso   1.000  C
  H313     1.0000 0.08840  0.19970  0.78340  Biso   1.000  H
  H314     1.0000 0.07910  0.22940  0.73120  Biso   1.000  H
  C109     1.0000 0.08460  0.26870  0.79150  Biso   1.000  C
  H315     1.0000 0.04710  0.27670  0.76440  Biso   1.000  H
  H316     1.0000 0.08530  0.25900  0.82530  Biso   1.000  H
  C110     1.0000 0.31500  0.27650  0.55070  Biso   1.000  C
  H317     1.0000 0.27890  0.28970  0.52860  Biso   1.000  H
  H318     1.0000 0.34090  0.29830  0.55070  Biso   1.000  H
  H319     1.0000 0.31670  0.24630  0.53520  Biso   1.000  H
  C111     1.0000 0.99300  0.45040  0.76800  Biso   1.000  C
  H320     1.0000 0.95300  0.45300  0.74500  Biso   1.000  H
  C112     1.0000 0.00100  0.40010  0.77900  Biso   1.000  C
  H321     1.0000 0.03600  0.39130  0.81080  Biso   1.000  H
  H322     1.0000 0.97130  0.38320  0.77890  Biso   1.000  H
  C113     1.0000 0.27900  0.54780  0.02100  Biso   1.000  C
  H323     1.0000 0.27000  0.54600  0.05000  Biso   1.000  H
  C114     1.0000 0.23450  0.58310  0.99000  Biso   1.000  C
  H324     1.0000 0.24960  0.61480  0.99560  Biso   1.000  H
  H325     1.0000 0.21550  0.57560  0.95090  Biso   1.000  H
  H326     1.0000 0.20960  0.58180  0.00350  Biso   1.000  H
  C115     1.0000 0.32770  0.56720  0.05660  Biso   1.000  C
  H327     1.0000 0.33410  0.59280  0.03710  Biso   1.000  H
  H328     1.0000 0.32450  0.58200  0.08630  Biso   1.000  H
  C116     1.0000 0.32770  0.26880  0.61230  Biso   1.000  C
  H329     1.0000 0.36500  0.25700  0.62600  Biso   1.000  H
  C117     1.0000 0.53620  0.38420  0.00110  Biso   1.000  C
  H330     1.0000 0.52000  0.40400  0.96700  Biso   1.000  H
  C118     1.0000 0.58470  0.38150  0.00900  Biso   1.000  C
  H331     1.0000 0.58680  0.35470  0.98830  Biso   1.000  H
  H332     1.0000 0.59290  0.41060  0.99580  Biso   1.000  H
  H333     1.0000 0.61050  0.37730  0.04770  Biso   1.000  H
  C119     1.0000 0.51900  0.27410  0.83300  Biso   1.000  C
  H334     1.0000 0.51890  0.24240  0.81930  Biso   1.000  H
  H335     1.0000 0.53220  0.29670  0.81670  Biso   1.000  H
  H336     1.0000 0.54170  0.27460  0.87270  Biso   1.000  H
  W106     1.0000 0.64493  0.87207  0.69992  Biso   1.000  W
  W107     1.0000 0.72764  0.87196  0.64688  Biso   1.000  W
  W108     1.0000 0.69343  0.92158  0.83850  Biso   1.000  W
  W109     1.0000 0.76763  0.08865  0.85364  Biso   1.000  W
  W110     1.0000 0.86485  0.92032  0.72854  Biso   1.000  W
  W111     1.0000 0.85895  0.08806  0.79547  Biso   1.000  W
  W112     1.0000 0.91043  0.96352  0.85685  Biso   1.000  W
  W113     1.0000 0.64141  0.04550  0.77700  Biso   1.000  W
  W114     1.0000 0.82045  0.96430  0.91408  Biso   1.000  W
  W115     1.0000 0.81551  0.04455  0.66746  Biso   1.000  W
  W116     1.0000 0.59327  0.99583  0.63620  Biso   1.000  W
  W117     1.0000 0.61230  0.12845  0.66000  Biso   1.000  W
  W118     1.0000 0.69790  0.12873  0.60803  Biso   1.000  W
  W119     1.0000 0.67564  0.99659  0.58420  Biso   1.000  W
  W120     1.0000 0.74136  0.17138  0.73843  Biso   1.000  W
  Ni50     1.0000 0.92111  0.87390  0.95475  Biso   1.000  Ni
  Ni51     1.0000 0.69318  0.79535  0.82315  Biso   1.000  Ni
  Ni52     1.0000 0.84977  0.96878  0.05584  Biso   1.000  Ni
  Ni53     1.0000 0.76293  0.79916  0.76481  Biso   1.000  Ni
  Ni54     1.0000 0.88018  0.83830  0.83446  Biso   1.000  Ni
  Ni55     1.0000 0.80331  0.83832  0.88333  Biso   1.000  Ni
  Ni56     1.0000 0.84620  0.79511  0.72319  Biso   1.000  Ni
  P15      1.0000 0.77889  0.91448  0.78321  Biso   1.000  P
  P16      1.0000 0.72292  0.04873  0.71584  Biso   1.000  P
  O365     1.0000 0.83980  0.90190  0.92290  Biso   1.000  O
  O366     1.0000 0.84720  0.98910  0.70330  Biso   1.000  O
  O367     1.0000 0.66980  0.98990  0.81500  Biso   1.000  O
  O368     1.0000 0.66860  0.06800  0.57950  Biso   1.000  O
  O369     1.0000 0.87970  0.82000  0.90400  Biso   1.000  O
  O370     1.0000 0.76310  0.82380  0.69470  Biso   1.000  O
  O371     1.0000 0.80000  0.86380  0.80950  Biso   1.000  O
  O372     1.0000 0.66320  0.17880  0.70340  Biso   1.000  O
  O373     1.0000 0.62410  0.10180  0.72740  Biso   1.000  O
  O374     1.0000 0.76280  0.22940  0.76440  Biso   1.000  O
  O375     1.0000 0.71930  0.04430  0.76810  Biso   1.000  O
  O376     1.0000 0.65110  0.90880  0.76000  Biso   1.000  O
  O377     1.0000 0.68530  0.01100  0.67070  Biso   1.000  O
  O378     1.0000 0.84040  0.78050  0.79020  Biso   1.000  O
  O379     1.0000 0.70210  0.09940  0.69130  Biso   1.000  O
  O380     1.0000 0.72870  0.17880  0.66330  Biso   1.000  O
  O381     1.0000 0.76320  0.94240  0.82130  Biso   1.000  O
  O382     1.0000 0.72540  0.86410  0.85190  Biso   1.000  O
  O383     1.0000 0.65930  0.85700  0.64120  Biso   1.000  O
  O384     1.0000 0.82460  0.94150  0.78000  Biso   1.000  O
  O385     1.0000 0.86870  0.98280  0.89130  Biso   1.000  O
  O386     1.0000 0.82610  0.08670  0.83970  Biso   1.000  O
  O387     1.0000 0.86380  0.08300  0.72900  Biso   1.000  O
  O388     1.0000 0.80320  0.80840  0.94980  Biso   1.000  O
  O389     1.0000 0.79230  0.90950  0.67120  Biso   1.000  O
  O390     1.0000 0.78530  0.02990  0.88480  Biso   1.000  O
  O391     1.0000 0.85500  0.98290  0.98360  Biso   1.000  O
  O392     1.0000 0.68530  0.82390  0.74300  Biso   1.000  O
  O393     1.0000 0.72930  0.90790  0.72450  Biso   1.000  O
  O394     1.0000 0.60850  0.01110  0.70890  Biso   1.000  O
  O395     1.0000 0.78110  0.04430  0.72890  Biso   1.000  O
  O396     1.0000 0.76700  0.10070  0.63850  Biso   1.000  O
  O397     1.0000 0.80680  0.14120  0.75740  Biso   1.000  O
  O398     1.0000 0.74240  0.14180  0.79780  Biso   1.000  O
  O399     1.0000 0.59160  0.06750  0.62850  Biso   1.000  O
  O400     1.0000 0.68890  0.93520  0.60980  Biso   1.000  O
  O401     1.0000 0.61600  0.93460  0.65580  Biso   1.000  O
  O402     1.0000 0.88740  0.02940  0.81860  Biso   1.000  O
  O403     1.0000 0.92290  0.94760  0.79720  Biso   1.000  O
  O404     1.0000 0.75070  0.94870  0.90580  Biso   1.000  O
  O405     1.0000 0.86990  0.86250  0.76020  Biso   1.000  O
  O406     1.0000 0.58530  0.05200  0.78470  Biso   1.000  O
  O407     1.0000 0.76700  0.78090  0.83570  Biso   1.000  O
  O408     1.0000 0.62890  0.14590  0.60290  Biso   1.000  O
  O409     1.0000 0.60410  0.99490  0.57380  Biso   1.000  O
  O410     1.0000 0.84250  0.05020  0.62460  Biso   1.000  O
  O411     1.0000 0.71900  0.77760  0.90520  Biso   1.000  O
  O412     1.0000 0.92710  0.77800  0.76570  Biso   1.000  O
  O413     1.0000 0.95180  0.80880  0.85380  Biso   1.000  O
  O414     1.0000 0.74970  0.01060  0.61860  Biso   1.000  O
  O415     1.0000 0.91330  0.90170  0.87870  Biso   1.000  O
  O416     1.0000 0.69280  0.08480  0.83570  Biso   1.000  O
  N64      1.0000 0.84490  0.81180  0.65150  Biso   1.000  N
  H337     1.0000 0.87820  0.82150  0.65960  Biso   1.000  H
  H338     1.0000 0.82150  0.83620  0.63430  Biso   1.000  H
  N65      1.0000 0.50640  0.99380  0.80240  Biso   1.000  N
  H339     1.0000 0.48320  0.99800  0.81480  Biso   1.000  H
  H340     1.0000 0.54050  0.99190  0.83190  Biso   1.000  H
  N66      1.0000 0.82140  0.72940  0.68350  Biso   1.000  N
  H341     1.0000 0.79100  0.72030  0.68320  Biso   1.000  H
  H342     1.0000 0.84740  0.70750  0.70320  Biso   1.000  H
  N67      1.0000 0.87490  0.03850  0.08200  Biso   1.000  N
  H343     1.0000 0.89850  0.04820  0.07150  Biso   1.000  H
  H344     1.0000 0.89140  0.04050  0.11930  Biso   1.000  H
  N68      1.0000 0.96570  0.93120  0.00340  Biso   1.000  N
  H345     1.0000 0.95370  0.93980  0.02640  Biso   1.000  H
  H346     1.0000 0.96220  0.95650  0.98180  Biso   1.000  H
  N69      1.0000 0.99610  0.84410  0.97920  Biso   1.000  N
  H347     1.0000 0.99590  0.83000  0.95000  Biso   1.000  H
  H348     1.0000 0.00470  0.82190  0.00580  Biso   1.000  H
  N70      1.0000 0.61650  0.81360  0.80440  Biso   1.000  N
  H349     1.0000 0.60120  0.83350  0.77490  Biso   1.000  H
  H350     1.0000 0.61760  0.82860  0.83350  Biso   1.000  H
  N71      1.0000 0.65870  0.73040  0.79480  Biso   1.000  N
  H351     1.0000 0.67470  0.70910  0.82290  Biso   1.000  H
  H352     1.0000 0.66540  0.72090  0.76800  Biso   1.000  H
  N72      1.0000 0.77290  0.99940  0.01440  Biso   1.000  N
  H353     1.0000 0.75290  0.98860  0.02870  Biso   1.000  H
  H354     1.0000 0.75570  0.99170  0.97800  Biso   1.000  H
  C120     1.0000 0.76470  0.78540  0.94870  Biso   1.000  C
  C121     1.0000 0.77400  0.76210  0.00110  Biso   1.000  C
  H355     1.0000 0.80260  0.73840  0.01230  Biso   1.000  H
  H356     1.0000 0.78730  0.78640  0.03000  Biso   1.000  H
  C122     1.0000 0.81040  0.72990  0.62640  Biso   1.000  C
  H357     1.0000 0.77150  0.72700  0.60120  Biso   1.000  H
  H358     1.0000 0.82750  0.70190  0.62100  Biso   1.000  H
  C123     1.0000 0.02120  0.91660  0.03490  Biso   1.000  C
  H359     1.0000 0.04450  0.94470  0.04670  Biso   1.000  H
  H360     1.0000 0.02740  0.89960  0.06800  Biso   1.000  H
  C124     1.0000 0.96060  0.78770  0.81680  Biso   1.000  C
  C125     1.0000 0.59830  0.72880  0.77160  Biso   1.000  C
  H361     1.0000 0.58840  0.69970  0.78340  Biso   1.000  H
  H362     1.0000 0.57910  0.72940  0.73120  Biso   1.000  H
  C126     1.0000 0.58460  0.76870  0.79150  Biso   1.000  C
  H363     1.0000 0.54710  0.77670  0.76440  Biso   1.000  H
  H364     1.0000 0.58530  0.75900  0.82530  Biso   1.000  H
  C127     1.0000 0.81500  0.77650  0.55070  Biso   1.000  C
  H365     1.0000 0.77890  0.78970  0.52860  Biso   1.000  H
  H366     1.0000 0.84090  0.79830  0.55070  Biso   1.000  H
  H367     1.0000 0.81670  0.74630  0.53520  Biso   1.000  H
  C128     1.0000 0.49300  0.95040  0.76800  Biso   1.000  C
  H368     1.0000 0.45300  0.95300  0.74500  Biso   1.000  H
  C129     1.0000 0.50100  0.90010  0.77900  Biso   1.000  C
  H369     1.0000 0.53600  0.89130  0.81080  Biso   1.000  H
  H370     1.0000 0.47130  0.88320  0.77890  Biso   1.000  H
  C130     1.0000 0.77900  0.04780  0.02100  Biso   1.000  C
  H371     1.0000 0.77000  0.04600  0.05000  Biso   1.000  H
  C131     1.0000 0.73450  0.08310  0.99000  Biso   1.000  C
  H372     1.0000 0.74960  0.11480  0.99560  Biso   1.000  H
  H373     1.0000 0.71550  0.07560  0.95090  Biso   1.000  H
  H374     1.0000 0.70960  0.08180  0.00350  Biso   1.000  H
  C132     1.0000 0.82770  0.06720  0.05660  Biso   1.000  C
  H375     1.0000 0.83410  0.09280  0.03710  Biso   1.000  H
  H376     1.0000 0.82450  0.08200  0.08630  Biso   1.000  H
  C133     1.0000 0.82770  0.76880  0.61230  Biso   1.000  C
  H377     1.0000 0.86500  0.75700  0.62600  Biso   1.000  H
  C134     1.0000 0.03620  0.88420  0.00110  Biso   1.000  C
  H378     1.0000 0.02000  0.90400  0.96700  Biso   1.000  H
  C135     1.0000 0.08470  0.88150  0.00900  Biso   1.000  C
  H379     1.0000 0.08680  0.85470  0.98830  Biso   1.000  H
  H380     1.0000 0.09290  0.91060  0.99580  Biso   1.000  H
  H381     1.0000 0.11050  0.87730  0.04770  Biso   1.000  H
  C136     1.0000 0.01900  0.77410  0.83300  Biso   1.000  C
  H382     1.0000 0.01890  0.74240  0.81930  Biso   1.000  H
  H383     1.0000 0.03220  0.79670  0.81670  Biso   1.000  H
  H384     1.0000 0.04170  0.77460  0.87270  Biso   1.000  H
  Ni57     1.0000 0.00000  0.44980  0.25000  Biso   1.000  Ni
  Ni58     1.0000 0.50000  0.94980  0.25000  Biso   1.000  Ni
  Ni59     1.0000 1.00000  0.55020  0.75000  Biso   1.000  Ni
  Ni60     1.0000 0.50000  0.05020  0.75000  Biso   1.000  Ni
