data_image0
_cell_length_a       46.072
_cell_length_b       35.831
_cell_length_c       28.608
_cell_angle_alpha    90
_cell_angle_beta     90
_cell_angle_gamma    90

_symmetry_space_group_name_H-M    "P 1"
_symmetry_int_tables_number       1

loop_
  _symmetry_equiv_pos_as_xyz
  'x, y, z'

loop_
  _atom_site_label
  _atom_site_occupancy
  _atom_site_fract_x
  _atom_site_fract_y
  _atom_site_fract_z
  _atom_site_thermal_displace_type
  _atom_site_B_iso_or_equiv
  _atom_site_type_symbol
  Ce1      1.0000 0.16935  0.11522  0.23585  Biso   1.000  Ce
  C1       1.0000 0.19280  0.14000  0.95830  Biso   1.000  C
  C2       1.0000 0.19230  0.17200  0.93220  Biso   1.000  C
  H1       1.0000 0.19680  0.19460  0.94640  Biso   1.000  H
  C3       1.0000 0.18490  0.17150  0.88450  Biso   1.000  C
  C4       1.0000 0.17760  0.13760  0.86370  Biso   1.000  C
  H2       1.0000 0.17250  0.13680  0.83230  Biso   1.000  H
  C5       1.0000 0.17800  0.10500  0.89010  Biso   1.000  C
  C6       1.0000 0.18590  0.10650  0.93600  Biso   1.000  C
  H3       1.0000 0.18670  0.08440  0.95300  Biso   1.000  H
  C7       1.0000 0.20110  0.14080  0.00770  Biso   1.000  C
  C8       1.0000 0.22410  0.16280  0.02310  Biso   1.000  C
  H4       1.0000 0.23450  0.17710  0.00170  Biso   1.000  H
  C9       1.0000 0.23190  0.16370  0.07070  Biso   1.000  C
  H5       1.0000 0.24750  0.17820  0.08030  Biso   1.000  H
  C10      1.0000 0.21670  0.14360  0.10280  Biso   1.000  C
  C11      1.0000 0.19490  0.12110  0.08880  Biso   1.000  C
  H6       1.0000 0.18560  0.10600  0.11060  Biso   1.000  H
  C12      1.0000 0.18600  0.12000  0.04200  Biso   1.000  C
  H7       1.0000 0.17010  0.10560  0.03350  Biso   1.000  H
  C13      1.0000 0.18320  0.20790  0.85730  Biso   1.000  C
  C14      1.0000 0.20480  0.23310  0.86090  Biso   1.000  C
  H8       1.0000 0.22090  0.22850  0.87950  Biso   1.000  H
  C15      1.0000 0.20220  0.26670  0.83580  Biso   1.000  C
  H9       1.0000 0.21680  0.28440  0.83880  Biso   1.000  H
  C16      1.0000 0.17910  0.27440  0.80700  Biso   1.000  C
  C17      1.0000 0.15780  0.24870  0.80460  Biso   1.000  C
  H10      1.0000 0.14130  0.25350  0.78680  Biso   1.000  H
  C18      1.0000 0.16030  0.21490  0.82840  Biso   1.000  C
  H11      1.0000 0.14600  0.19680  0.82450  Biso   1.000  H
  C19      1.0000 0.17270  0.06770  0.86700  Biso   1.000  C
  C20      1.0000 0.18430  0.06150  0.82320  Biso   1.000  C
  H12      1.0000 0.19390  0.08080  0.80800  Biso   1.000  H
  C21      1.0000 0.18190  0.02640  0.80040  Biso   1.000  C
  H13      1.0000 0.18950  0.02280  0.77060  Biso   1.000  H
  C22      1.0000 0.16820  0.99770  0.82370  Biso   1.000  C
  C23      1.0000 0.15580  0.00520  0.86750  Biso   1.000  C
  H14      1.0000 0.14550  0.98660  0.88290  Biso   1.000  H
  C24      1.0000 0.15870  0.03970  0.88800  Biso   1.000  C
  H15      1.0000 0.15070  0.04370  0.91740  Biso   1.000  H
  C25      1.0000 0.22480  0.14620  0.15270  Biso   1.000  C
  C26      1.0000 0.17860  0.31080  0.78140  Biso   1.000  C
  C27      1.0000 0.16850  0.95960  0.80360  Biso   1.000  C
  C28      1.0000 0.22360  0.07370  0.35390  Biso   1.000  C
  C29      1.0000 0.25020  0.05850  0.34610  Biso   1.000  C
  H16      1.0000 0.25840  0.06040  0.31650  Biso   1.000  H
  C30      1.0000 0.26580  0.03990  0.38160  Biso   1.000  C
  H17      1.0000 0.28380  0.02920  0.37560  Biso   1.000  H
  C31      1.0000 0.25350  0.03810  0.42530  Biso   1.000  C
  C32      1.0000 0.22660  0.05380  0.43330  Biso   1.000  C
  H18      1.0000 0.21840  0.05200  0.46290  Biso   1.000  H
  C33      1.0000 0.21170  0.07180  0.39880  Biso   1.000  C
  H19      1.0000 0.19380  0.08270  0.40500  Biso   1.000  H
  C34      1.0000 0.27040  0.01840  0.46410  Biso   1.000  C
  C35      1.0000 0.29950  0.01800  0.46550  Biso   1.000  C
  H20      1.0000 0.30980  0.03050  0.44230  Biso   1.000  H
  C36      1.0000 0.36230  0.02930  0.48200  Biso   1.000  C
  H21      1.0000 0.35240  0.04950  0.46930  Biso   1.000  H
  C37      1.0000 0.39090  0.02970  0.48210  Biso   1.000  C
  H22      1.0000 0.40040  0.05040  0.46990  Biso   1.000  H
  C38      1.0000 0.20650  0.09270  0.31630  Biso   1.000  C
  O1       1.0000 0.21130  0.12900  0.18500  Biso   1.000  O
  O2       1.0000 0.24680  0.16540  0.16300  Biso   1.000  O
  O3       1.0000 0.15790  0.93320  0.82720  Biso   1.000  O
  O4       1.0000 0.17810  0.95420  0.76280  Biso   1.000  O
  O5       1.0000 0.15220  0.32430  0.77680  Biso   1.000  O
  O6       1.0000 0.19940  0.32720  0.76800  Biso   1.000  O
  O7       1.0000 0.22090  0.10030  0.27730  Biso   1.000  O
  O8       1.0000 0.18060  0.09890  0.32020  Biso   1.000  O
  O9       1.0000 0.45330  0.97200  0.51690  Biso   1.000  O
  Ce2      1.0000 0.66935  0.61522  0.23585  Biso   1.000  Ce
  C39      1.0000 0.69280  0.64000  0.95830  Biso   1.000  C
  C40      1.0000 0.69230  0.67200  0.93220  Biso   1.000  C
  H23      1.0000 0.69680  0.69460  0.94640  Biso   1.000  H
  C41      1.0000 0.68490  0.67150  0.88450  Biso   1.000  C
  C42      1.0000 0.67760  0.63760  0.86370  Biso   1.000  C
  H24      1.0000 0.67250  0.63680  0.83230  Biso   1.000  H
  C43      1.0000 0.67800  0.60500  0.89010  Biso   1.000  C
  C44      1.0000 0.68590  0.60650  0.93600  Biso   1.000  C
  H25      1.0000 0.68670  0.58440  0.95300  Biso   1.000  H
  C45      1.0000 0.70110  0.64080  0.00770  Biso   1.000  C
  C46      1.0000 0.72410  0.66280  0.02310  Biso   1.000  C
  H26      1.0000 0.73450  0.67710  0.00170  Biso   1.000  H
  C47      1.0000 0.73190  0.66370  0.07070  Biso   1.000  C
  H27      1.0000 0.74750  0.67820  0.08030  Biso   1.000  H
  C48      1.0000 0.71670  0.64360  0.10280  Biso   1.000  C
  C49      1.0000 0.69490  0.62110  0.08880  Biso   1.000  C
  H28      1.0000 0.68560  0.60600  0.11060  Biso   1.000  H
  C50      1.0000 0.68600  0.62000  0.04200  Biso   1.000  C
  H29      1.0000 0.67010  0.60560  0.03350  Biso   1.000  H
  C51      1.0000 0.68320  0.70790  0.85730  Biso   1.000  C
  C52      1.0000 0.70480  0.73310  0.86090  Biso   1.000  C
  H30      1.0000 0.72090  0.72850  0.87950  Biso   1.000  H
  C53      1.0000 0.70220  0.76670  0.83580  Biso   1.000  C
  H31      1.0000 0.71680  0.78440  0.83880  Biso   1.000  H
  C54      1.0000 0.67910  0.77440  0.80700  Biso   1.000  C
  C55      1.0000 0.65780  0.74870  0.80460  Biso   1.000  C
  H32      1.0000 0.64130  0.75350  0.78680  Biso   1.000  H
  C56      1.0000 0.66030  0.71490  0.82840  Biso   1.000  C
  H33      1.0000 0.64600  0.69680  0.82450  Biso   1.000  H
  C57      1.0000 0.67270  0.56770  0.86700  Biso   1.000  C
  C58      1.0000 0.68430  0.56150  0.82320  Biso   1.000  C
  H34      1.0000 0.69390  0.58080  0.80800  Biso   1.000  H
  C59      1.0000 0.68190  0.52640  0.80040  Biso   1.000  C
  H35      1.0000 0.68950  0.52280  0.77060  Biso   1.000  H
  C60      1.0000 0.66820  0.49770  0.82370  Biso   1.000  C
  C61      1.0000 0.65580  0.50520  0.86750  Biso   1.000  C
  H36      1.0000 0.64550  0.48660  0.88290  Biso   1.000  H
  C62      1.0000 0.65870  0.53970  0.88800  Biso   1.000  C
  H37      1.0000 0.65070  0.54370  0.91740  Biso   1.000  H
  C63      1.0000 0.72480  0.64620  0.15270  Biso   1.000  C
  C64      1.0000 0.67860  0.81080  0.78140  Biso   1.000  C
  C65      1.0000 0.66850  0.45960  0.80360  Biso   1.000  C
  C66      1.0000 0.72360  0.57370  0.35390  Biso   1.000  C
  C67      1.0000 0.75020  0.55850  0.34610  Biso   1.000  C
  H38      1.0000 0.75840  0.56040  0.31650  Biso   1.000  H
  C68      1.0000 0.76580  0.53990  0.38160  Biso   1.000  C
  H39      1.0000 0.78380  0.52920  0.37560  Biso   1.000  H
  C69      1.0000 0.75350  0.53810  0.42530  Biso   1.000  C
  C70      1.0000 0.72660  0.55380  0.43330  Biso   1.000  C
  H40      1.0000 0.71840  0.55200  0.46290  Biso   1.000  H
  C71      1.0000 0.71170  0.57180  0.39880  Biso   1.000  C
  H41      1.0000 0.69380  0.58270  0.40500  Biso   1.000  H
  C72      1.0000 0.77040  0.51840  0.46410  Biso   1.000  C
  C73      1.0000 0.79950  0.51800  0.46550  Biso   1.000  C
  H42      1.0000 0.80980  0.53050  0.44230  Biso   1.000  H
  C74      1.0000 0.86230  0.52930  0.48200  Biso   1.000  C
  H43      1.0000 0.85240  0.54950  0.46930  Biso   1.000  H
  C75      1.0000 0.89090  0.52970  0.48210  Biso   1.000  C
  H44      1.0000 0.90040  0.55040  0.46990  Biso   1.000  H
  C76      1.0000 0.70650  0.59270  0.31630  Biso   1.000  C
  O10      1.0000 0.71130  0.62900  0.18500  Biso   1.000  O
  O11      1.0000 0.74680  0.66540  0.16300  Biso   1.000  O
  O12      1.0000 0.65790  0.43320  0.82720  Biso   1.000  O
  O13      1.0000 0.67810  0.45420  0.76280  Biso   1.000  O
  O14      1.0000 0.65220  0.82430  0.77680  Biso   1.000  O
  O15      1.0000 0.69940  0.82720  0.76800  Biso   1.000  O
  O16      1.0000 0.72090  0.60030  0.27730  Biso   1.000  O
  O17      1.0000 0.68060  0.59890  0.32020  Biso   1.000  O
  O18      1.0000 0.95330  0.47200  0.51690  Biso   1.000  O
  Ce3      1.0000 0.83065  0.38478  0.73585  Biso   1.000  Ce
  C77      1.0000 0.80720  0.36000  0.45830  Biso   1.000  C
  C78      1.0000 0.80770  0.32800  0.43220  Biso   1.000  C
  H45      1.0000 0.80320  0.30540  0.44640  Biso   1.000  H
  C79      1.0000 0.81510  0.32850  0.38450  Biso   1.000  C
  C80      1.0000 0.82240  0.36240  0.36370  Biso   1.000  C
  H46      1.0000 0.82750  0.36320  0.33230  Biso   1.000  H
  C81      1.0000 0.82200  0.39500  0.39010  Biso   1.000  C
  C82      1.0000 0.81410  0.39350  0.43600  Biso   1.000  C
  H47      1.0000 0.81330  0.41560  0.45300  Biso   1.000  H
  C83      1.0000 0.79890  0.35920  0.50770  Biso   1.000  C
  C84      1.0000 0.77590  0.33720  0.52310  Biso   1.000  C
  H48      1.0000 0.76550  0.32290  0.50170  Biso   1.000  H
  C85      1.0000 0.76810  0.33630  0.57070  Biso   1.000  C
  H49      1.0000 0.75250  0.32180  0.58030  Biso   1.000  H
  C86      1.0000 0.78330  0.35640  0.60280  Biso   1.000  C
  C87      1.0000 0.80510  0.37890  0.58880  Biso   1.000  C
  H50      1.0000 0.81440  0.39400  0.61060  Biso   1.000  H
  C88      1.0000 0.81400  0.38000  0.54200  Biso   1.000  C
  H51      1.0000 0.82990  0.39440  0.53350  Biso   1.000  H
  C89      1.0000 0.81680  0.29210  0.35730  Biso   1.000  C
  C90      1.0000 0.79520  0.26690  0.36090  Biso   1.000  C
  H52      1.0000 0.77910  0.27150  0.37950  Biso   1.000  H
  C91      1.0000 0.79780  0.23330  0.33580  Biso   1.000  C
  H53      1.0000 0.78320  0.21560  0.33880  Biso   1.000  H
  C92      1.0000 0.82090  0.22560  0.30700  Biso   1.000  C
  C93      1.0000 0.84220  0.25130  0.30460  Biso   1.000  C
  H54      1.0000 0.85870  0.24650  0.28680  Biso   1.000  H
  C94      1.0000 0.83970  0.28510  0.32840  Biso   1.000  C
  H55      1.0000 0.85400  0.30320  0.32450  Biso   1.000  H
  C95      1.0000 0.82730  0.43230  0.36700  Biso   1.000  C
  C96      1.0000 0.81570  0.43850  0.32320  Biso   1.000  C
  H56      1.0000 0.80610  0.41920  0.30800  Biso   1.000  H
  C97      1.0000 0.81810  0.47360  0.30040  Biso   1.000  C
  H57      1.0000 0.81050  0.47720  0.27060  Biso   1.000  H
  C98      1.0000 0.83180  0.50230  0.32370  Biso   1.000  C
  C99      1.0000 0.84420  0.49480  0.36750  Biso   1.000  C
  H58      1.0000 0.85450  0.51340  0.38290  Biso   1.000  H
  C100     1.0000 0.84130  0.46030  0.38800  Biso   1.000  C
  H59      1.0000 0.84930  0.45630  0.41740  Biso   1.000  H
  C101     1.0000 0.77520  0.35380  0.65270  Biso   1.000  C
  C102     1.0000 0.82140  0.18920  0.28140  Biso   1.000  C
  C103     1.0000 0.83150  0.54040  0.30360  Biso   1.000  C
  C104     1.0000 0.77640  0.42630  0.85390  Biso   1.000  C
  C105     1.0000 0.74980  0.44150  0.84610  Biso   1.000  C
  H60      1.0000 0.74160  0.43960  0.81650  Biso   1.000  H
  C106     1.0000 0.73420  0.46010  0.88160  Biso   1.000  C
  H61      1.0000 0.71620  0.47080  0.87560  Biso   1.000  H
  C107     1.0000 0.74650  0.46190  0.92530  Biso   1.000  C
  C108     1.0000 0.77340  0.44620  0.93330  Biso   1.000  C
  H62      1.0000 0.78160  0.44800  0.96290  Biso   1.000  H
  C109     1.0000 0.78830  0.42820  0.89880  Biso   1.000  C
  H63      1.0000 0.80620  0.41730  0.90500  Biso   1.000  H
  C110     1.0000 0.72960  0.48160  0.96410  Biso   1.000  C
  C111     1.0000 0.70050  0.48200  0.96550  Biso   1.000  C
  H64      1.0000 0.69020  0.46950  0.94230  Biso   1.000  H
  C112     1.0000 0.63770  0.47070  0.98200  Biso   1.000  C
  H65      1.0000 0.64760  0.45050  0.96930  Biso   1.000  H
  C113     1.0000 0.60910  0.47030  0.98210  Biso   1.000  C
  H66      1.0000 0.59960  0.44960  0.96990  Biso   1.000  H
  C114     1.0000 0.79350  0.40730  0.81630  Biso   1.000  C
  O19      1.0000 0.78870  0.37100  0.68500  Biso   1.000  O
  O20      1.0000 0.75320  0.33460  0.66300  Biso   1.000  O
  O21      1.0000 0.84210  0.56680  0.32720  Biso   1.000  O
  O22      1.0000 0.82190  0.54580  0.26280  Biso   1.000  O
  O23      1.0000 0.84780  0.17570  0.27680  Biso   1.000  O
  O24      1.0000 0.80060  0.17280  0.26800  Biso   1.000  O
  O25      1.0000 0.77910  0.39970  0.77730  Biso   1.000  O
  O26      1.0000 0.81940  0.40110  0.82020  Biso   1.000  O
  O27      1.0000 0.54670  0.52800  0.01690  Biso   1.000  O
  Ce4      1.0000 0.33065  0.88478  0.73585  Biso   1.000  Ce
  C115     1.0000 0.30720  0.86000  0.45830  Biso   1.000  C
  C116     1.0000 0.30770  0.82800  0.43220  Biso   1.000  C
  H67      1.0000 0.30320  0.80540  0.44640  Biso   1.000  H
  C117     1.0000 0.31510  0.82850  0.38450  Biso   1.000  C
  C118     1.0000 0.32240  0.86240  0.36370  Biso   1.000  C
  H68      1.0000 0.32750  0.86320  0.33230  Biso   1.000  H
  C119     1.0000 0.32200  0.89500  0.39010  Biso   1.000  C
  C120     1.0000 0.31410  0.89350  0.43600  Biso   1.000  C
  H69      1.0000 0.31330  0.91560  0.45300  Biso   1.000  H
  C121     1.0000 0.29890  0.85920  0.50770  Biso   1.000  C
  C122     1.0000 0.27590  0.83720  0.52310  Biso   1.000  C
  H70      1.0000 0.26550  0.82290  0.50170  Biso   1.000  H
  C123     1.0000 0.26810  0.83630  0.57070  Biso   1.000  C
  H71      1.0000 0.25250  0.82180  0.58030  Biso   1.000  H
  C124     1.0000 0.28330  0.85640  0.60280  Biso   1.000  C
  C125     1.0000 0.30510  0.87890  0.58880  Biso   1.000  C
  H72      1.0000 0.31440  0.89400  0.61060  Biso   1.000  H
  C126     1.0000 0.31400  0.88000  0.54200  Biso   1.000  C
  H73      1.0000 0.32990  0.89440  0.53350  Biso   1.000  H
  C127     1.0000 0.31680  0.79210  0.35730  Biso   1.000  C
  C128     1.0000 0.29520  0.76690  0.36090  Biso   1.000  C
  H74      1.0000 0.27910  0.77150  0.37950  Biso   1.000  H
  C129     1.0000 0.29780  0.73330  0.33580  Biso   1.000  C
  H75      1.0000 0.28320  0.71560  0.33880  Biso   1.000  H
  C130     1.0000 0.32090  0.72560  0.30700  Biso   1.000  C
  C131     1.0000 0.34220  0.75130  0.30460  Biso   1.000  C
  H76      1.0000 0.35870  0.74650  0.28680  Biso   1.000  H
  C132     1.0000 0.33970  0.78510  0.32840  Biso   1.000  C
  H77      1.0000 0.35400  0.80320  0.32450  Biso   1.000  H
  C133     1.0000 0.32730  0.93230  0.36700  Biso   1.000  C
  C134     1.0000 0.31570  0.93850  0.32320  Biso   1.000  C
  H78      1.0000 0.30610  0.91920  0.30800  Biso   1.000  H
  C135     1.0000 0.31810  0.97360  0.30040  Biso   1.000  C
  H79      1.0000 0.31050  0.97720  0.27060  Biso   1.000  H
  C136     1.0000 0.33180  0.00230  0.32370  Biso   1.000  C
  C137     1.0000 0.34420  0.99480  0.36750  Biso   1.000  C
  H80      1.0000 0.35450  0.01340  0.38290  Biso   1.000  H
  C138     1.0000 0.34130  0.96030  0.38800  Biso   1.000  C
  H81      1.0000 0.34930  0.95630  0.41740  Biso   1.000  H
  C139     1.0000 0.27520  0.85380  0.65270  Biso   1.000  C
  C140     1.0000 0.32140  0.68920  0.28140  Biso   1.000  C
  C141     1.0000 0.33150  0.04040  0.30360  Biso   1.000  C
  C142     1.0000 0.27640  0.92630  0.85390  Biso   1.000  C
  C143     1.0000 0.24980  0.94150  0.84610  Biso   1.000  C
  H82      1.0000 0.24160  0.93960  0.81650  Biso   1.000  H
  C144     1.0000 0.23420  0.96010  0.88160  Biso   1.000  C
  H83      1.0000 0.21620  0.97080  0.87560  Biso   1.000  H
  C145     1.0000 0.24650  0.96190  0.92530  Biso   1.000  C
  C146     1.0000 0.27340  0.94620  0.93330  Biso   1.000  C
  H84      1.0000 0.28160  0.94800  0.96290  Biso   1.000  H
  C147     1.0000 0.28830  0.92820  0.89880  Biso   1.000  C
  H85      1.0000 0.30620  0.91730  0.90500  Biso   1.000  H
  C148     1.0000 0.22960  0.98160  0.96410  Biso   1.000  C
  C149     1.0000 0.20050  0.98200  0.96550  Biso   1.000  C
  H86      1.0000 0.19020  0.96950  0.94230  Biso   1.000  H
  C150     1.0000 0.13770  0.97070  0.98200  Biso   1.000  C
  H87      1.0000 0.14760  0.95050  0.96930  Biso   1.000  H
  C151     1.0000 0.10910  0.97030  0.98210  Biso   1.000  C
  H88      1.0000 0.09960  0.94960  0.96990  Biso   1.000  H
  C152     1.0000 0.29350  0.90730  0.81630  Biso   1.000  C
  O28      1.0000 0.28870  0.87100  0.68500  Biso   1.000  O
  O29      1.0000 0.25320  0.83460  0.66300  Biso   1.000  O
  O30      1.0000 0.34210  0.06680  0.32720  Biso   1.000  O
  O31      1.0000 0.32190  0.04580  0.26280  Biso   1.000  O
  O32      1.0000 0.34780  0.67570  0.27680  Biso   1.000  O
  O33      1.0000 0.30060  0.67280  0.26800  Biso   1.000  O
  O34      1.0000 0.27910  0.89970  0.77730  Biso   1.000  O
  O35      1.0000 0.31940  0.90110  0.82020  Biso   1.000  O
  O36      1.0000 0.04670  0.02800  0.01690  Biso   1.000  O
  Ce5      1.0000 0.83065  0.61522  0.26415  Biso   1.000  Ce
  C153     1.0000 0.80720  0.64000  0.54170  Biso   1.000  C
  C154     1.0000 0.80770  0.67200  0.56780  Biso   1.000  C
  H89      1.0000 0.80320  0.69460  0.55360  Biso   1.000  H
  C155     1.0000 0.81510  0.67150  0.61550  Biso   1.000  C
  C156     1.0000 0.82240  0.63760  0.63630  Biso   1.000  C
  H90      1.0000 0.82750  0.63680  0.66770  Biso   1.000  H
  C157     1.0000 0.82200  0.60500  0.60990  Biso   1.000  C
  C158     1.0000 0.81410  0.60650  0.56400  Biso   1.000  C
  H91      1.0000 0.81330  0.58440  0.54700  Biso   1.000  H
  C159     1.0000 0.79890  0.64080  0.49230  Biso   1.000  C
  C160     1.0000 0.77590  0.66280  0.47690  Biso   1.000  C
  H92      1.0000 0.76550  0.67710  0.49830  Biso   1.000  H
  C161     1.0000 0.76810  0.66370  0.42930  Biso   1.000  C
  H93      1.0000 0.75250  0.67820  0.41970  Biso   1.000  H
  C162     1.0000 0.78330  0.64360  0.39720  Biso   1.000  C
  C163     1.0000 0.80510  0.62110  0.41120  Biso   1.000  C
  H94      1.0000 0.81440  0.60600  0.38940  Biso   1.000  H
  C164     1.0000 0.81400  0.62000  0.45800  Biso   1.000  C
  H95      1.0000 0.82990  0.60560  0.46650  Biso   1.000  H
  C165     1.0000 0.81680  0.70790  0.64270  Biso   1.000  C
  C166     1.0000 0.79520  0.73310  0.63910  Biso   1.000  C
  H96      1.0000 0.77910  0.72850  0.62050  Biso   1.000  H
  C167     1.0000 0.79780  0.76670  0.66420  Biso   1.000  C
  H97      1.0000 0.78320  0.78440  0.66120  Biso   1.000  H
  C168     1.0000 0.82090  0.77440  0.69300  Biso   1.000  C
  C169     1.0000 0.84220  0.74870  0.69540  Biso   1.000  C
  H98      1.0000 0.85870  0.75350  0.71320  Biso   1.000  H
  C170     1.0000 0.83970  0.71490  0.67160  Biso   1.000  C
  H99      1.0000 0.85400  0.69680  0.67550  Biso   1.000  H
  C171     1.0000 0.82730  0.56770  0.63300  Biso   1.000  C
  C172     1.0000 0.81570  0.56150  0.67680  Biso   1.000  C
  H100     1.0000 0.80610  0.58080  0.69200  Biso   1.000  H
  C173     1.0000 0.81810  0.52640  0.69960  Biso   1.000  C
  H101     1.0000 0.81050  0.52280  0.72940  Biso   1.000  H
  C174     1.0000 0.83180  0.49770  0.67630  Biso   1.000  C
  C175     1.0000 0.84420  0.50520  0.63250  Biso   1.000  C
  H102     1.0000 0.85450  0.48660  0.61710  Biso   1.000  H
  C176     1.0000 0.84130  0.53970  0.61200  Biso   1.000  C
  H103     1.0000 0.84930  0.54370  0.58260  Biso   1.000  H
  C177     1.0000 0.77520  0.64620  0.34730  Biso   1.000  C
  C178     1.0000 0.82140  0.81080  0.71860  Biso   1.000  C
  C179     1.0000 0.83150  0.45960  0.69640  Biso   1.000  C
  C180     1.0000 0.77640  0.57370  0.14610  Biso   1.000  C
  C181     1.0000 0.74980  0.55850  0.15390  Biso   1.000  C
  H104     1.0000 0.74160  0.56040  0.18350  Biso   1.000  H
  C182     1.0000 0.73420  0.53990  0.11840  Biso   1.000  C
  H105     1.0000 0.71620  0.52920  0.12440  Biso   1.000  H
  C183     1.0000 0.74650  0.53810  0.07470  Biso   1.000  C
  C184     1.0000 0.77340  0.55380  0.06670  Biso   1.000  C
  H106     1.0000 0.78160  0.55200  0.03710  Biso   1.000  H
  C185     1.0000 0.78830  0.57180  0.10120  Biso   1.000  C
  H107     1.0000 0.80620  0.58270  0.09500  Biso   1.000  H
  C186     1.0000 0.72960  0.51840  0.03590  Biso   1.000  C
  C187     1.0000 0.70050  0.51800  0.03450  Biso   1.000  C
  H108     1.0000 0.69020  0.53050  0.05770  Biso   1.000  H
  C188     1.0000 0.63770  0.52930  0.01800  Biso   1.000  C
  H109     1.0000 0.64760  0.54950  0.03070  Biso   1.000  H
  C189     1.0000 0.60910  0.52970  0.01790  Biso   1.000  C
  H110     1.0000 0.59960  0.55040  0.03010  Biso   1.000  H
  C190     1.0000 0.79350  0.59270  0.18370  Biso   1.000  C
  O37      1.0000 0.78870  0.62900  0.31500  Biso   1.000  O
  O38      1.0000 0.75320  0.66540  0.33700  Biso   1.000  O
  O39      1.0000 0.84210  0.43320  0.67280  Biso   1.000  O
  O40      1.0000 0.82190  0.45420  0.73720  Biso   1.000  O
  O41      1.0000 0.84780  0.82430  0.72320  Biso   1.000  O
  O42      1.0000 0.80060  0.82720  0.73200  Biso   1.000  O
  O43      1.0000 0.77910  0.60030  0.22270  Biso   1.000  O
  O44      1.0000 0.81940  0.59890  0.17980  Biso   1.000  O
  O45      1.0000 0.54670  0.47200  0.98310  Biso   1.000  O
  Ce6      1.0000 0.33065  0.11522  0.26415  Biso   1.000  Ce
  C191     1.0000 0.30720  0.14000  0.54170  Biso   1.000  C
  C192     1.0000 0.30770  0.17200  0.56780  Biso   1.000  C
  H111     1.0000 0.30320  0.19460  0.55360  Biso   1.000  H
  C193     1.0000 0.31510  0.17150  0.61550  Biso   1.000  C
  C194     1.0000 0.32240  0.13760  0.63630  Biso   1.000  C
  H112     1.0000 0.32750  0.13680  0.66770  Biso   1.000  H
  C195     1.0000 0.32200  0.10500  0.60990  Biso   1.000  C
  C196     1.0000 0.31410  0.10650  0.56400  Biso   1.000  C
  H113     1.0000 0.31330  0.08440  0.54700  Biso   1.000  H
  C197     1.0000 0.29890  0.14080  0.49230  Biso   1.000  C
  C198     1.0000 0.27590  0.16280  0.47690  Biso   1.000  C
  H114     1.0000 0.26550  0.17710  0.49830  Biso   1.000  H
  C199     1.0000 0.26810  0.16370  0.42930  Biso   1.000  C
  H115     1.0000 0.25250  0.17820  0.41970  Biso   1.000  H
  C200     1.0000 0.28330  0.14360  0.39720  Biso   1.000  C
  C201     1.0000 0.30510  0.12110  0.41120  Biso   1.000  C
  H116     1.0000 0.31440  0.10600  0.38940  Biso   1.000  H
  C202     1.0000 0.31400  0.12000  0.45800  Biso   1.000  C
  H117     1.0000 0.32990  0.10560  0.46650  Biso   1.000  H
  C203     1.0000 0.31680  0.20790  0.64270  Biso   1.000  C
  C204     1.0000 0.29520  0.23310  0.63910  Biso   1.000  C
  H118     1.0000 0.27910  0.22850  0.62050  Biso   1.000  H
  C205     1.0000 0.29780  0.26670  0.66420  Biso   1.000  C
  H119     1.0000 0.28320  0.28440  0.66120  Biso   1.000  H
  C206     1.0000 0.32090  0.27440  0.69300  Biso   1.000  C
  C207     1.0000 0.34220  0.24870  0.69540  Biso   1.000  C
  H120     1.0000 0.35870  0.25350  0.71320  Biso   1.000  H
  C208     1.0000 0.33970  0.21490  0.67160  Biso   1.000  C
  H121     1.0000 0.35400  0.19680  0.67550  Biso   1.000  H
  C209     1.0000 0.32730  0.06770  0.63300  Biso   1.000  C
  C210     1.0000 0.31570  0.06150  0.67680  Biso   1.000  C
  H122     1.0000 0.30610  0.08080  0.69200  Biso   1.000  H
  C211     1.0000 0.31810  0.02640  0.69960  Biso   1.000  C
  H123     1.0000 0.31050  0.02280  0.72940  Biso   1.000  H
  C212     1.0000 0.33180  0.99770  0.67630  Biso   1.000  C
  C213     1.0000 0.34420  0.00520  0.63250  Biso   1.000  C
  H124     1.0000 0.35450  0.98660  0.61710  Biso   1.000  H
  C214     1.0000 0.34130  0.03970  0.61200  Biso   1.000  C
  H125     1.0000 0.34930  0.04370  0.58260  Biso   1.000  H
  C215     1.0000 0.27520  0.14620  0.34730  Biso   1.000  C
  C216     1.0000 0.32140  0.31080  0.71860  Biso   1.000  C
  C217     1.0000 0.33150  0.95960  0.69640  Biso   1.000  C
  C218     1.0000 0.27640  0.07370  0.14610  Biso   1.000  C
  C219     1.0000 0.24980  0.05850  0.15390  Biso   1.000  C
  H126     1.0000 0.24160  0.06040  0.18350  Biso   1.000  H
  C220     1.0000 0.23420  0.03990  0.11840  Biso   1.000  C
  H127     1.0000 0.21620  0.02920  0.12440  Biso   1.000  H
  C221     1.0000 0.24650  0.03810  0.07470  Biso   1.000  C
  C222     1.0000 0.27340  0.05380  0.06670  Biso   1.000  C
  H128     1.0000 0.28160  0.05200  0.03710  Biso   1.000  H
  C223     1.0000 0.28830  0.07180  0.10120  Biso   1.000  C
  H129     1.0000 0.30620  0.08270  0.09500  Biso   1.000  H
  C224     1.0000 0.22960  0.01840  0.03590  Biso   1.000  C
  C225     1.0000 0.20050  0.01800  0.03450  Biso   1.000  C
  H130     1.0000 0.19020  0.03050  0.05770  Biso   1.000  H
  C226     1.0000 0.13770  0.02930  0.01800  Biso   1.000  C
  H131     1.0000 0.14760  0.04950  0.03070  Biso   1.000  H
  C227     1.0000 0.10910  0.02970  0.01790  Biso   1.000  C
  H132     1.0000 0.09960  0.05040  0.03010  Biso   1.000  H
  C228     1.0000 0.29350  0.09270  0.18370  Biso   1.000  C
  O46      1.0000 0.28870  0.12900  0.31500  Biso   1.000  O
  O47      1.0000 0.25320  0.16540  0.33700  Biso   1.000  O
  O48      1.0000 0.34210  0.93320  0.67280  Biso   1.000  O
  O49      1.0000 0.32190  0.95420  0.73720  Biso   1.000  O
  O50      1.0000 0.34780  0.32430  0.72320  Biso   1.000  O
  O51      1.0000 0.30060  0.32720  0.73200  Biso   1.000  O
  O52      1.0000 0.27910  0.10030  0.22270  Biso   1.000  O
  O53      1.0000 0.31940  0.09890  0.17980  Biso   1.000  O
  O54      1.0000 0.04670  0.97200  0.98310  Biso   1.000  O
  Ce7      1.0000 0.16935  0.88478  0.76415  Biso   1.000  Ce
  C229     1.0000 0.19280  0.86000  0.04170  Biso   1.000  C
  C230     1.0000 0.19230  0.82800  0.06780  Biso   1.000  C
  H133     1.0000 0.19680  0.80540  0.05360  Biso   1.000  H
  C231     1.0000 0.18490  0.82850  0.11550  Biso   1.000  C
  C232     1.0000 0.17760  0.86240  0.13630  Biso   1.000  C
  H134     1.0000 0.17250  0.86320  0.16770  Biso   1.000  H
  C233     1.0000 0.17800  0.89500  0.10990  Biso   1.000  C
  C234     1.0000 0.18590  0.89350  0.06400  Biso   1.000  C
  H135     1.0000 0.18670  0.91560  0.04700  Biso   1.000  H
  C235     1.0000 0.20110  0.85920  0.99230  Biso   1.000  C
  C236     1.0000 0.22410  0.83720  0.97690  Biso   1.000  C
  H136     1.0000 0.23450  0.82290  0.99830  Biso   1.000  H
  C237     1.0000 0.23190  0.83630  0.92930  Biso   1.000  C
  H137     1.0000 0.24750  0.82180  0.91970  Biso   1.000  H
  C238     1.0000 0.21670  0.85640  0.89720  Biso   1.000  C
  C239     1.0000 0.19490  0.87890  0.91120  Biso   1.000  C
  H138     1.0000 0.18560  0.89400  0.88940  Biso   1.000  H
  C240     1.0000 0.18600  0.88000  0.95800  Biso   1.000  C
  H139     1.0000 0.17010  0.89440  0.96650  Biso   1.000  H
  C241     1.0000 0.18320  0.79210  0.14270  Biso   1.000  C
  C242     1.0000 0.20480  0.76690  0.13910  Biso   1.000  C
  H140     1.0000 0.22090  0.77150  0.12050  Biso   1.000  H
  C243     1.0000 0.20220  0.73330  0.16420  Biso   1.000  C
  H141     1.0000 0.21680  0.71560  0.16120  Biso   1.000  H
  C244     1.0000 0.17910  0.72560  0.19300  Biso   1.000  C
  C245     1.0000 0.15780  0.75130  0.19540  Biso   1.000  C
  H142     1.0000 0.14130  0.74650  0.21320  Biso   1.000  H
  C246     1.0000 0.16030  0.78510  0.17160  Biso   1.000  C
  H143     1.0000 0.14600  0.80320  0.17550  Biso   1.000  H
  C247     1.0000 0.17270  0.93230  0.13300  Biso   1.000  C
  C248     1.0000 0.18430  0.93850  0.17680  Biso   1.000  C
  H144     1.0000 0.19390  0.91920  0.19200  Biso   1.000  H
  C249     1.0000 0.18190  0.97360  0.19960  Biso   1.000  C
  H145     1.0000 0.18950  0.97720  0.22940  Biso   1.000  H
  C250     1.0000 0.16820  0.00230  0.17630  Biso   1.000  C
  C251     1.0000 0.15580  0.99480  0.13250  Biso   1.000  C
  H146     1.0000 0.14550  0.01340  0.11710  Biso   1.000  H
  C252     1.0000 0.15870  0.96030  0.11200  Biso   1.000  C
  H147     1.0000 0.15070  0.95630  0.08260  Biso   1.000  H
  C253     1.0000 0.22480  0.85380  0.84730  Biso   1.000  C
  C254     1.0000 0.17860  0.68920  0.21860  Biso   1.000  C
  C255     1.0000 0.16850  0.04040  0.19640  Biso   1.000  C
  C256     1.0000 0.22360  0.92630  0.64610  Biso   1.000  C
  C257     1.0000 0.25020  0.94150  0.65390  Biso   1.000  C
  H148     1.0000 0.25840  0.93960  0.68350  Biso   1.000  H
  C258     1.0000 0.26580  0.96010  0.61840  Biso   1.000  C
  H149     1.0000 0.28380  0.97080  0.62440  Biso   1.000  H
  C259     1.0000 0.25350  0.96190  0.57470  Biso   1.000  C
  C260     1.0000 0.22660  0.94620  0.56670  Biso   1.000  C
  H150     1.0000 0.21840  0.94800  0.53710  Biso   1.000  H
  C261     1.0000 0.21170  0.92820  0.60120  Biso   1.000  C
  H151     1.0000 0.19380  0.91730  0.59500  Biso   1.000  H
  C262     1.0000 0.27040  0.98160  0.53590  Biso   1.000  C
  C263     1.0000 0.29950  0.98200  0.53450  Biso   1.000  C
  H152     1.0000 0.30980  0.96950  0.55770  Biso   1.000  H
  C264     1.0000 0.36230  0.97070  0.51800  Biso   1.000  C
  H153     1.0000 0.35240  0.95050  0.53070  Biso   1.000  H
  C265     1.0000 0.39090  0.97030  0.51790  Biso   1.000  C
  H154     1.0000 0.40040  0.94960  0.53010  Biso   1.000  H
  C266     1.0000 0.20650  0.90730  0.68370  Biso   1.000  C
  O55      1.0000 0.21130  0.87100  0.81500  Biso   1.000  O
  O56      1.0000 0.24680  0.83460  0.83700  Biso   1.000  O
  O57      1.0000 0.15790  0.06680  0.17280  Biso   1.000  O
  O58      1.0000 0.17810  0.04580  0.23720  Biso   1.000  O
  O59      1.0000 0.15220  0.67570  0.22320  Biso   1.000  O
  O60      1.0000 0.19940  0.67280  0.23200  Biso   1.000  O
  O61      1.0000 0.22090  0.89970  0.72270  Biso   1.000  O
  O62      1.0000 0.18060  0.90110  0.67980  Biso   1.000  O
  O63      1.0000 0.45330  0.02800  0.48310  Biso   1.000  O
  Ce8      1.0000 0.66935  0.38478  0.76415  Biso   1.000  Ce
  C267     1.0000 0.69280  0.36000  0.04170  Biso   1.000  C
  C268     1.0000 0.69230  0.32800  0.06780  Biso   1.000  C
  H155     1.0000 0.69680  0.30540  0.05360  Biso   1.000  H
  C269     1.0000 0.68490  0.32850  0.11550  Biso   1.000  C
  C270     1.0000 0.67760  0.36240  0.13630  Biso   1.000  C
  H156     1.0000 0.67250  0.36320  0.16770  Biso   1.000  H
  C271     1.0000 0.67800  0.39500  0.10990  Biso   1.000  C
  C272     1.0000 0.68590  0.39350  0.06400  Biso   1.000  C
  H157     1.0000 0.68670  0.41560  0.04700  Biso   1.000  H
  C273     1.0000 0.70110  0.35920  0.99230  Biso   1.000  C
  C274     1.0000 0.72410  0.33720  0.97690  Biso   1.000  C
  H158     1.0000 0.73450  0.32290  0.99830  Biso   1.000  H
  C275     1.0000 0.73190  0.33630  0.92930  Biso   1.000  C
  H159     1.0000 0.74750  0.32180  0.91970  Biso   1.000  H
  C276     1.0000 0.71670  0.35640  0.89720  Biso   1.000  C
  C277     1.0000 0.69490  0.37890  0.91120  Biso   1.000  C
  H160     1.0000 0.68560  0.39400  0.88940  Biso   1.000  H
  C278     1.0000 0.68600  0.38000  0.95800  Biso   1.000  C
  H161     1.0000 0.67010  0.39440  0.96650  Biso   1.000  H
  C279     1.0000 0.68320  0.29210  0.14270  Biso   1.000  C
  C280     1.0000 0.70480  0.26690  0.13910  Biso   1.000  C
  H162     1.0000 0.72090  0.27150  0.12050  Biso   1.000  H
  C281     1.0000 0.70220  0.23330  0.16420  Biso   1.000  C
  H163     1.0000 0.71680  0.21560  0.16120  Biso   1.000  H
  C282     1.0000 0.67910  0.22560  0.19300  Biso   1.000  C
  C283     1.0000 0.65780  0.25130  0.19540  Biso   1.000  C
  H164     1.0000 0.64130  0.24650  0.21320  Biso   1.000  H
  C284     1.0000 0.66030  0.28510  0.17160  Biso   1.000  C
  H165     1.0000 0.64600  0.30320  0.17550  Biso   1.000  H
  C285     1.0000 0.67270  0.43230  0.13300  Biso   1.000  C
  C286     1.0000 0.68430  0.43850  0.17680  Biso   1.000  C
  H166     1.0000 0.69390  0.41920  0.19200  Biso   1.000  H
  C287     1.0000 0.68190  0.47360  0.19960  Biso   1.000  C
  H167     1.0000 0.68950  0.47720  0.22940  Biso   1.000  H
  C288     1.0000 0.66820  0.50230  0.17630  Biso   1.000  C
  C289     1.0000 0.65580  0.49480  0.13250  Biso   1.000  C
  H168     1.0000 0.64550  0.51340  0.11710  Biso   1.000  H
  C290     1.0000 0.65870  0.46030  0.11200  Biso   1.000  C
  H169     1.0000 0.65070  0.45630  0.08260  Biso   1.000  H
  C291     1.0000 0.72480  0.35380  0.84730  Biso   1.000  C
  C292     1.0000 0.67860  0.18920  0.21860  Biso   1.000  C
  C293     1.0000 0.66850  0.54040  0.19640  Biso   1.000  C
  C294     1.0000 0.72360  0.42630  0.64610  Biso   1.000  C
  C295     1.0000 0.75020  0.44150  0.65390  Biso   1.000  C
  H170     1.0000 0.75840  0.43960  0.68350  Biso   1.000  H
  C296     1.0000 0.76580  0.46010  0.61840  Biso   1.000  C
  H171     1.0000 0.78380  0.47080  0.62440  Biso   1.000  H
  C297     1.0000 0.75350  0.46190  0.57470  Biso   1.000  C
  C298     1.0000 0.72660  0.44620  0.56670  Biso   1.000  C
  H172     1.0000 0.71840  0.44800  0.53710  Biso   1.000  H
  C299     1.0000 0.71170  0.42820  0.60120  Biso   1.000  C
  H173     1.0000 0.69380  0.41730  0.59500  Biso   1.000  H
  C300     1.0000 0.77040  0.48160  0.53590  Biso   1.000  C
  C301     1.0000 0.79950  0.48200  0.53450  Biso   1.000  C
  H174     1.0000 0.80980  0.46950  0.55770  Biso   1.000  H
  C302     1.0000 0.86230  0.47070  0.51800  Biso   1.000  C
  H175     1.0000 0.85240  0.45050  0.53070  Biso   1.000  H
  C303     1.0000 0.89090  0.47030  0.51790  Biso   1.000  C
  H176     1.0000 0.90040  0.44960  0.53010  Biso   1.000  H
  C304     1.0000 0.70650  0.40730  0.68370  Biso   1.000  C
  O64      1.0000 0.71130  0.37100  0.81500  Biso   1.000  O
  O65      1.0000 0.74680  0.33460  0.83700  Biso   1.000  O
  O66      1.0000 0.65790  0.56680  0.17280  Biso   1.000  O
  O67      1.0000 0.67810  0.54580  0.23720  Biso   1.000  O
  O68      1.0000 0.65220  0.17570  0.22320  Biso   1.000  O
  O69      1.0000 0.69940  0.17280  0.23200  Biso   1.000  O
  O70      1.0000 0.72090  0.39970  0.72270  Biso   1.000  O
  O71      1.0000 0.68060  0.40110  0.67980  Biso   1.000  O
  O72      1.0000 0.95330  0.52800  0.48310  Biso   1.000  O
  Ce9      1.0000 0.83065  0.88478  0.76415  Biso   1.000  Ce
  C305     1.0000 0.80720  0.86000  0.04170  Biso   1.000  C
  C306     1.0000 0.80770  0.82800  0.06780  Biso   1.000  C
  H177     1.0000 0.80320  0.80540  0.05360  Biso   1.000  H
  C307     1.0000 0.81510  0.82850  0.11550  Biso   1.000  C
  C308     1.0000 0.82240  0.86240  0.13630  Biso   1.000  C
  H178     1.0000 0.82750  0.86320  0.16770  Biso   1.000  H
  C309     1.0000 0.82200  0.89500  0.10990  Biso   1.000  C
  C310     1.0000 0.81410  0.89350  0.06400  Biso   1.000  C
  H179     1.0000 0.81330  0.91560  0.04700  Biso   1.000  H
  C311     1.0000 0.79890  0.85920  0.99230  Biso   1.000  C
  C312     1.0000 0.77590  0.83720  0.97690  Biso   1.000  C
  H180     1.0000 0.76550  0.82290  0.99830  Biso   1.000  H
  C313     1.0000 0.76810  0.83630  0.92930  Biso   1.000  C
  H181     1.0000 0.75250  0.82180  0.91970  Biso   1.000  H
  C314     1.0000 0.78330  0.85640  0.89720  Biso   1.000  C
  C315     1.0000 0.80510  0.87890  0.91120  Biso   1.000  C
  H182     1.0000 0.81440  0.89400  0.88940  Biso   1.000  H
  C316     1.0000 0.81400  0.88000  0.95800  Biso   1.000  C
  H183     1.0000 0.82990  0.89440  0.96650  Biso   1.000  H
  C317     1.0000 0.81680  0.79210  0.14270  Biso   1.000  C
  C318     1.0000 0.79520  0.76690  0.13910  Biso   1.000  C
  H184     1.0000 0.77910  0.77150  0.12050  Biso   1.000  H
  C319     1.0000 0.79780  0.73330  0.16420  Biso   1.000  C
  H185     1.0000 0.78320  0.71560  0.16120  Biso   1.000  H
  C320     1.0000 0.82090  0.72560  0.19300  Biso   1.000  C
  C321     1.0000 0.84220  0.75130  0.19540  Biso   1.000  C
  H186     1.0000 0.85870  0.74650  0.21320  Biso   1.000  H
  C322     1.0000 0.83970  0.78510  0.17160  Biso   1.000  C
  H187     1.0000 0.85400  0.80320  0.17550  Biso   1.000  H
  C323     1.0000 0.82730  0.93230  0.13300  Biso   1.000  C
  C324     1.0000 0.81570  0.93850  0.17680  Biso   1.000  C
  H188     1.0000 0.80610  0.91920  0.19200  Biso   1.000  H
  C325     1.0000 0.81810  0.97360  0.19960  Biso   1.000  C
  H189     1.0000 0.81050  0.97720  0.22940  Biso   1.000  H
  C326     1.0000 0.83180  0.00230  0.17630  Biso   1.000  C
  C327     1.0000 0.84420  0.99480  0.13250  Biso   1.000  C
  H190     1.0000 0.85450  0.01340  0.11710  Biso   1.000  H
  C328     1.0000 0.84130  0.96030  0.11200  Biso   1.000  C
  H191     1.0000 0.84930  0.95630  0.08260  Biso   1.000  H
  C329     1.0000 0.77520  0.85380  0.84730  Biso   1.000  C
  C330     1.0000 0.82140  0.68920  0.21860  Biso   1.000  C
  C331     1.0000 0.83150  0.04040  0.19640  Biso   1.000  C
  C332     1.0000 0.77640  0.92630  0.64610  Biso   1.000  C
  C333     1.0000 0.74980  0.94150  0.65390  Biso   1.000  C
  H192     1.0000 0.74160  0.93960  0.68350  Biso   1.000  H
  C334     1.0000 0.73420  0.96010  0.61840  Biso   1.000  C
  H193     1.0000 0.71620  0.97080  0.62440  Biso   1.000  H
  C335     1.0000 0.74650  0.96190  0.57470  Biso   1.000  C
  C336     1.0000 0.77340  0.94620  0.56670  Biso   1.000  C
  H194     1.0000 0.78160  0.94800  0.53710  Biso   1.000  H
  C337     1.0000 0.78830  0.92820  0.60120  Biso   1.000  C
  H195     1.0000 0.80620  0.91730  0.59500  Biso   1.000  H
  C338     1.0000 0.72960  0.98160  0.53590  Biso   1.000  C
  C339     1.0000 0.70050  0.98200  0.53450  Biso   1.000  C
  H196     1.0000 0.69020  0.96950  0.55770  Biso   1.000  H
  C340     1.0000 0.63770  0.97070  0.51800  Biso   1.000  C
  H197     1.0000 0.64760  0.95050  0.53070  Biso   1.000  H
  C341     1.0000 0.60910  0.97030  0.51790  Biso   1.000  C
  H198     1.0000 0.59960  0.94960  0.53010  Biso   1.000  H
  C342     1.0000 0.79350  0.90730  0.68370  Biso   1.000  C
  O73      1.0000 0.78870  0.87100  0.81500  Biso   1.000  O
  O74      1.0000 0.75320  0.83460  0.83700  Biso   1.000  O
  O75      1.0000 0.84210  0.06680  0.17280  Biso   1.000  O
  O76      1.0000 0.82190  0.04580  0.23720  Biso   1.000  O
  O77      1.0000 0.84780  0.67570  0.22320  Biso   1.000  O
  O78      1.0000 0.80060  0.67280  0.23200  Biso   1.000  O
  O79      1.0000 0.77910  0.89970  0.72270  Biso   1.000  O
  O80      1.0000 0.81940  0.90110  0.67980  Biso   1.000  O
  O81      1.0000 0.54670  0.02800  0.48310  Biso   1.000  O
  Ce10     1.0000 0.33065  0.38478  0.76415  Biso   1.000  Ce
  C343     1.0000 0.30720  0.36000  0.04170  Biso   1.000  C
  C344     1.0000 0.30770  0.32800  0.06780  Biso   1.000  C
  H199     1.0000 0.30320  0.30540  0.05360  Biso   1.000  H
  C345     1.0000 0.31510  0.32850  0.11550  Biso   1.000  C
  C346     1.0000 0.32240  0.36240  0.13630  Biso   1.000  C
  H200     1.0000 0.32750  0.36320  0.16770  Biso   1.000  H
  C347     1.0000 0.32200  0.39500  0.10990  Biso   1.000  C
  C348     1.0000 0.31410  0.39350  0.06400  Biso   1.000  C
  H201     1.0000 0.31330  0.41560  0.04700  Biso   1.000  H
  C349     1.0000 0.29890  0.35920  0.99230  Biso   1.000  C
  C350     1.0000 0.27590  0.33720  0.97690  Biso   1.000  C
  H202     1.0000 0.26550  0.32290  0.99830  Biso   1.000  H
  C351     1.0000 0.26810  0.33630  0.92930  Biso   1.000  C
  H203     1.0000 0.25250  0.32180  0.91970  Biso   1.000  H
  C352     1.0000 0.28330  0.35640  0.89720  Biso   1.000  C
  C353     1.0000 0.30510  0.37890  0.91120  Biso   1.000  C
  H204     1.0000 0.31440  0.39400  0.88940  Biso   1.000  H
  C354     1.0000 0.31400  0.38000  0.95800  Biso   1.000  C
  H205     1.0000 0.32990  0.39440  0.96650  Biso   1.000  H
  C355     1.0000 0.31680  0.29210  0.14270  Biso   1.000  C
  C356     1.0000 0.29520  0.26690  0.13910  Biso   1.000  C
  H206     1.0000 0.27910  0.27150  0.12050  Biso   1.000  H
  C357     1.0000 0.29780  0.23330  0.16420  Biso   1.000  C
  H207     1.0000 0.28320  0.21560  0.16120  Biso   1.000  H
  C358     1.0000 0.32090  0.22560  0.19300  Biso   1.000  C
  C359     1.0000 0.34220  0.25130  0.19540  Biso   1.000  C
  H208     1.0000 0.35870  0.24650  0.21320  Biso   1.000  H
  C360     1.0000 0.33970  0.28510  0.17160  Biso   1.000  C
  H209     1.0000 0.35400  0.30320  0.17550  Biso   1.000  H
  C361     1.0000 0.32730  0.43230  0.13300  Biso   1.000  C
  C362     1.0000 0.31570  0.43850  0.17680  Biso   1.000  C
  H210     1.0000 0.30610  0.41920  0.19200  Biso   1.000  H
  C363     1.0000 0.31810  0.47360  0.19960  Biso   1.000  C
  H211     1.0000 0.31050  0.47720  0.22940  Biso   1.000  H
  C364     1.0000 0.33180  0.50230  0.17630  Biso   1.000  C
  C365     1.0000 0.34420  0.49480  0.13250  Biso   1.000  C
  H212     1.0000 0.35450  0.51340  0.11710  Biso   1.000  H
  C366     1.0000 0.34130  0.46030  0.11200  Biso   1.000  C
  H213     1.0000 0.34930  0.45630  0.08260  Biso   1.000  H
  C367     1.0000 0.27520  0.35380  0.84730  Biso   1.000  C
  C368     1.0000 0.32140  0.18920  0.21860  Biso   1.000  C
  C369     1.0000 0.33150  0.54040  0.19640  Biso   1.000  C
  C370     1.0000 0.27640  0.42630  0.64610  Biso   1.000  C
  C371     1.0000 0.24980  0.44150  0.65390  Biso   1.000  C
  H214     1.0000 0.24160  0.43960  0.68350  Biso   1.000  H
  C372     1.0000 0.23420  0.46010  0.61840  Biso   1.000  C
  H215     1.0000 0.21620  0.47080  0.62440  Biso   1.000  H
  C373     1.0000 0.24650  0.46190  0.57470  Biso   1.000  C
  C374     1.0000 0.27340  0.44620  0.56670  Biso   1.000  C
  H216     1.0000 0.28160  0.44800  0.53710  Biso   1.000  H
  C375     1.0000 0.28830  0.42820  0.60120  Biso   1.000  C
  H217     1.0000 0.30620  0.41730  0.59500  Biso   1.000  H
  C376     1.0000 0.22960  0.48160  0.53590  Biso   1.000  C
  C377     1.0000 0.20050  0.48200  0.53450  Biso   1.000  C
  H218     1.0000 0.19020  0.46950  0.55770  Biso   1.000  H
  C378     1.0000 0.13770  0.47070  0.51800  Biso   1.000  C
  H219     1.0000 0.14760  0.45050  0.53070  Biso   1.000  H
  C379     1.0000 0.10910  0.47030  0.51790  Biso   1.000  C
  H220     1.0000 0.09960  0.44960  0.53010  Biso   1.000  H
  C380     1.0000 0.29350  0.40730  0.68370  Biso   1.000  C
  O82      1.0000 0.28870  0.37100  0.81500  Biso   1.000  O
  O83      1.0000 0.25320  0.33460  0.83700  Biso   1.000  O
  O84      1.0000 0.34210  0.56680  0.17280  Biso   1.000  O
  O85      1.0000 0.32190  0.54580  0.23720  Biso   1.000  O
  O86      1.0000 0.34780  0.17570  0.22320  Biso   1.000  O
  O87      1.0000 0.30060  0.17280  0.23200  Biso   1.000  O
  O88      1.0000 0.27910  0.39970  0.72270  Biso   1.000  O
  O89      1.0000 0.31940  0.40110  0.67980  Biso   1.000  O
  O90      1.0000 0.04670  0.52800  0.48310  Biso   1.000  O
  Ce11     1.0000 0.16935  0.61522  0.26415  Biso   1.000  Ce
  C381     1.0000 0.19280  0.64000  0.54170  Biso   1.000  C
  C382     1.0000 0.19230  0.67200  0.56780  Biso   1.000  C
  H221     1.0000 0.19680  0.69460  0.55360  Biso   1.000  H
  C383     1.0000 0.18490  0.67150  0.61550  Biso   1.000  C
  C384     1.0000 0.17760  0.63760  0.63630  Biso   1.000  C
  H222     1.0000 0.17250  0.63680  0.66770  Biso   1.000  H
  C385     1.0000 0.17800  0.60500  0.60990  Biso   1.000  C
  C386     1.0000 0.18590  0.60650  0.56400  Biso   1.000  C
  H223     1.0000 0.18670  0.58440  0.54700  Biso   1.000  H
  C387     1.0000 0.20110  0.64080  0.49230  Biso   1.000  C
  C388     1.0000 0.22410  0.66280  0.47690  Biso   1.000  C
  H224     1.0000 0.23450  0.67710  0.49830  Biso   1.000  H
  C389     1.0000 0.23190  0.66370  0.42930  Biso   1.000  C
  H225     1.0000 0.24750  0.67820  0.41970  Biso   1.000  H
  C390     1.0000 0.21670  0.64360  0.39720  Biso   1.000  C
  C391     1.0000 0.19490  0.62110  0.41120  Biso   1.000  C
  H226     1.0000 0.18560  0.60600  0.38940  Biso   1.000  H
  C392     1.0000 0.18600  0.62000  0.45800  Biso   1.000  C
  H227     1.0000 0.17010  0.60560  0.46650  Biso   1.000  H
  C393     1.0000 0.18320  0.70790  0.64270  Biso   1.000  C
  C394     1.0000 0.20480  0.73310  0.63910  Biso   1.000  C
  H228     1.0000 0.22090  0.72850  0.62050  Biso   1.000  H
  C395     1.0000 0.20220  0.76670  0.66420  Biso   1.000  C
  H229     1.0000 0.21680  0.78440  0.66120  Biso   1.000  H
  C396     1.0000 0.17910  0.77440  0.69300  Biso   1.000  C
  C397     1.0000 0.15780  0.74870  0.69540  Biso   1.000  C
  H230     1.0000 0.14130  0.75350  0.71320  Biso   1.000  H
  C398     1.0000 0.16030  0.71490  0.67160  Biso   1.000  C
  H231     1.0000 0.14600  0.69680  0.67550  Biso   1.000  H
  C399     1.0000 0.17270  0.56770  0.63300  Biso   1.000  C
  C400     1.0000 0.18430  0.56150  0.67680  Biso   1.000  C
  H232     1.0000 0.19390  0.58080  0.69200  Biso   1.000  H
  C401     1.0000 0.18190  0.52640  0.69960  Biso   1.000  C
  H233     1.0000 0.18950  0.52280  0.72940  Biso   1.000  H
  C402     1.0000 0.16820  0.49770  0.67630  Biso   1.000  C
  C403     1.0000 0.15580  0.50520  0.63250  Biso   1.000  C
  H234     1.0000 0.14550  0.48660  0.61710  Biso   1.000  H
  C404     1.0000 0.15870  0.53970  0.61200  Biso   1.000  C
  H235     1.0000 0.15070  0.54370  0.58260  Biso   1.000  H
  C405     1.0000 0.22480  0.64620  0.34730  Biso   1.000  C
  C406     1.0000 0.17860  0.81080  0.71860  Biso   1.000  C
  C407     1.0000 0.16850  0.45960  0.69640  Biso   1.000  C
  C408     1.0000 0.22360  0.57370  0.14610  Biso   1.000  C
  C409     1.0000 0.25020  0.55850  0.15390  Biso   1.000  C
  H236     1.0000 0.25840  0.56040  0.18350  Biso   1.000  H
  C410     1.0000 0.26580  0.53990  0.11840  Biso   1.000  C
  H237     1.0000 0.28380  0.52920  0.12440  Biso   1.000  H
  C411     1.0000 0.25350  0.53810  0.07470  Biso   1.000  C
  C412     1.0000 0.22660  0.55380  0.06670  Biso   1.000  C
  H238     1.0000 0.21840  0.55200  0.03710  Biso   1.000  H
  C413     1.0000 0.21170  0.57180  0.10120  Biso   1.000  C
  H239     1.0000 0.19380  0.58270  0.09500  Biso   1.000  H
  C414     1.0000 0.27040  0.51840  0.03590  Biso   1.000  C
  C415     1.0000 0.29950  0.51800  0.03450  Biso   1.000  C
  H240     1.0000 0.30980  0.53050  0.05770  Biso   1.000  H
  C416     1.0000 0.36230  0.52930  0.01800  Biso   1.000  C
  H241     1.0000 0.35240  0.54950  0.03070  Biso   1.000  H
  C417     1.0000 0.39090  0.52970  0.01790  Biso   1.000  C
  H242     1.0000 0.40040  0.55040  0.03010  Biso   1.000  H
  C418     1.0000 0.20650  0.59270  0.18370  Biso   1.000  C
  O91      1.0000 0.21130  0.62900  0.31500  Biso   1.000  O
  O92      1.0000 0.24680  0.66540  0.33700  Biso   1.000  O
  O93      1.0000 0.15790  0.43320  0.67280  Biso   1.000  O
  O94      1.0000 0.17810  0.45420  0.73720  Biso   1.000  O
  O95      1.0000 0.15220  0.82430  0.72320  Biso   1.000  O
  O96      1.0000 0.19940  0.82720  0.73200  Biso   1.000  O
  O97      1.0000 0.22090  0.60030  0.22270  Biso   1.000  O
  O98      1.0000 0.18060  0.59890  0.17980  Biso   1.000  O
  O99      1.0000 0.45330  0.47200  0.98310  Biso   1.000  O
  Ce12     1.0000 0.66935  0.11522  0.26415  Biso   1.000  Ce
  C419     1.0000 0.69280  0.14000  0.54170  Biso   1.000  C
  C420     1.0000 0.69230  0.17200  0.56780  Biso   1.000  C
  H243     1.0000 0.69680  0.19460  0.55360  Biso   1.000  H
  C421     1.0000 0.68490  0.17150  0.61550  Biso   1.000  C
  C422     1.0000 0.67760  0.13760  0.63630  Biso   1.000  C
  H244     1.0000 0.67250  0.13680  0.66770  Biso   1.000  H
  C423     1.0000 0.67800  0.10500  0.60990  Biso   1.000  C
  C424     1.0000 0.68590  0.10650  0.56400  Biso   1.000  C
  H245     1.0000 0.68670  0.08440  0.54700  Biso   1.000  H
  C425     1.0000 0.70110  0.14080  0.49230  Biso   1.000  C
  C426     1.0000 0.72410  0.16280  0.47690  Biso   1.000  C
  H246     1.0000 0.73450  0.17710  0.49830  Biso   1.000  H
  C427     1.0000 0.73190  0.16370  0.42930  Biso   1.000  C
  H247     1.0000 0.74750  0.17820  0.41970  Biso   1.000  H
  C428     1.0000 0.71670  0.14360  0.39720  Biso   1.000  C
  C429     1.0000 0.69490  0.12110  0.41120  Biso   1.000  C
  H248     1.0000 0.68560  0.10600  0.38940  Biso   1.000  H
  C430     1.0000 0.68600  0.12000  0.45800  Biso   1.000  C
  H249     1.0000 0.67010  0.10560  0.46650  Biso   1.000  H
  C431     1.0000 0.68320  0.20790  0.64270  Biso   1.000  C
  C432     1.0000 0.70480  0.23310  0.63910  Biso   1.000  C
  H250     1.0000 0.72090  0.22850  0.62050  Biso   1.000  H
  C433     1.0000 0.70220  0.26670  0.66420  Biso   1.000  C
  H251     1.0000 0.71680  0.28440  0.66120  Biso   1.000  H
  C434     1.0000 0.67910  0.27440  0.69300  Biso   1.000  C
  C435     1.0000 0.65780  0.24870  0.69540  Biso   1.000  C
  H252     1.0000 0.64130  0.25350  0.71320  Biso   1.000  H
  C436     1.0000 0.66030  0.21490  0.67160  Biso   1.000  C
  H253     1.0000 0.64600  0.19680  0.67550  Biso   1.000  H
  C437     1.0000 0.67270  0.06770  0.63300  Biso   1.000  C
  C438     1.0000 0.68430  0.06150  0.67680  Biso   1.000  C
  H254     1.0000 0.69390  0.08080  0.69200  Biso   1.000  H
  C439     1.0000 0.68190  0.02640  0.69960  Biso   1.000  C
  H255     1.0000 0.68950  0.02280  0.72940  Biso   1.000  H
  C440     1.0000 0.66820  0.99770  0.67630  Biso   1.000  C
  C441     1.0000 0.65580  0.00520  0.63250  Biso   1.000  C
  H256     1.0000 0.64550  0.98660  0.61710  Biso   1.000  H
  C442     1.0000 0.65870  0.03970  0.61200  Biso   1.000  C
  H257     1.0000 0.65070  0.04370  0.58260  Biso   1.000  H
  C443     1.0000 0.72480  0.14620  0.34730  Biso   1.000  C
  C444     1.0000 0.67860  0.31080  0.71860  Biso   1.000  C
  C445     1.0000 0.66850  0.95960  0.69640  Biso   1.000  C
  C446     1.0000 0.72360  0.07370  0.14610  Biso   1.000  C
  C447     1.0000 0.75020  0.05850  0.15390  Biso   1.000  C
  H258     1.0000 0.75840  0.06040  0.18350  Biso   1.000  H
  C448     1.0000 0.76580  0.03990  0.11840  Biso   1.000  C
  H259     1.0000 0.78380  0.02920  0.12440  Biso   1.000  H
  C449     1.0000 0.75350  0.03810  0.07470  Biso   1.000  C
  C450     1.0000 0.72660  0.05380  0.06670  Biso   1.000  C
  H260     1.0000 0.71840  0.05200  0.03710  Biso   1.000  H
  C451     1.0000 0.71170  0.07180  0.10120  Biso   1.000  C
  H261     1.0000 0.69380  0.08270  0.09500  Biso   1.000  H
  C452     1.0000 0.77040  0.01840  0.03590  Biso   1.000  C
  C453     1.0000 0.79950  0.01800  0.03450  Biso   1.000  C
  H262     1.0000 0.80980  0.03050  0.05770  Biso   1.000  H
  C454     1.0000 0.86230  0.02930  0.01800  Biso   1.000  C
  H263     1.0000 0.85240  0.04950  0.03070  Biso   1.000  H
  C455     1.0000 0.89090  0.02970  0.01790  Biso   1.000  C
  H264     1.0000 0.90040  0.05040  0.03010  Biso   1.000  H
  C456     1.0000 0.70650  0.09270  0.18370  Biso   1.000  C
  O100     1.0000 0.71130  0.12900  0.31500  Biso   1.000  O
  O101     1.0000 0.74680  0.16540  0.33700  Biso   1.000  O
  O102     1.0000 0.65790  0.93320  0.67280  Biso   1.000  O
  O103     1.0000 0.67810  0.95420  0.73720  Biso   1.000  O
  O104     1.0000 0.65220  0.32430  0.72320  Biso   1.000  O
  O105     1.0000 0.69940  0.32720  0.73200  Biso   1.000  O
  O106     1.0000 0.72090  0.10030  0.22270  Biso   1.000  O
  O107     1.0000 0.68060  0.09890  0.17980  Biso   1.000  O
  O108     1.0000 0.95330  0.97200  0.98310  Biso   1.000  O
  Ce13     1.0000 0.16935  0.38478  0.73585  Biso   1.000  Ce
  C457     1.0000 0.19280  0.36000  0.45830  Biso   1.000  C
  C458     1.0000 0.19230  0.32800  0.43220  Biso   1.000  C
  H265     1.0000 0.19680  0.30540  0.44640  Biso   1.000  H
  C459     1.0000 0.18490  0.32850  0.38450  Biso   1.000  C
  C460     1.0000 0.17760  0.36240  0.36370  Biso   1.000  C
  H266     1.0000 0.17250  0.36320  0.33230  Biso   1.000  H
  C461     1.0000 0.17800  0.39500  0.39010  Biso   1.000  C
  C462     1.0000 0.18590  0.39350  0.43600  Biso   1.000  C
  H267     1.0000 0.18670  0.41560  0.45300  Biso   1.000  H
  C463     1.0000 0.20110  0.35920  0.50770  Biso   1.000  C
  C464     1.0000 0.22410  0.33720  0.52310  Biso   1.000  C
  H268     1.0000 0.23450  0.32290  0.50170  Biso   1.000  H
  C465     1.0000 0.23190  0.33630  0.57070  Biso   1.000  C
  H269     1.0000 0.24750  0.32180  0.58030  Biso   1.000  H
  C466     1.0000 0.21670  0.35640  0.60280  Biso   1.000  C
  C467     1.0000 0.19490  0.37890  0.58880  Biso   1.000  C
  H270     1.0000 0.18560  0.39400  0.61060  Biso   1.000  H
  C468     1.0000 0.18600  0.38000  0.54200  Biso   1.000  C
  H271     1.0000 0.17010  0.39440  0.53350  Biso   1.000  H
  C469     1.0000 0.18320  0.29210  0.35730  Biso   1.000  C
  C470     1.0000 0.20480  0.26690  0.36090  Biso   1.000  C
  H272     1.0000 0.22090  0.27150  0.37950  Biso   1.000  H
  C471     1.0000 0.20220  0.23330  0.33580  Biso   1.000  C
  H273     1.0000 0.21680  0.21560  0.33880  Biso   1.000  H
  C472     1.0000 0.17910  0.22560  0.30700  Biso   1.000  C
  C473     1.0000 0.15780  0.25130  0.30460  Biso   1.000  C
  H274     1.0000 0.14130  0.24650  0.28680  Biso   1.000  H
  C474     1.0000 0.16030  0.28510  0.32840  Biso   1.000  C
  H275     1.0000 0.14600  0.30320  0.32450  Biso   1.000  H
  C475     1.0000 0.17270  0.43230  0.36700  Biso   1.000  C
  C476     1.0000 0.18430  0.43850  0.32320  Biso   1.000  C
  H276     1.0000 0.19390  0.41920  0.30800  Biso   1.000  H
  C477     1.0000 0.18190  0.47360  0.30040  Biso   1.000  C
  H277     1.0000 0.18950  0.47720  0.27060  Biso   1.000  H
  C478     1.0000 0.16820  0.50230  0.32370  Biso   1.000  C
  C479     1.0000 0.15580  0.49480  0.36750  Biso   1.000  C
  H278     1.0000 0.14550  0.51340  0.38290  Biso   1.000  H
  C480     1.0000 0.15870  0.46030  0.38800  Biso   1.000  C
  H279     1.0000 0.15070  0.45630  0.41740  Biso   1.000  H
  C481     1.0000 0.22480  0.35380  0.65270  Biso   1.000  C
  C482     1.0000 0.17860  0.18920  0.28140  Biso   1.000  C
  C483     1.0000 0.16850  0.54040  0.30360  Biso   1.000  C
  C484     1.0000 0.22360  0.42630  0.85390  Biso   1.000  C
  C485     1.0000 0.25020  0.44150  0.84610  Biso   1.000  C
  H280     1.0000 0.25840  0.43960  0.81650  Biso   1.000  H
  C486     1.0000 0.26580  0.46010  0.88160  Biso   1.000  C
  H281     1.0000 0.28380  0.47080  0.87560  Biso   1.000  H
  C487     1.0000 0.25350  0.46190  0.92530  Biso   1.000  C
  C488     1.0000 0.22660  0.44620  0.93330  Biso   1.000  C
  H282     1.0000 0.21840  0.44800  0.96290  Biso   1.000  H
  C489     1.0000 0.21170  0.42820  0.89880  Biso   1.000  C
  H283     1.0000 0.19380  0.41730  0.90500  Biso   1.000  H
  C490     1.0000 0.27040  0.48160  0.96410  Biso   1.000  C
  C491     1.0000 0.29950  0.48200  0.96550  Biso   1.000  C
  H284     1.0000 0.30980  0.46950  0.94230  Biso   1.000  H
  C492     1.0000 0.36230  0.47070  0.98200  Biso   1.000  C
  H285     1.0000 0.35240  0.45050  0.96930  Biso   1.000  H
  C493     1.0000 0.39090  0.47030  0.98210  Biso   1.000  C
  H286     1.0000 0.40040  0.44960  0.96990  Biso   1.000  H
  C494     1.0000 0.20650  0.40730  0.81630  Biso   1.000  C
  O109     1.0000 0.21130  0.37100  0.68500  Biso   1.000  O
  O110     1.0000 0.24680  0.33460  0.66300  Biso   1.000  O
  O111     1.0000 0.15790  0.56680  0.32720  Biso   1.000  O
  O112     1.0000 0.17810  0.54580  0.26280  Biso   1.000  O
  O113     1.0000 0.15220  0.17570  0.27680  Biso   1.000  O
  O114     1.0000 0.19940  0.17280  0.26800  Biso   1.000  O
  O115     1.0000 0.22090  0.39970  0.77730  Biso   1.000  O
  O116     1.0000 0.18060  0.40110  0.82020  Biso   1.000  O
  O117     1.0000 0.45330  0.52800  0.01690  Biso   1.000  O
  Ce14     1.0000 0.66935  0.88478  0.73585  Biso   1.000  Ce
  C495     1.0000 0.69280  0.86000  0.45830  Biso   1.000  C
  C496     1.0000 0.69230  0.82800  0.43220  Biso   1.000  C
  H287     1.0000 0.69680  0.80540  0.44640  Biso   1.000  H
  C497     1.0000 0.68490  0.82850  0.38450  Biso   1.000  C
  C498     1.0000 0.67760  0.86240  0.36370  Biso   1.000  C
  H288     1.0000 0.67250  0.86320  0.33230  Biso   1.000  H
  C499     1.0000 0.67800  0.89500  0.39010  Biso   1.000  C
  C500     1.0000 0.68590  0.89350  0.43600  Biso   1.000  C
  H289     1.0000 0.68670  0.91560  0.45300  Biso   1.000  H
  C501     1.0000 0.70110  0.85920  0.50770  Biso   1.000  C
  C502     1.0000 0.72410  0.83720  0.52310  Biso   1.000  C
  H290     1.0000 0.73450  0.82290  0.50170  Biso   1.000  H
  C503     1.0000 0.73190  0.83630  0.57070  Biso   1.000  C
  H291     1.0000 0.74750  0.82180  0.58030  Biso   1.000  H
  C504     1.0000 0.71670  0.85640  0.60280  Biso   1.000  C
  C505     1.0000 0.69490  0.87890  0.58880  Biso   1.000  C
  H292     1.0000 0.68560  0.89400  0.61060  Biso   1.000  H
  C506     1.0000 0.68600  0.88000  0.54200  Biso   1.000  C
  H293     1.0000 0.67010  0.89440  0.53350  Biso   1.000  H
  C507     1.0000 0.68320  0.79210  0.35730  Biso   1.000  C
  C508     1.0000 0.70480  0.76690  0.36090  Biso   1.000  C
  H294     1.0000 0.72090  0.77150  0.37950  Biso   1.000  H
  C509     1.0000 0.70220  0.73330  0.33580  Biso   1.000  C
  H295     1.0000 0.71680  0.71560  0.33880  Biso   1.000  H
  C510     1.0000 0.67910  0.72560  0.30700  Biso   1.000  C
  C511     1.0000 0.65780  0.75130  0.30460  Biso   1.000  C
  H296     1.0000 0.64130  0.74650  0.28680  Biso   1.000  H
  C512     1.0000 0.66030  0.78510  0.32840  Biso   1.000  C
  H297     1.0000 0.64600  0.80320  0.32450  Biso   1.000  H
  C513     1.0000 0.67270  0.93230  0.36700  Biso   1.000  C
  C514     1.0000 0.68430  0.93850  0.32320  Biso   1.000  C
  H298     1.0000 0.69390  0.91920  0.30800  Biso   1.000  H
  C515     1.0000 0.68190  0.97360  0.30040  Biso   1.000  C
  H299     1.0000 0.68950  0.97720  0.27060  Biso   1.000  H
  C516     1.0000 0.66820  0.00230  0.32370  Biso   1.000  C
  C517     1.0000 0.65580  0.99480  0.36750  Biso   1.000  C
  H300     1.0000 0.64550  0.01340  0.38290  Biso   1.000  H
  C518     1.0000 0.65870  0.96030  0.38800  Biso   1.000  C
  H301     1.0000 0.65070  0.95630  0.41740  Biso   1.000  H
  C519     1.0000 0.72480  0.85380  0.65270  Biso   1.000  C
  C520     1.0000 0.67860  0.68920  0.28140  Biso   1.000  C
  C521     1.0000 0.66850  0.04040  0.30360  Biso   1.000  C
  C522     1.0000 0.72360  0.92630  0.85390  Biso   1.000  C
  C523     1.0000 0.75020  0.94150  0.84610  Biso   1.000  C
  H302     1.0000 0.75840  0.93960  0.81650  Biso   1.000  H
  C524     1.0000 0.76580  0.96010  0.88160  Biso   1.000  C
  H303     1.0000 0.78380  0.97080  0.87560  Biso   1.000  H
  C525     1.0000 0.75350  0.96190  0.92530  Biso   1.000  C
  C526     1.0000 0.72660  0.94620  0.93330  Biso   1.000  C
  H304     1.0000 0.71840  0.94800  0.96290  Biso   1.000  H
  C527     1.0000 0.71170  0.92820  0.89880  Biso   1.000  C
  H305     1.0000 0.69380  0.91730  0.90500  Biso   1.000  H
  C528     1.0000 0.77040  0.98160  0.96410  Biso   1.000  C
  C529     1.0000 0.79950  0.98200  0.96550  Biso   1.000  C
  H306     1.0000 0.80980  0.96950  0.94230  Biso   1.000  H
  C530     1.0000 0.86230  0.97070  0.98200  Biso   1.000  C
  H307     1.0000 0.85240  0.95050  0.96930  Biso   1.000  H
  C531     1.0000 0.89090  0.97030  0.98210  Biso   1.000  C
  H308     1.0000 0.90040  0.94960  0.96990  Biso   1.000  H
  C532     1.0000 0.70650  0.90730  0.81630  Biso   1.000  C
  O118     1.0000 0.71130  0.87100  0.68500  Biso   1.000  O
  O119     1.0000 0.74680  0.83460  0.66300  Biso   1.000  O
  O120     1.0000 0.65790  0.06680  0.32720  Biso   1.000  O
  O121     1.0000 0.67810  0.04580  0.26280  Biso   1.000  O
  O122     1.0000 0.65220  0.67570  0.27680  Biso   1.000  O
  O123     1.0000 0.69940  0.67280  0.26800  Biso   1.000  O
  O124     1.0000 0.72090  0.89970  0.77730  Biso   1.000  O
  O125     1.0000 0.68060  0.90110  0.82020  Biso   1.000  O
  O126     1.0000 0.95330  0.02800  0.01690  Biso   1.000  O
  Ce15     1.0000 0.83065  0.11522  0.23585  Biso   1.000  Ce
  C533     1.0000 0.80720  0.14000  0.95830  Biso   1.000  C
  C534     1.0000 0.80770  0.17200  0.93220  Biso   1.000  C
  H309     1.0000 0.80320  0.19460  0.94640  Biso   1.000  H
  C535     1.0000 0.81510  0.17150  0.88450  Biso   1.000  C
  C536     1.0000 0.82240  0.13760  0.86370  Biso   1.000  C
  H310     1.0000 0.82750  0.13680  0.83230  Biso   1.000  H
  C537     1.0000 0.82200  0.10500  0.89010  Biso   1.000  C
  C538     1.0000 0.81410  0.10650  0.93600  Biso   1.000  C
  H311     1.0000 0.81330  0.08440  0.95300  Biso   1.000  H
  C539     1.0000 0.79890  0.14080  0.00770  Biso   1.000  C
  C540     1.0000 0.77590  0.16280  0.02310  Biso   1.000  C
  H312     1.0000 0.76550  0.17710  0.00170  Biso   1.000  H
  C541     1.0000 0.76810  0.16370  0.07070  Biso   1.000  C
  H313     1.0000 0.75250  0.17820  0.08030  Biso   1.000  H
  C542     1.0000 0.78330  0.14360  0.10280  Biso   1.000  C
  C543     1.0000 0.80510  0.12110  0.08880  Biso   1.000  C
  H314     1.0000 0.81440  0.10600  0.11060  Biso   1.000  H
  C544     1.0000 0.81400  0.12000  0.04200  Biso   1.000  C
  H315     1.0000 0.82990  0.10560  0.03350  Biso   1.000  H
  C545     1.0000 0.81680  0.20790  0.85730  Biso   1.000  C
  C546     1.0000 0.79520  0.23310  0.86090  Biso   1.000  C
  H316     1.0000 0.77910  0.22850  0.87950  Biso   1.000  H
  C547     1.0000 0.79780  0.26670  0.83580  Biso   1.000  C
  H317     1.0000 0.78320  0.28440  0.83880  Biso   1.000  H
  C548     1.0000 0.82090  0.27440  0.80700  Biso   1.000  C
  C549     1.0000 0.84220  0.24870  0.80460  Biso   1.000  C
  H318     1.0000 0.85870  0.25350  0.78680  Biso   1.000  H
  C550     1.0000 0.83970  0.21490  0.82840  Biso   1.000  C
  H319     1.0000 0.85400  0.19680  0.82450  Biso   1.000  H
  C551     1.0000 0.82730  0.06770  0.86700  Biso   1.000  C
  C552     1.0000 0.81570  0.06150  0.82320  Biso   1.000  C
  H320     1.0000 0.80610  0.08080  0.80800  Biso   1.000  H
  C553     1.0000 0.81810  0.02640  0.80040  Biso   1.000  C
  H321     1.0000 0.81050  0.02280  0.77060  Biso   1.000  H
  C554     1.0000 0.83180  0.99770  0.82370  Biso   1.000  C
  C555     1.0000 0.84420  0.00520  0.86750  Biso   1.000  C
  H322     1.0000 0.85450  0.98660  0.88290  Biso   1.000  H
  C556     1.0000 0.84130  0.03970  0.88800  Biso   1.000  C
  H323     1.0000 0.84930  0.04370  0.91740  Biso   1.000  H
  C557     1.0000 0.77520  0.14620  0.15270  Biso   1.000  C
  C558     1.0000 0.82140  0.31080  0.78140  Biso   1.000  C
  C559     1.0000 0.83150  0.95960  0.80360  Biso   1.000  C
  C560     1.0000 0.77640  0.07370  0.35390  Biso   1.000  C
  C561     1.0000 0.74980  0.05850  0.34610  Biso   1.000  C
  H324     1.0000 0.74160  0.06040  0.31650  Biso   1.000  H
  C562     1.0000 0.73420  0.03990  0.38160  Biso   1.000  C
  H325     1.0000 0.71620  0.02920  0.37560  Biso   1.000  H
  C563     1.0000 0.74650  0.03810  0.42530  Biso   1.000  C
  C564     1.0000 0.77340  0.05380  0.43330  Biso   1.000  C
  H326     1.0000 0.78160  0.05200  0.46290  Biso   1.000  H
  C565     1.0000 0.78830  0.07180  0.39880  Biso   1.000  C
  H327     1.0000 0.80620  0.08270  0.40500  Biso   1.000  H
  C566     1.0000 0.72960  0.01840  0.46410  Biso   1.000  C
  C567     1.0000 0.70050  0.01800  0.46550  Biso   1.000  C
  H328     1.0000 0.69020  0.03050  0.44230  Biso   1.000  H
  C568     1.0000 0.63770  0.02930  0.48200  Biso   1.000  C
  H329     1.0000 0.64760  0.04950  0.46930  Biso   1.000  H
  C569     1.0000 0.60910  0.02970  0.48210  Biso   1.000  C
  H330     1.0000 0.59960  0.05040  0.46990  Biso   1.000  H
  C570     1.0000 0.79350  0.09270  0.31630  Biso   1.000  C
  O127     1.0000 0.78870  0.12900  0.18500  Biso   1.000  O
  O128     1.0000 0.75320  0.16540  0.16300  Biso   1.000  O
  O129     1.0000 0.84210  0.93320  0.82720  Biso   1.000  O
  O130     1.0000 0.82190  0.95420  0.76280  Biso   1.000  O
  O131     1.0000 0.84780  0.32430  0.77680  Biso   1.000  O
  O132     1.0000 0.80060  0.32720  0.76800  Biso   1.000  O
  O133     1.0000 0.77910  0.10030  0.27730  Biso   1.000  O
  O134     1.0000 0.81940  0.09890  0.32020  Biso   1.000  O
  O135     1.0000 0.54670  0.97200  0.51690  Biso   1.000  O
  Ce16     1.0000 0.33065  0.61522  0.23585  Biso   1.000  Ce
  C571     1.0000 0.30720  0.64000  0.95830  Biso   1.000  C
  C572     1.0000 0.30770  0.67200  0.93220  Biso   1.000  C
  H331     1.0000 0.30320  0.69460  0.94640  Biso   1.000  H
  C573     1.0000 0.31510  0.67150  0.88450  Biso   1.000  C
  C574     1.0000 0.32240  0.63760  0.86370  Biso   1.000  C
  H332     1.0000 0.32750  0.63680  0.83230  Biso   1.000  H
  C575     1.0000 0.32200  0.60500  0.89010  Biso   1.000  C
  C576     1.0000 0.31410  0.60650  0.93600  Biso   1.000  C
  H333     1.0000 0.31330  0.58440  0.95300  Biso   1.000  H
  C577     1.0000 0.29890  0.64080  0.00770  Biso   1.000  C
  C578     1.0000 0.27590  0.66280  0.02310  Biso   1.000  C
  H334     1.0000 0.26550  0.67710  0.00170  Biso   1.000  H
  C579     1.0000 0.26810  0.66370  0.07070  Biso   1.000  C
  H335     1.0000 0.25250  0.67820  0.08030  Biso   1.000  H
  C580     1.0000 0.28330  0.64360  0.10280  Biso   1.000  C
  C581     1.0000 0.30510  0.62110  0.08880  Biso   1.000  C
  H336     1.0000 0.31440  0.60600  0.11060  Biso   1.000  H
  C582     1.0000 0.31400  0.62000  0.04200  Biso   1.000  C
  H337     1.0000 0.32990  0.60560  0.03350  Biso   1.000  H
  C583     1.0000 0.31680  0.70790  0.85730  Biso   1.000  C
  C584     1.0000 0.29520  0.73310  0.86090  Biso   1.000  C
  H338     1.0000 0.27910  0.72850  0.87950  Biso   1.000  H
  C585     1.0000 0.29780  0.76670  0.83580  Biso   1.000  C
  H339     1.0000 0.28320  0.78440  0.83880  Biso   1.000  H
  C586     1.0000 0.32090  0.77440  0.80700  Biso   1.000  C
  C587     1.0000 0.34220  0.74870  0.80460  Biso   1.000  C
  H340     1.0000 0.35870  0.75350  0.78680  Biso   1.000  H
  C588     1.0000 0.33970  0.71490  0.82840  Biso   1.000  C
  H341     1.0000 0.35400  0.69680  0.82450  Biso   1.000  H
  C589     1.0000 0.32730  0.56770  0.86700  Biso   1.000  C
  C590     1.0000 0.31570  0.56150  0.82320  Biso   1.000  C
  H342     1.0000 0.30610  0.58080  0.80800  Biso   1.000  H
  C591     1.0000 0.31810  0.52640  0.80040  Biso   1.000  C
  H343     1.0000 0.31050  0.52280  0.77060  Biso   1.000  H
  C592     1.0000 0.33180  0.49770  0.82370  Biso   1.000  C
  C593     1.0000 0.34420  0.50520  0.86750  Biso   1.000  C
  H344     1.0000 0.35450  0.48660  0.88290  Biso   1.000  H
  C594     1.0000 0.34130  0.53970  0.88800  Biso   1.000  C
  H345     1.0000 0.34930  0.54370  0.91740  Biso   1.000  H
  C595     1.0000 0.27520  0.64620  0.15270  Biso   1.000  C
  C596     1.0000 0.32140  0.81080  0.78140  Biso   1.000  C
  C597     1.0000 0.33150  0.45960  0.80360  Biso   1.000  C
  C598     1.0000 0.27640  0.57370  0.35390  Biso   1.000  C
  C599     1.0000 0.24980  0.55850  0.34610  Biso   1.000  C
  H346     1.0000 0.24160  0.56040  0.31650  Biso   1.000  H
  C600     1.0000 0.23420  0.53990  0.38160  Biso   1.000  C
  H347     1.0000 0.21620  0.52920  0.37560  Biso   1.000  H
  C601     1.0000 0.24650  0.53810  0.42530  Biso   1.000  C
  C602     1.0000 0.27340  0.55380  0.43330  Biso   1.000  C
  H348     1.0000 0.28160  0.55200  0.46290  Biso   1.000  H
  C603     1.0000 0.28830  0.57180  0.39880  Biso   1.000  C
  H349     1.0000 0.30620  0.58270  0.40500  Biso   1.000  H
  C604     1.0000 0.22960  0.51840  0.46410  Biso   1.000  C
  C605     1.0000 0.20050  0.51800  0.46550  Biso   1.000  C
  H350     1.0000 0.19020  0.53050  0.44230  Biso   1.000  H
  C606     1.0000 0.13770  0.52930  0.48200  Biso   1.000  C
  H351     1.0000 0.14760  0.54950  0.46930  Biso   1.000  H
  C607     1.0000 0.10910  0.52970  0.48210  Biso   1.000  C
  H352     1.0000 0.09960  0.55040  0.46990  Biso   1.000  H
  C608     1.0000 0.29350  0.59270  0.31630  Biso   1.000  C
  O136     1.0000 0.28870  0.62900  0.18500  Biso   1.000  O
  O137     1.0000 0.25320  0.66540  0.16300  Biso   1.000  O
  O138     1.0000 0.34210  0.43320  0.82720  Biso   1.000  O
  O139     1.0000 0.32190  0.45420  0.76280  Biso   1.000  O
  O140     1.0000 0.34780  0.82430  0.77680  Biso   1.000  O
  O141     1.0000 0.30060  0.82720  0.76800  Biso   1.000  O
  O142     1.0000 0.27910  0.60030  0.27730  Biso   1.000  O
  O143     1.0000 0.31940  0.59890  0.32020  Biso   1.000  O
  O144     1.0000 0.04670  0.47200  0.51690  Biso   1.000  O
  Ce17     1.0000 0.25000  0.15403  0.25000  Biso   1.000  Ce
  Ce18     1.0000 0.75000  0.34597  0.75000  Biso   1.000  Ce
  Ce19     1.0000 0.75000  0.65403  0.25000  Biso   1.000  Ce
  Ce20     1.0000 0.25000  0.84597  0.75000  Biso   1.000  Ce
  Ce21     1.0000 0.75000  0.84597  0.75000  Biso   1.000  Ce
  Ce22     1.0000 0.25000  0.65403  0.25000  Biso   1.000  Ce
  Ce23     1.0000 0.25000  0.34597  0.75000  Biso   1.000  Ce
  Ce24     1.0000 0.75000  0.15403  0.25000  Biso   1.000  Ce
  Ce25     1.0000 0.50000  0.94490  0.52940  Biso   1.000  Ce
  O145     1.0000 0.50000  0.01730  0.56000  Biso   1.000  O
  Ce26     1.0000 0.00000  0.44490  0.52940  Biso   1.000  Ce
  O146     1.0000 0.00000  0.51730  0.56000  Biso   1.000  O
  Ce27     1.0000 0.50000  0.55510  0.02940  Biso   1.000  Ce
  O147     1.0000 0.50000  0.48270  0.06000  Biso   1.000  O
  Ce28     1.0000 0.00000  0.05510  0.02940  Biso   1.000  Ce
  O148     1.0000 0.00000  0.98270  0.06000  Biso   1.000  O
  Ce29     1.0000 0.50000  0.44490  0.97060  Biso   1.000  Ce
  O149     1.0000 0.50000  0.51730  0.94000  Biso   1.000  O
  Ce30     1.0000 0.00000  0.94490  0.97060  Biso   1.000  Ce
  O150     1.0000 0.00000  0.01730  0.94000  Biso   1.000  O
  Ce31     1.0000 0.50000  0.05510  0.47060  Biso   1.000  Ce
  O151     1.0000 0.50000  0.98270  0.44000  Biso   1.000  O
  Ce32     1.0000 0.00000  0.55510  0.47060  Biso   1.000  Ce
  O152     1.0000 0.00000  0.48270  0.44000  Biso   1.000  O
  C609     1.0000 0.25520  0.00000  0.50000  Biso   1.000  C
  H353     1.0000 0.23500  0.00000  0.50000  Biso   1.000  H
  C610     1.0000 0.31470  0.00000  0.50000  Biso   1.000  C
  C611     1.0000 0.34660  0.00000  0.50000  Biso   1.000  C
  C612     1.0000 0.40750  0.00000  0.50000  Biso   1.000  C
  C613     1.0000 0.44060  0.00000  0.50000  Biso   1.000  C
  C614     1.0000 0.75520  0.50000  0.50000  Biso   1.000  C
  H354     1.0000 0.73500  0.50000  0.50000  Biso   1.000  H
  C615     1.0000 0.81470  0.50000  0.50000  Biso   1.000  C
  C616     1.0000 0.84660  0.50000  0.50000  Biso   1.000  C
  C617     1.0000 0.90750  0.50000  0.50000  Biso   1.000  C
  C618     1.0000 0.94060  0.50000  0.50000  Biso   1.000  C
  C619     1.0000 0.74480  0.50000  0.00000  Biso   1.000  C
  H355     1.0000 0.76500  0.50000  0.00000  Biso   1.000  H
  C620     1.0000 0.68530  0.50000  0.00000  Biso   1.000  C
  C621     1.0000 0.65340  0.50000  0.00000  Biso   1.000  C
  C622     1.0000 0.59250  0.50000  0.00000  Biso   1.000  C
  C623     1.0000 0.55940  0.50000  0.00000  Biso   1.000  C
  C624     1.0000 0.24480  0.00000  0.00000  Biso   1.000  C
  H356     1.0000 0.26500  0.00000  0.00000  Biso   1.000  H
  C625     1.0000 0.18530  0.00000  0.00000  Biso   1.000  C
  C626     1.0000 0.15340  0.00000  0.00000  Biso   1.000  C
  C627     1.0000 0.09250  0.00000  0.00000  Biso   1.000  C
  C628     1.0000 0.05940  0.00000  0.00000  Biso   1.000  C
  C629     1.0000 0.74480  0.00000  0.50000  Biso   1.000  C
  H357     1.0000 0.76500  0.00000  0.50000  Biso   1.000  H
  C630     1.0000 0.68530  0.00000  0.50000  Biso   1.000  C
  C631     1.0000 0.65340  0.00000  0.50000  Biso   1.000  C
  C632     1.0000 0.59250  0.00000  0.50000  Biso   1.000  C
  C633     1.0000 0.55940  0.00000  0.50000  Biso   1.000  C
  C634     1.0000 0.24480  0.50000  0.50000  Biso   1.000  C
  H358     1.0000 0.26500  0.50000  0.50000  Biso   1.000  H
  C635     1.0000 0.18530  0.50000  0.50000  Biso   1.000  C
  C636     1.0000 0.15340  0.50000  0.50000  Biso   1.000  C
  C637     1.0000 0.09250  0.50000  0.50000  Biso   1.000  C
  C638     1.0000 0.05940  0.50000  0.50000  Biso   1.000  C
  C639     1.0000 0.25520  0.50000  0.00000  Biso   1.000  C
  H359     1.0000 0.23500  0.50000  0.00000  Biso   1.000  H
  C640     1.0000 0.31470  0.50000  0.00000  Biso   1.000  C
  C641     1.0000 0.34660  0.50000  0.00000  Biso   1.000  C
  C642     1.0000 0.40750  0.50000  0.00000  Biso   1.000  C
  C643     1.0000 0.44060  0.50000  0.00000  Biso   1.000  C
  C644     1.0000 0.75520  0.00000  0.00000  Biso   1.000  C
  H360     1.0000 0.73500  0.00000  0.00000  Biso   1.000  H
  C645     1.0000 0.81470  0.00000  0.00000  Biso   1.000  C
  C646     1.0000 0.84660  0.00000  0.00000  Biso   1.000  C
  C647     1.0000 0.90750  0.00000  0.00000  Biso   1.000  C
  C648     1.0000 0.94060  0.00000  0.00000  Biso   1.000  C
