data_image0
_cell_length_a       29.535
_cell_length_b       29.535
_cell_length_c       28.0993
_cell_angle_alpha    90
_cell_angle_beta     90
_cell_angle_gamma    90

_symmetry_space_group_name_H-M    "P 1"
_symmetry_int_tables_number       1

loop_
  _symmetry_equiv_pos_as_xyz
  'x, y, z'

loop_
  _atom_site_label
  _atom_site_occupancy
  _atom_site_fract_x
  _atom_site_fract_y
  _atom_site_fract_z
  _atom_site_thermal_displace_type
  _atom_site_B_iso_or_equiv
  _atom_site_type_symbol
  Cu1      1.0000 0.18787  0.17381  0.23479  Biso   1.000  Cu
  Cu2      1.0000 0.14191  0.13118  0.30200  Biso   1.000  Cu
  O1       1.0000 0.05526  0.27762  0.45106  Biso   1.000  O
  O2       1.0000 0.05786  0.35295  0.45023  Biso   1.000  O
  O3       1.0000 0.16710  0.38760  0.31531  Biso   1.000  O
  O4       1.0000 0.14765  0.59743  0.33124  Biso   1.000  O
  O5       1.0000 0.16025  0.75945  0.27475  Biso   1.000  O
  O6       1.0000 0.12392  0.79853  0.33049  Biso   1.000  O
  O7       1.0000 0.03704  0.71846  0.45182  Biso   1.000  O
  O8       1.0000 0.03425  0.64225  0.45114  Biso   1.000  O
  O9       1.0000 0.13764  0.19155  0.33072  Biso   1.000  O
  O10      1.0000 0.17642  0.22765  0.27359  Biso   1.000  O
  O11      1.0000 0.19194  0.11285  0.20822  Biso   1.000  O
  O12      1.0000 0.15257  0.07714  0.26454  Biso   1.000  O
  O13      1.0000 0.14536  0.91134  0.26446  Biso   1.000  O
  O14      1.0000 0.18166  0.87289  0.20780  Biso   1.000  O
  O15      1.0000 0.25220  0.99211  0.10450  Biso   1.000  O
  C1       1.0000 0.11346  0.27225  0.37334  Biso   1.000  C
  H1       1.0000 0.10130  0.24490  0.38570  Biso   1.000  H
  C2       1.0000 0.16800  0.90870  0.22630  Biso   1.000  C
  C3       1.0000 0.14312  0.27056  0.33453  Biso   1.000  C
  C4       1.0000 0.16045  0.31065  0.31710  Biso   1.000  C
  H2       1.0000 0.18120  0.30990  0.29130  Biso   1.000  H
  C5       1.0000 0.14810  0.35225  0.33660  Biso   1.000  C
  C6       1.0000 0.11926  0.35314  0.37560  Biso   1.000  C
  H3       1.0000 0.11130  0.38110  0.39000  Biso   1.000  H
  C7       1.0000 0.10186  0.31237  0.39359  Biso   1.000  C
  C8       1.0000 0.15440  0.42870  0.33040  Biso   1.000  C
  H4       1.0000 0.16670  0.43410  0.36270  Biso   1.000  H
  H5       1.0000 0.12100  0.43020  0.33220  Biso   1.000  H
  C9       1.0000 0.17220  0.46568  0.29580  Biso   1.000  C
  C10      1.0000 0.19490  0.45520  0.25750  Biso   1.000  C
  H6       1.0000 0.19870  0.42420  0.24930  Biso   1.000  H
  C11      1.0000 0.21380  0.48830  0.22830  Biso   1.000  C
  H7       1.0000 0.23290  0.48000  0.20250  Biso   1.000  H
  C12      1.0000 0.20470  0.53270  0.23740  Biso   1.000  C
  H8       1.0000 0.21570  0.55560  0.21670  Biso   1.000  H
  C13      1.0000 0.17950  0.54440  0.27640  Biso   1.000  C
  C14      1.0000 0.16430  0.51080  0.30510  Biso   1.000  C
  H9       1.0000 0.14750  0.51860  0.33270  Biso   1.000  H
  C15      1.0000 0.17190  0.59450  0.28810  Biso   1.000  C
  H10      1.0000 0.20140  0.61020  0.29130  Biso   1.000  H
  H11      1.0000 0.15460  0.60930  0.26220  Biso   1.000  H
  C16      1.0000 0.13260  0.63895  0.34390  Biso   1.000  C
  C17      1.0000 0.14518  0.67879  0.32220  Biso   1.000  C
  H12      1.0000 0.16630  0.67860  0.29670  Biso   1.000  H
  C18      1.0000 0.12663  0.71928  0.33800  Biso   1.000  C
  C19      1.0000 0.09641  0.71961  0.37490  Biso   1.000  C
  H13      1.0000 0.08390  0.74750  0.38530  Biso   1.000  H
  C20      1.0000 0.08389  0.67998  0.39710  Biso   1.000  C
  C21      1.0000 0.10150  0.63830  0.38100  Biso   1.000  C
  H14      1.0000 0.09230  0.61050  0.39520  Biso   1.000  H
  C22      1.0000 0.15355  0.22712  0.31220  Biso   1.000  C
  C23      1.0000 0.06989  0.31423  0.43440  Biso   1.000  C
  C24      1.0000 0.13825  0.76136  0.31320  Biso   1.000  C
  C25      1.0000 0.04977  0.67970  0.43568  Biso   1.000  C
  C26      1.0000 0.18610  0.03310  0.20320  Biso   1.000  C
  C27      1.0000 0.21310  0.03130  0.16330  Biso   1.000  C
  H15      1.0000 0.22340  0.05860  0.14900  Biso   1.000  H
  C28      1.0000 0.22510  0.99040  0.14430  Biso   1.000  C
  C29      1.0000 0.20860  0.95040  0.16370  Biso   1.000  C
  H16      1.0000 0.21630  0.92210  0.14990  Biso   1.000  H
  C30      1.0000 0.18100  0.95190  0.20320  Biso   1.000  C
  C31      1.0000 0.17010  0.99279  0.22320  Biso   1.000  C
  H17      1.0000 0.15150  0.99380  0.25080  Biso   1.000  H
  C32      1.0000 0.27080  0.95350  0.08760  Biso   1.000  C
  H18      1.0000 0.24690  0.93070  0.08120  Biso   1.000  H
  H19      1.0000 0.29230  0.94070  0.11110  Biso   1.000  H
  C33      1.0000 0.29610  0.96620  0.04050  Biso   1.000  C
  C34      1.0000 0.34080  0.96820  0.04260  Biso   1.000  C
  H20      1.0000 0.35680  0.96760  0.07200  Biso   1.000  H
  C35      1.0000 0.17640  0.07764  0.22670  Biso   1.000  C
  C36      1.0000 0.23190  0.17300  0.14090  Biso   1.000  C
  H21      1.0000 0.22590  0.14180  0.14610  Biso   1.000  H
  C37      1.0000 0.25130  0.18700  0.09830  Biso   1.000  C
  H22      1.0000 0.25850  0.16540  0.07440  Biso   1.000  H
  C38      1.0000 0.26010  0.23270  0.09070  Biso   1.000  C
  H23      1.0000 0.27340  0.24230  0.06150  Biso   1.000  H
  C39      1.0000 0.24960  0.26430  0.12560  Biso   1.000  C
  H24      1.0000 0.25560  0.29550  0.12040  Biso   1.000  H
  C40      1.0000 0.23020  0.25020  0.16820  Biso   1.000  C
  H25      1.0000 0.22300  0.27180  0.19200  Biso   1.000  H
  N1       1.0000 0.22134  0.20460  0.17580  Biso   1.000  N
  Cu3      1.0000 0.81213  0.82619  0.23479  Biso   1.000  Cu
  Cu4      1.0000 0.85809  0.86882  0.30200  Biso   1.000  Cu
  O16      1.0000 0.94474  0.72238  0.45106  Biso   1.000  O
  O17      1.0000 0.94214  0.64705  0.45023  Biso   1.000  O
  O18      1.0000 0.83290  0.61240  0.31531  Biso   1.000  O
  O19      1.0000 0.85235  0.40257  0.33124  Biso   1.000  O
  O20      1.0000 0.83975  0.24055  0.27475  Biso   1.000  O
  O21      1.0000 0.87608  0.20147  0.33049  Biso   1.000  O
  O22      1.0000 0.96296  0.28154  0.45182  Biso   1.000  O
  O23      1.0000 0.96575  0.35775  0.45114  Biso   1.000  O
  O24      1.0000 0.86236  0.80845  0.33072  Biso   1.000  O
  O25      1.0000 0.82358  0.77235  0.27359  Biso   1.000  O
  O26      1.0000 0.80806  0.88715  0.20822  Biso   1.000  O
  O27      1.0000 0.84743  0.92286  0.26454  Biso   1.000  O
  O28      1.0000 0.85464  0.08866  0.26446  Biso   1.000  O
  O29      1.0000 0.81834  0.12711  0.20780  Biso   1.000  O
  O30      1.0000 0.74780  0.00789  0.10450  Biso   1.000  O
  C41      1.0000 0.88654  0.72775  0.37334  Biso   1.000  C
  H26      1.0000 0.89870  0.75510  0.38570  Biso   1.000  H
  C42      1.0000 0.83200  0.09130  0.22630  Biso   1.000  C
  C43      1.0000 0.85688  0.72944  0.33453  Biso   1.000  C
  C44      1.0000 0.83955  0.68935  0.31710  Biso   1.000  C
  H27      1.0000 0.81880  0.69010  0.29130  Biso   1.000  H
  C45      1.0000 0.85190  0.64775  0.33660  Biso   1.000  C
  C46      1.0000 0.88074  0.64686  0.37560  Biso   1.000  C
  H28      1.0000 0.88870  0.61890  0.39000  Biso   1.000  H
  C47      1.0000 0.89814  0.68763  0.39359  Biso   1.000  C
  C48      1.0000 0.84560  0.57130  0.33040  Biso   1.000  C
  H29      1.0000 0.83330  0.56590  0.36270  Biso   1.000  H
  H30      1.0000 0.87900  0.56980  0.33220  Biso   1.000  H
  C49      1.0000 0.82780  0.53432  0.29580  Biso   1.000  C
  C50      1.0000 0.80510  0.54480  0.25750  Biso   1.000  C
  H31      1.0000 0.80130  0.57580  0.24930  Biso   1.000  H
  C51      1.0000 0.78620  0.51170  0.22830  Biso   1.000  C
  H32      1.0000 0.76710  0.52000  0.20250  Biso   1.000  H
  C52      1.0000 0.79530  0.46730  0.23740  Biso   1.000  C
  H33      1.0000 0.78430  0.44440  0.21670  Biso   1.000  H
  C53      1.0000 0.82050  0.45560  0.27640  Biso   1.000  C
  C54      1.0000 0.83570  0.48920  0.30510  Biso   1.000  C
  H34      1.0000 0.85250  0.48140  0.33270  Biso   1.000  H
  C55      1.0000 0.82810  0.40550  0.28810  Biso   1.000  C
  H35      1.0000 0.79860  0.38980  0.29130  Biso   1.000  H
  H36      1.0000 0.84540  0.39070  0.26220  Biso   1.000  H
  C56      1.0000 0.86740  0.36105  0.34390  Biso   1.000  C
  C57      1.0000 0.85482  0.32121  0.32220  Biso   1.000  C
  H37      1.0000 0.83370  0.32140  0.29670  Biso   1.000  H
  C58      1.0000 0.87337  0.28072  0.33800  Biso   1.000  C
  C59      1.0000 0.90359  0.28039  0.37490  Biso   1.000  C
  H38      1.0000 0.91610  0.25250  0.38530  Biso   1.000  H
  C60      1.0000 0.91611  0.32002  0.39710  Biso   1.000  C
  C61      1.0000 0.89850  0.36170  0.38100  Biso   1.000  C
  H39      1.0000 0.90770  0.38950  0.39520  Biso   1.000  H
  C62      1.0000 0.84645  0.77288  0.31220  Biso   1.000  C
  C63      1.0000 0.93011  0.68577  0.43440  Biso   1.000  C
  C64      1.0000 0.86175  0.23864  0.31320  Biso   1.000  C
  C65      1.0000 0.95023  0.32030  0.43568  Biso   1.000  C
  C66      1.0000 0.81390  0.96690  0.20320  Biso   1.000  C
  C67      1.0000 0.78690  0.96870  0.16330  Biso   1.000  C
  H40      1.0000 0.77660  0.94140  0.14900  Biso   1.000  H
  C68      1.0000 0.77490  0.00960  0.14430  Biso   1.000  C
  C69      1.0000 0.79140  0.04960  0.16370  Biso   1.000  C
  H41      1.0000 0.78370  0.07790  0.14990  Biso   1.000  H
  C70      1.0000 0.81900  0.04810  0.20320  Biso   1.000  C
  C71      1.0000 0.82990  0.00721  0.22320  Biso   1.000  C
  H42      1.0000 0.84850  0.00620  0.25080  Biso   1.000  H
  C72      1.0000 0.72920  0.04650  0.08760  Biso   1.000  C
  H43      1.0000 0.75310  0.06930  0.08120  Biso   1.000  H
  H44      1.0000 0.70770  0.05930  0.11110  Biso   1.000  H
  C73      1.0000 0.70390  0.03380  0.04050  Biso   1.000  C
  C74      1.0000 0.65920  0.03180  0.04260  Biso   1.000  C
  H45      1.0000 0.64320  0.03240  0.07200  Biso   1.000  H
  C75      1.0000 0.82360  0.92236  0.22670  Biso   1.000  C
  C76      1.0000 0.76810  0.82700  0.14090  Biso   1.000  C
  H46      1.0000 0.77410  0.85820  0.14610  Biso   1.000  H
  C77      1.0000 0.74870  0.81300  0.09830  Biso   1.000  C
  H47      1.0000 0.74150  0.83460  0.07440  Biso   1.000  H
  C78      1.0000 0.73990  0.76730  0.09070  Biso   1.000  C
  H48      1.0000 0.72660  0.75770  0.06150  Biso   1.000  H
  C79      1.0000 0.75040  0.73570  0.12560  Biso   1.000  C
  H49      1.0000 0.74440  0.70450  0.12040  Biso   1.000  H
  C80      1.0000 0.76980  0.74980  0.16820  Biso   1.000  C
  H50      1.0000 0.77700  0.72820  0.19200  Biso   1.000  H
  N2       1.0000 0.77866  0.79540  0.17580  Biso   1.000  N
  Cu5      1.0000 0.82619  0.18787  0.23479  Biso   1.000  Cu
  Cu6      1.0000 0.86882  0.14191  0.30200  Biso   1.000  Cu
  O31      1.0000 0.72238  0.05526  0.45106  Biso   1.000  O
  O32      1.0000 0.64705  0.05786  0.45023  Biso   1.000  O
  O33      1.0000 0.61240  0.16710  0.31531  Biso   1.000  O
  O34      1.0000 0.40257  0.14765  0.33124  Biso   1.000  O
  O35      1.0000 0.24055  0.16025  0.27475  Biso   1.000  O
  O36      1.0000 0.20147  0.12392  0.33049  Biso   1.000  O
  O37      1.0000 0.28154  0.03704  0.45182  Biso   1.000  O
  O38      1.0000 0.35775  0.03425  0.45114  Biso   1.000  O
  O39      1.0000 0.80845  0.13764  0.33072  Biso   1.000  O
  O40      1.0000 0.77235  0.17642  0.27359  Biso   1.000  O
  O41      1.0000 0.88715  0.19194  0.20822  Biso   1.000  O
  O42      1.0000 0.92286  0.15257  0.26454  Biso   1.000  O
  O43      1.0000 0.08866  0.14536  0.26446  Biso   1.000  O
  O44      1.0000 0.12711  0.18166  0.20780  Biso   1.000  O
  O45      1.0000 0.00789  0.25220  0.10450  Biso   1.000  O
  C81      1.0000 0.72775  0.11346  0.37334  Biso   1.000  C
  H51      1.0000 0.75510  0.10130  0.38570  Biso   1.000  H
  C82      1.0000 0.09130  0.16800  0.22630  Biso   1.000  C
  C83      1.0000 0.72944  0.14312  0.33453  Biso   1.000  C
  C84      1.0000 0.68935  0.16045  0.31710  Biso   1.000  C
  H52      1.0000 0.69010  0.18120  0.29130  Biso   1.000  H
  C85      1.0000 0.64775  0.14810  0.33660  Biso   1.000  C
  C86      1.0000 0.64686  0.11926  0.37560  Biso   1.000  C
  H53      1.0000 0.61890  0.11130  0.39000  Biso   1.000  H
  C87      1.0000 0.68763  0.10186  0.39359  Biso   1.000  C
  C88      1.0000 0.57130  0.15440  0.33040  Biso   1.000  C
  H54      1.0000 0.56590  0.16670  0.36270  Biso   1.000  H
  H55      1.0000 0.56980  0.12100  0.33220  Biso   1.000  H
  C89      1.0000 0.53432  0.17220  0.29580  Biso   1.000  C
  C90      1.0000 0.54480  0.19490  0.25750  Biso   1.000  C
  H56      1.0000 0.57580  0.19870  0.24930  Biso   1.000  H
  C91      1.0000 0.51170  0.21380  0.22830  Biso   1.000  C
  H57      1.0000 0.52000  0.23290  0.20250  Biso   1.000  H
  C92      1.0000 0.46730  0.20470  0.23740  Biso   1.000  C
  H58      1.0000 0.44440  0.21570  0.21670  Biso   1.000  H
  C93      1.0000 0.45560  0.17950  0.27640  Biso   1.000  C
  C94      1.0000 0.48920  0.16430  0.30510  Biso   1.000  C
  H59      1.0000 0.48140  0.14750  0.33270  Biso   1.000  H
  C95      1.0000 0.40550  0.17190  0.28810  Biso   1.000  C
  H60      1.0000 0.38980  0.20140  0.29130  Biso   1.000  H
  H61      1.0000 0.39070  0.15460  0.26220  Biso   1.000  H
  C96      1.0000 0.36105  0.13260  0.34390  Biso   1.000  C
  C97      1.0000 0.32121  0.14518  0.32220  Biso   1.000  C
  H62      1.0000 0.32140  0.16630  0.29670  Biso   1.000  H
  C98      1.0000 0.28072  0.12663  0.33800  Biso   1.000  C
  C99      1.0000 0.28039  0.09641  0.37490  Biso   1.000  C
  H63      1.0000 0.25250  0.08390  0.38530  Biso   1.000  H
  C100     1.0000 0.32002  0.08389  0.39710  Biso   1.000  C
  C101     1.0000 0.36170  0.10150  0.38100  Biso   1.000  C
  H64      1.0000 0.38950  0.09230  0.39520  Biso   1.000  H
  C102     1.0000 0.77288  0.15355  0.31220  Biso   1.000  C
  C103     1.0000 0.68577  0.06989  0.43440  Biso   1.000  C
  C104     1.0000 0.23864  0.13825  0.31320  Biso   1.000  C
  C105     1.0000 0.32030  0.04977  0.43568  Biso   1.000  C
  C106     1.0000 0.96690  0.18610  0.20320  Biso   1.000  C
  C107     1.0000 0.96870  0.21310  0.16330  Biso   1.000  C
  H65      1.0000 0.94140  0.22340  0.14900  Biso   1.000  H
  C108     1.0000 0.00960  0.22510  0.14430  Biso   1.000  C
  C109     1.0000 0.04960  0.20860  0.16370  Biso   1.000  C
  H66      1.0000 0.07790  0.21630  0.14990  Biso   1.000  H
  C110     1.0000 0.04810  0.18100  0.20320  Biso   1.000  C
  C111     1.0000 0.00721  0.17010  0.22320  Biso   1.000  C
  H67      1.0000 0.00620  0.15150  0.25080  Biso   1.000  H
  C112     1.0000 0.04650  0.27080  0.08760  Biso   1.000  C
  H68      1.0000 0.06930  0.24690  0.08120  Biso   1.000  H
  H69      1.0000 0.05930  0.29230  0.11110  Biso   1.000  H
  C113     1.0000 0.03380  0.29610  0.04050  Biso   1.000  C
  C114     1.0000 0.03180  0.34080  0.04260  Biso   1.000  C
  H70      1.0000 0.03240  0.35680  0.07200  Biso   1.000  H
  C115     1.0000 0.92236  0.17640  0.22670  Biso   1.000  C
  C116     1.0000 0.82700  0.23190  0.14090  Biso   1.000  C
  H71      1.0000 0.85820  0.22590  0.14610  Biso   1.000  H
  C117     1.0000 0.81300  0.25130  0.09830  Biso   1.000  C
  H72      1.0000 0.83460  0.25850  0.07440  Biso   1.000  H
  C118     1.0000 0.76730  0.26010  0.09070  Biso   1.000  C
  H73      1.0000 0.75770  0.27340  0.06150  Biso   1.000  H
  C119     1.0000 0.73570  0.24960  0.12560  Biso   1.000  C
  H74      1.0000 0.70450  0.25560  0.12040  Biso   1.000  H
  C120     1.0000 0.74980  0.23020  0.16820  Biso   1.000  C
  H75      1.0000 0.72820  0.22300  0.19200  Biso   1.000  H
  N3       1.0000 0.79540  0.22134  0.17580  Biso   1.000  N
  Cu7      1.0000 0.17381  0.81213  0.23479  Biso   1.000  Cu
  Cu8      1.0000 0.13118  0.85809  0.30200  Biso   1.000  Cu
  O46      1.0000 0.27762  0.94474  0.45106  Biso   1.000  O
  O47      1.0000 0.35295  0.94214  0.45023  Biso   1.000  O
  O48      1.0000 0.38760  0.83290  0.31531  Biso   1.000  O
  O49      1.0000 0.59743  0.85235  0.33124  Biso   1.000  O
  O50      1.0000 0.75945  0.83975  0.27475  Biso   1.000  O
  O51      1.0000 0.79853  0.87608  0.33049  Biso   1.000  O
  O52      1.0000 0.71846  0.96296  0.45182  Biso   1.000  O
  O53      1.0000 0.64225  0.96575  0.45114  Biso   1.000  O
  O54      1.0000 0.19155  0.86236  0.33072  Biso   1.000  O
  O55      1.0000 0.22765  0.82358  0.27359  Biso   1.000  O
  O56      1.0000 0.11285  0.80806  0.20822  Biso   1.000  O
  O57      1.0000 0.07714  0.84743  0.26454  Biso   1.000  O
  O58      1.0000 0.91134  0.85464  0.26446  Biso   1.000  O
  O59      1.0000 0.87289  0.81834  0.20780  Biso   1.000  O
  O60      1.0000 0.99211  0.74780  0.10450  Biso   1.000  O
  C121     1.0000 0.27225  0.88654  0.37334  Biso   1.000  C
  H76      1.0000 0.24490  0.89870  0.38570  Biso   1.000  H
  C122     1.0000 0.90870  0.83200  0.22630  Biso   1.000  C
  C123     1.0000 0.27056  0.85688  0.33453  Biso   1.000  C
  C124     1.0000 0.31065  0.83955  0.31710  Biso   1.000  C
  H77      1.0000 0.30990  0.81880  0.29130  Biso   1.000  H
  C125     1.0000 0.35225  0.85190  0.33660  Biso   1.000  C
  C126     1.0000 0.35314  0.88074  0.37560  Biso   1.000  C
  H78      1.0000 0.38110  0.88870  0.39000  Biso   1.000  H
  C127     1.0000 0.31237  0.89814  0.39359  Biso   1.000  C
  C128     1.0000 0.42870  0.84560  0.33040  Biso   1.000  C
  H79      1.0000 0.43410  0.83330  0.36270  Biso   1.000  H
  H80      1.0000 0.43020  0.87900  0.33220  Biso   1.000  H
  C129     1.0000 0.46568  0.82780  0.29580  Biso   1.000  C
  C130     1.0000 0.45520  0.80510  0.25750  Biso   1.000  C
  H81      1.0000 0.42420  0.80130  0.24930  Biso   1.000  H
  C131     1.0000 0.48830  0.78620  0.22830  Biso   1.000  C
  H82      1.0000 0.48000  0.76710  0.20250  Biso   1.000  H
  C132     1.0000 0.53270  0.79530  0.23740  Biso   1.000  C
  H83      1.0000 0.55560  0.78430  0.21670  Biso   1.000  H
  C133     1.0000 0.54440  0.82050  0.27640  Biso   1.000  C
  C134     1.0000 0.51080  0.83570  0.30510  Biso   1.000  C
  H84      1.0000 0.51860  0.85250  0.33270  Biso   1.000  H
  C135     1.0000 0.59450  0.82810  0.28810  Biso   1.000  C
  H85      1.0000 0.61020  0.79860  0.29130  Biso   1.000  H
  H86      1.0000 0.60930  0.84540  0.26220  Biso   1.000  H
  C136     1.0000 0.63895  0.86740  0.34390  Biso   1.000  C
  C137     1.0000 0.67879  0.85482  0.32220  Biso   1.000  C
  H87      1.0000 0.67860  0.83370  0.29670  Biso   1.000  H
  C138     1.0000 0.71928  0.87337  0.33800  Biso   1.000  C
  C139     1.0000 0.71961  0.90359  0.37490  Biso   1.000  C
  H88      1.0000 0.74750  0.91610  0.38530  Biso   1.000  H
  C140     1.0000 0.67998  0.91611  0.39710  Biso   1.000  C
  C141     1.0000 0.63830  0.89850  0.38100  Biso   1.000  C
  H89      1.0000 0.61050  0.90770  0.39520  Biso   1.000  H
  C142     1.0000 0.22712  0.84645  0.31220  Biso   1.000  C
  C143     1.0000 0.31423  0.93011  0.43440  Biso   1.000  C
  C144     1.0000 0.76136  0.86175  0.31320  Biso   1.000  C
  C145     1.0000 0.67970  0.95023  0.43568  Biso   1.000  C
  C146     1.0000 0.03310  0.81390  0.20320  Biso   1.000  C
  C147     1.0000 0.03130  0.78690  0.16330  Biso   1.000  C
  H90      1.0000 0.05860  0.77660  0.14900  Biso   1.000  H
  C148     1.0000 0.99040  0.77490  0.14430  Biso   1.000  C
  C149     1.0000 0.95040  0.79140  0.16370  Biso   1.000  C
  H91      1.0000 0.92210  0.78370  0.14990  Biso   1.000  H
  C150     1.0000 0.95190  0.81900  0.20320  Biso   1.000  C
  C151     1.0000 0.99279  0.82990  0.22320  Biso   1.000  C
  H92      1.0000 0.99380  0.84850  0.25080  Biso   1.000  H
  C152     1.0000 0.95350  0.72920  0.08760  Biso   1.000  C
  H93      1.0000 0.93070  0.75310  0.08120  Biso   1.000  H
  H94      1.0000 0.94070  0.70770  0.11110  Biso   1.000  H
  C153     1.0000 0.96620  0.70390  0.04050  Biso   1.000  C
  C154     1.0000 0.96820  0.65920  0.04260  Biso   1.000  C
  H95      1.0000 0.96760  0.64320  0.07200  Biso   1.000  H
  C155     1.0000 0.07764  0.82360  0.22670  Biso   1.000  C
  C156     1.0000 0.17300  0.76810  0.14090  Biso   1.000  C
  H96      1.0000 0.14180  0.77410  0.14610  Biso   1.000  H
  C157     1.0000 0.18700  0.74870  0.09830  Biso   1.000  C
  H97      1.0000 0.16540  0.74150  0.07440  Biso   1.000  H
  C158     1.0000 0.23270  0.73990  0.09070  Biso   1.000  C
  H98      1.0000 0.24230  0.72660  0.06150  Biso   1.000  H
  C159     1.0000 0.26430  0.75040  0.12560  Biso   1.000  C
  H99      1.0000 0.29550  0.74440  0.12040  Biso   1.000  H
  C160     1.0000 0.25020  0.76980  0.16820  Biso   1.000  C
  H100     1.0000 0.27180  0.77700  0.19200  Biso   1.000  H
  N4       1.0000 0.20460  0.77866  0.17580  Biso   1.000  N
  Cu9      1.0000 0.81213  0.82619  0.76521  Biso   1.000  Cu
  Cu10     1.0000 0.85809  0.86882  0.69800  Biso   1.000  Cu
  O61      1.0000 0.94474  0.72238  0.54894  Biso   1.000  O
  O62      1.0000 0.94214  0.64705  0.54977  Biso   1.000  O
  O63      1.0000 0.83290  0.61240  0.68469  Biso   1.000  O
  O64      1.0000 0.85235  0.40257  0.66876  Biso   1.000  O
  O65      1.0000 0.83975  0.24055  0.72525  Biso   1.000  O
  O66      1.0000 0.87608  0.20147  0.66951  Biso   1.000  O
  O67      1.0000 0.96296  0.28154  0.54818  Biso   1.000  O
  O68      1.0000 0.96575  0.35775  0.54886  Biso   1.000  O
  O69      1.0000 0.86236  0.80845  0.66928  Biso   1.000  O
  O70      1.0000 0.82358  0.77235  0.72641  Biso   1.000  O
  O71      1.0000 0.80806  0.88715  0.79178  Biso   1.000  O
  O72      1.0000 0.84743  0.92286  0.73546  Biso   1.000  O
  O73      1.0000 0.85464  0.08866  0.73554  Biso   1.000  O
  O74      1.0000 0.81834  0.12711  0.79220  Biso   1.000  O
  O75      1.0000 0.74780  0.00789  0.89550  Biso   1.000  O
  C161     1.0000 0.88654  0.72775  0.62666  Biso   1.000  C
  H101     1.0000 0.89870  0.75510  0.61430  Biso   1.000  H
  C162     1.0000 0.83200  0.09130  0.77370  Biso   1.000  C
  C163     1.0000 0.85688  0.72944  0.66547  Biso   1.000  C
  C164     1.0000 0.83955  0.68935  0.68290  Biso   1.000  C
  H102     1.0000 0.81880  0.69010  0.70870  Biso   1.000  H
  C165     1.0000 0.85190  0.64775  0.66340  Biso   1.000  C
  C166     1.0000 0.88074  0.64686  0.62440  Biso   1.000  C
  H103     1.0000 0.88870  0.61890  0.61000  Biso   1.000  H
  C167     1.0000 0.89814  0.68763  0.60641  Biso   1.000  C
  C168     1.0000 0.84560  0.57130  0.66960  Biso   1.000  C
  H104     1.0000 0.83330  0.56590  0.63730  Biso   1.000  H
  H105     1.0000 0.87900  0.56980  0.66780  Biso   1.000  H
  C169     1.0000 0.82780  0.53432  0.70420  Biso   1.000  C
  C170     1.0000 0.80510  0.54480  0.74250  Biso   1.000  C
  H106     1.0000 0.80130  0.57580  0.75070  Biso   1.000  H
  C171     1.0000 0.78620  0.51170  0.77170  Biso   1.000  C
  H107     1.0000 0.76710  0.52000  0.79750  Biso   1.000  H
  C172     1.0000 0.79530  0.46730  0.76260  Biso   1.000  C
  H108     1.0000 0.78430  0.44440  0.78330  Biso   1.000  H
  C173     1.0000 0.82050  0.45560  0.72360  Biso   1.000  C
  C174     1.0000 0.83570  0.48920  0.69490  Biso   1.000  C
  H109     1.0000 0.85250  0.48140  0.66730  Biso   1.000  H
  C175     1.0000 0.82810  0.40550  0.71190  Biso   1.000  C
  H110     1.0000 0.79860  0.38980  0.70870  Biso   1.000  H
  H111     1.0000 0.84540  0.39070  0.73780  Biso   1.000  H
  C176     1.0000 0.86740  0.36105  0.65610  Biso   1.000  C
  C177     1.0000 0.85482  0.32121  0.67780  Biso   1.000  C
  H112     1.0000 0.83370  0.32140  0.70330  Biso   1.000  H
  C178     1.0000 0.87337  0.28072  0.66200  Biso   1.000  C
  C179     1.0000 0.90359  0.28039  0.62510  Biso   1.000  C
  H113     1.0000 0.91610  0.25250  0.61470  Biso   1.000  H
  C180     1.0000 0.91611  0.32002  0.60290  Biso   1.000  C
  C181     1.0000 0.89850  0.36170  0.61900  Biso   1.000  C
  H114     1.0000 0.90770  0.38950  0.60480  Biso   1.000  H
  C182     1.0000 0.84645  0.77288  0.68780  Biso   1.000  C
  C183     1.0000 0.93011  0.68577  0.56560  Biso   1.000  C
  C184     1.0000 0.86175  0.23864  0.68680  Biso   1.000  C
  C185     1.0000 0.95023  0.32030  0.56432  Biso   1.000  C
  C186     1.0000 0.81390  0.96690  0.79680  Biso   1.000  C
  C187     1.0000 0.78690  0.96870  0.83670  Biso   1.000  C
  H115     1.0000 0.77660  0.94140  0.85100  Biso   1.000  H
  C188     1.0000 0.77490  0.00960  0.85570  Biso   1.000  C
  C189     1.0000 0.79140  0.04960  0.83630  Biso   1.000  C
  H116     1.0000 0.78370  0.07790  0.85010  Biso   1.000  H
  C190     1.0000 0.81900  0.04810  0.79680  Biso   1.000  C
  C191     1.0000 0.82990  0.00721  0.77680  Biso   1.000  C
  H117     1.0000 0.84850  0.00620  0.74920  Biso   1.000  H
  C192     1.0000 0.72920  0.04650  0.91240  Biso   1.000  C
  H118     1.0000 0.75310  0.06930  0.91880  Biso   1.000  H
  H119     1.0000 0.70770  0.05930  0.88890  Biso   1.000  H
  C193     1.0000 0.70390  0.03380  0.95950  Biso   1.000  C
  C194     1.0000 0.65920  0.03180  0.95740  Biso   1.000  C
  H120     1.0000 0.64320  0.03240  0.92800  Biso   1.000  H
  C195     1.0000 0.82360  0.92236  0.77330  Biso   1.000  C
  C196     1.0000 0.76810  0.82700  0.85910  Biso   1.000  C
  H121     1.0000 0.77410  0.85820  0.85390  Biso   1.000  H
  C197     1.0000 0.74870  0.81300  0.90170  Biso   1.000  C
  H122     1.0000 0.74150  0.83460  0.92560  Biso   1.000  H
  C198     1.0000 0.73990  0.76730  0.90930  Biso   1.000  C
  H123     1.0000 0.72660  0.75770  0.93850  Biso   1.000  H
  C199     1.0000 0.75040  0.73570  0.87440  Biso   1.000  C
  H124     1.0000 0.74440  0.70450  0.87960  Biso   1.000  H
  C200     1.0000 0.76980  0.74980  0.83180  Biso   1.000  C
  H125     1.0000 0.77700  0.72820  0.80800  Biso   1.000  H
  N5       1.0000 0.77866  0.79540  0.82420  Biso   1.000  N
  Cu11     1.0000 0.18787  0.17381  0.76521  Biso   1.000  Cu
  Cu12     1.0000 0.14191  0.13118  0.69800  Biso   1.000  Cu
  O76      1.0000 0.05526  0.27762  0.54894  Biso   1.000  O
  O77      1.0000 0.05786  0.35295  0.54977  Biso   1.000  O
  O78      1.0000 0.16710  0.38760  0.68469  Biso   1.000  O
  O79      1.0000 0.14765  0.59743  0.66876  Biso   1.000  O
  O80      1.0000 0.16025  0.75945  0.72525  Biso   1.000  O
  O81      1.0000 0.12392  0.79853  0.66951  Biso   1.000  O
  O82      1.0000 0.03704  0.71846  0.54818  Biso   1.000  O
  O83      1.0000 0.03425  0.64225  0.54886  Biso   1.000  O
  O84      1.0000 0.13764  0.19155  0.66928  Biso   1.000  O
  O85      1.0000 0.17642  0.22765  0.72641  Biso   1.000  O
  O86      1.0000 0.19194  0.11285  0.79178  Biso   1.000  O
  O87      1.0000 0.15257  0.07714  0.73546  Biso   1.000  O
  O88      1.0000 0.14536  0.91134  0.73554  Biso   1.000  O
  O89      1.0000 0.18166  0.87289  0.79220  Biso   1.000  O
  O90      1.0000 0.25220  0.99211  0.89550  Biso   1.000  O
  C201     1.0000 0.11346  0.27225  0.62666  Biso   1.000  C
  H126     1.0000 0.10130  0.24490  0.61430  Biso   1.000  H
  C202     1.0000 0.16800  0.90870  0.77370  Biso   1.000  C
  C203     1.0000 0.14312  0.27056  0.66547  Biso   1.000  C
  C204     1.0000 0.16045  0.31065  0.68290  Biso   1.000  C
  H127     1.0000 0.18120  0.30990  0.70870  Biso   1.000  H
  C205     1.0000 0.14810  0.35225  0.66340  Biso   1.000  C
  C206     1.0000 0.11926  0.35314  0.62440  Biso   1.000  C
  H128     1.0000 0.11130  0.38110  0.61000  Biso   1.000  H
  C207     1.0000 0.10186  0.31237  0.60641  Biso   1.000  C
  C208     1.0000 0.15440  0.42870  0.66960  Biso   1.000  C
  H129     1.0000 0.16670  0.43410  0.63730  Biso   1.000  H
  H130     1.0000 0.12100  0.43020  0.66780  Biso   1.000  H
  C209     1.0000 0.17220  0.46568  0.70420  Biso   1.000  C
  C210     1.0000 0.19490  0.45520  0.74250  Biso   1.000  C
  H131     1.0000 0.19870  0.42420  0.75070  Biso   1.000  H
  C211     1.0000 0.21380  0.48830  0.77170  Biso   1.000  C
  H132     1.0000 0.23290  0.48000  0.79750  Biso   1.000  H
  C212     1.0000 0.20470  0.53270  0.76260  Biso   1.000  C
  H133     1.0000 0.21570  0.55560  0.78330  Biso   1.000  H
  C213     1.0000 0.17950  0.54440  0.72360  Biso   1.000  C
  C214     1.0000 0.16430  0.51080  0.69490  Biso   1.000  C
  H134     1.0000 0.14750  0.51860  0.66730  Biso   1.000  H
  C215     1.0000 0.17190  0.59450  0.71190  Biso   1.000  C
  H135     1.0000 0.20140  0.61020  0.70870  Biso   1.000  H
  H136     1.0000 0.15460  0.60930  0.73780  Biso   1.000  H
  C216     1.0000 0.13260  0.63895  0.65610  Biso   1.000  C
  C217     1.0000 0.14518  0.67879  0.67780  Biso   1.000  C
  H137     1.0000 0.16630  0.67860  0.70330  Biso   1.000  H
  C218     1.0000 0.12663  0.71928  0.66200  Biso   1.000  C
  C219     1.0000 0.09641  0.71961  0.62510  Biso   1.000  C
  H138     1.0000 0.08390  0.74750  0.61470  Biso   1.000  H
  C220     1.0000 0.08389  0.67998  0.60290  Biso   1.000  C
  C221     1.0000 0.10150  0.63830  0.61900  Biso   1.000  C
  H139     1.0000 0.09230  0.61050  0.60480  Biso   1.000  H
  C222     1.0000 0.15355  0.22712  0.68780  Biso   1.000  C
  C223     1.0000 0.06989  0.31423  0.56560  Biso   1.000  C
  C224     1.0000 0.13825  0.76136  0.68680  Biso   1.000  C
  C225     1.0000 0.04977  0.67970  0.56432  Biso   1.000  C
  C226     1.0000 0.18610  0.03310  0.79680  Biso   1.000  C
  C227     1.0000 0.21310  0.03130  0.83670  Biso   1.000  C
  H140     1.0000 0.22340  0.05860  0.85100  Biso   1.000  H
  C228     1.0000 0.22510  0.99040  0.85570  Biso   1.000  C
  C229     1.0000 0.20860  0.95040  0.83630  Biso   1.000  C
  H141     1.0000 0.21630  0.92210  0.85010  Biso   1.000  H
  C230     1.0000 0.18100  0.95190  0.79680  Biso   1.000  C
  C231     1.0000 0.17010  0.99279  0.77680  Biso   1.000  C
  H142     1.0000 0.15150  0.99380  0.74920  Biso   1.000  H
  C232     1.0000 0.27080  0.95350  0.91240  Biso   1.000  C
  H143     1.0000 0.24690  0.93070  0.91880  Biso   1.000  H
  H144     1.0000 0.29230  0.94070  0.88890  Biso   1.000  H
  C233     1.0000 0.29610  0.96620  0.95950  Biso   1.000  C
  C234     1.0000 0.34080  0.96820  0.95740  Biso   1.000  C
  H145     1.0000 0.35680  0.96760  0.92800  Biso   1.000  H
  C235     1.0000 0.17640  0.07764  0.77330  Biso   1.000  C
  C236     1.0000 0.23190  0.17300  0.85910  Biso   1.000  C
  H146     1.0000 0.22590  0.14180  0.85390  Biso   1.000  H
  C237     1.0000 0.25130  0.18700  0.90170  Biso   1.000  C
  H147     1.0000 0.25850  0.16540  0.92560  Biso   1.000  H
  C238     1.0000 0.26010  0.23270  0.90930  Biso   1.000  C
  H148     1.0000 0.27340  0.24230  0.93850  Biso   1.000  H
  C239     1.0000 0.24960  0.26430  0.87440  Biso   1.000  C
  H149     1.0000 0.25560  0.29550  0.87960  Biso   1.000  H
  C240     1.0000 0.23020  0.25020  0.83180  Biso   1.000  C
  H150     1.0000 0.22300  0.27180  0.80800  Biso   1.000  H
  N6       1.0000 0.22134  0.20460  0.82420  Biso   1.000  N
  Cu13     1.0000 0.17381  0.81213  0.76521  Biso   1.000  Cu
  Cu14     1.0000 0.13118  0.85809  0.69800  Biso   1.000  Cu
  O91      1.0000 0.27762  0.94474  0.54894  Biso   1.000  O
  O92      1.0000 0.35295  0.94214  0.54977  Biso   1.000  O
  O93      1.0000 0.38760  0.83290  0.68469  Biso   1.000  O
  O94      1.0000 0.59743  0.85235  0.66876  Biso   1.000  O
  O95      1.0000 0.75945  0.83975  0.72525  Biso   1.000  O
  O96      1.0000 0.79853  0.87608  0.66951  Biso   1.000  O
  O97      1.0000 0.71846  0.96296  0.54818  Biso   1.000  O
  O98      1.0000 0.64225  0.96575  0.54886  Biso   1.000  O
  O99      1.0000 0.19155  0.86236  0.66928  Biso   1.000  O
  O100     1.0000 0.22765  0.82358  0.72641  Biso   1.000  O
  O101     1.0000 0.11285  0.80806  0.79178  Biso   1.000  O
  O102     1.0000 0.07714  0.84743  0.73546  Biso   1.000  O
  O103     1.0000 0.91134  0.85464  0.73554  Biso   1.000  O
  O104     1.0000 0.87289  0.81834  0.79220  Biso   1.000  O
  O105     1.0000 0.99211  0.74780  0.89550  Biso   1.000  O
  C241     1.0000 0.27225  0.88654  0.62666  Biso   1.000  C
  H151     1.0000 0.24490  0.89870  0.61430  Biso   1.000  H
  C242     1.0000 0.90870  0.83200  0.77370  Biso   1.000  C
  C243     1.0000 0.27056  0.85688  0.66547  Biso   1.000  C
  C244     1.0000 0.31065  0.83955  0.68290  Biso   1.000  C
  H152     1.0000 0.30990  0.81880  0.70870  Biso   1.000  H
  C245     1.0000 0.35225  0.85190  0.66340  Biso   1.000  C
  C246     1.0000 0.35314  0.88074  0.62440  Biso   1.000  C
  H153     1.0000 0.38110  0.88870  0.61000  Biso   1.000  H
  C247     1.0000 0.31237  0.89814  0.60641  Biso   1.000  C
  C248     1.0000 0.42870  0.84560  0.66960  Biso   1.000  C
  H154     1.0000 0.43410  0.83330  0.63730  Biso   1.000  H
  H155     1.0000 0.43020  0.87900  0.66780  Biso   1.000  H
  C249     1.0000 0.46568  0.82780  0.70420  Biso   1.000  C
  C250     1.0000 0.45520  0.80510  0.74250  Biso   1.000  C
  H156     1.0000 0.42420  0.80130  0.75070  Biso   1.000  H
  C251     1.0000 0.48830  0.78620  0.77170  Biso   1.000  C
  H157     1.0000 0.48000  0.76710  0.79750  Biso   1.000  H
  C252     1.0000 0.53270  0.79530  0.76260  Biso   1.000  C
  H158     1.0000 0.55560  0.78430  0.78330  Biso   1.000  H
  C253     1.0000 0.54440  0.82050  0.72360  Biso   1.000  C
  C254     1.0000 0.51080  0.83570  0.69490  Biso   1.000  C
  H159     1.0000 0.51860  0.85250  0.66730  Biso   1.000  H
  C255     1.0000 0.59450  0.82810  0.71190  Biso   1.000  C
  H160     1.0000 0.61020  0.79860  0.70870  Biso   1.000  H
  H161     1.0000 0.60930  0.84540  0.73780  Biso   1.000  H
  C256     1.0000 0.63895  0.86740  0.65610  Biso   1.000  C
  C257     1.0000 0.67879  0.85482  0.67780  Biso   1.000  C
  H162     1.0000 0.67860  0.83370  0.70330  Biso   1.000  H
  C258     1.0000 0.71928  0.87337  0.66200  Biso   1.000  C
  C259     1.0000 0.71961  0.90359  0.62510  Biso   1.000  C
  H163     1.0000 0.74750  0.91610  0.61470  Biso   1.000  H
  C260     1.0000 0.67998  0.91611  0.60290  Biso   1.000  C
  C261     1.0000 0.63830  0.89850  0.61900  Biso   1.000  C
  H164     1.0000 0.61050  0.90770  0.60480  Biso   1.000  H
  C262     1.0000 0.22712  0.84645  0.68780  Biso   1.000  C
  C263     1.0000 0.31423  0.93011  0.56560  Biso   1.000  C
  C264     1.0000 0.76136  0.86175  0.68680  Biso   1.000  C
  C265     1.0000 0.67970  0.95023  0.56432  Biso   1.000  C
  C266     1.0000 0.03310  0.81390  0.79680  Biso   1.000  C
  C267     1.0000 0.03130  0.78690  0.83670  Biso   1.000  C
  H165     1.0000 0.05860  0.77660  0.85100  Biso   1.000  H
  C268     1.0000 0.99040  0.77490  0.85570  Biso   1.000  C
  C269     1.0000 0.95040  0.79140  0.83630  Biso   1.000  C
  H166     1.0000 0.92210  0.78370  0.85010  Biso   1.000  H
  C270     1.0000 0.95190  0.81900  0.79680  Biso   1.000  C
  C271     1.0000 0.99279  0.82990  0.77680  Biso   1.000  C
  H167     1.0000 0.99380  0.84850  0.74920  Biso   1.000  H
  C272     1.0000 0.95350  0.72920  0.91240  Biso   1.000  C
  H168     1.0000 0.93070  0.75310  0.91880  Biso   1.000  H
  H169     1.0000 0.94070  0.70770  0.88890  Biso   1.000  H
  C273     1.0000 0.96620  0.70390  0.95950  Biso   1.000  C
  C274     1.0000 0.96820  0.65920  0.95740  Biso   1.000  C
  H170     1.0000 0.96760  0.64320  0.92800  Biso   1.000  H
  C275     1.0000 0.07764  0.82360  0.77330  Biso   1.000  C
  C276     1.0000 0.17300  0.76810  0.85910  Biso   1.000  C
  H171     1.0000 0.14180  0.77410  0.85390  Biso   1.000  H
  C277     1.0000 0.18700  0.74870  0.90170  Biso   1.000  C
  H172     1.0000 0.16540  0.74150  0.92560  Biso   1.000  H
  C278     1.0000 0.23270  0.73990  0.90930  Biso   1.000  C
  H173     1.0000 0.24230  0.72660  0.93850  Biso   1.000  H
  C279     1.0000 0.26430  0.75040  0.87440  Biso   1.000  C
  H174     1.0000 0.29550  0.74440  0.87960  Biso   1.000  H
  C280     1.0000 0.25020  0.76980  0.83180  Biso   1.000  C
  H175     1.0000 0.27180  0.77700  0.80800  Biso   1.000  H
  N7       1.0000 0.20460  0.77866  0.82420  Biso   1.000  N
  Cu15     1.0000 0.82619  0.18787  0.76521  Biso   1.000  Cu
  Cu16     1.0000 0.86882  0.14191  0.69800  Biso   1.000  Cu
  O106     1.0000 0.72238  0.05526  0.54894  Biso   1.000  O
  O107     1.0000 0.64705  0.05786  0.54977  Biso   1.000  O
  O108     1.0000 0.61240  0.16710  0.68469  Biso   1.000  O
  O109     1.0000 0.40257  0.14765  0.66876  Biso   1.000  O
  O110     1.0000 0.24055  0.16025  0.72525  Biso   1.000  O
  O111     1.0000 0.20147  0.12392  0.66951  Biso   1.000  O
  O112     1.0000 0.28154  0.03704  0.54818  Biso   1.000  O
  O113     1.0000 0.35775  0.03425  0.54886  Biso   1.000  O
  O114     1.0000 0.80845  0.13764  0.66928  Biso   1.000  O
  O115     1.0000 0.77235  0.17642  0.72641  Biso   1.000  O
  O116     1.0000 0.88715  0.19194  0.79178  Biso   1.000  O
  O117     1.0000 0.92286  0.15257  0.73546  Biso   1.000  O
  O118     1.0000 0.08866  0.14536  0.73554  Biso   1.000  O
  O119     1.0000 0.12711  0.18166  0.79220  Biso   1.000  O
  O120     1.0000 0.00789  0.25220  0.89550  Biso   1.000  O
  C281     1.0000 0.72775  0.11346  0.62666  Biso   1.000  C
  H176     1.0000 0.75510  0.10130  0.61430  Biso   1.000  H
  C282     1.0000 0.09130  0.16800  0.77370  Biso   1.000  C
  C283     1.0000 0.72944  0.14312  0.66547  Biso   1.000  C
  C284     1.0000 0.68935  0.16045  0.68290  Biso   1.000  C
  H177     1.0000 0.69010  0.18120  0.70870  Biso   1.000  H
  C285     1.0000 0.64775  0.14810  0.66340  Biso   1.000  C
  C286     1.0000 0.64686  0.11926  0.62440  Biso   1.000  C
  H178     1.0000 0.61890  0.11130  0.61000  Biso   1.000  H
  C287     1.0000 0.68763  0.10186  0.60641  Biso   1.000  C
  C288     1.0000 0.57130  0.15440  0.66960  Biso   1.000  C
  H179     1.0000 0.56590  0.16670  0.63730  Biso   1.000  H
  H180     1.0000 0.56980  0.12100  0.66780  Biso   1.000  H
  C289     1.0000 0.53432  0.17220  0.70420  Biso   1.000  C
  C290     1.0000 0.54480  0.19490  0.74250  Biso   1.000  C
  H181     1.0000 0.57580  0.19870  0.75070  Biso   1.000  H
  C291     1.0000 0.51170  0.21380  0.77170  Biso   1.000  C
  H182     1.0000 0.52000  0.23290  0.79750  Biso   1.000  H
  C292     1.0000 0.46730  0.20470  0.76260  Biso   1.000  C
  H183     1.0000 0.44440  0.21570  0.78330  Biso   1.000  H
  C293     1.0000 0.45560  0.17950  0.72360  Biso   1.000  C
  C294     1.0000 0.48920  0.16430  0.69490  Biso   1.000  C
  H184     1.0000 0.48140  0.14750  0.66730  Biso   1.000  H
  C295     1.0000 0.40550  0.17190  0.71190  Biso   1.000  C
  H185     1.0000 0.38980  0.20140  0.70870  Biso   1.000  H
  H186     1.0000 0.39070  0.15460  0.73780  Biso   1.000  H
  C296     1.0000 0.36105  0.13260  0.65610  Biso   1.000  C
  C297     1.0000 0.32121  0.14518  0.67780  Biso   1.000  C
  H187     1.0000 0.32140  0.16630  0.70330  Biso   1.000  H
  C298     1.0000 0.28072  0.12663  0.66200  Biso   1.000  C
  C299     1.0000 0.28039  0.09641  0.62510  Biso   1.000  C
  H188     1.0000 0.25250  0.08390  0.61470  Biso   1.000  H
  C300     1.0000 0.32002  0.08389  0.60290  Biso   1.000  C
  C301     1.0000 0.36170  0.10150  0.61900  Biso   1.000  C
  H189     1.0000 0.38950  0.09230  0.60480  Biso   1.000  H
  C302     1.0000 0.77288  0.15355  0.68780  Biso   1.000  C
  C303     1.0000 0.68577  0.06989  0.56560  Biso   1.000  C
  C304     1.0000 0.23864  0.13825  0.68680  Biso   1.000  C
  C305     1.0000 0.32030  0.04977  0.56432  Biso   1.000  C
  C306     1.0000 0.96690  0.18610  0.79680  Biso   1.000  C
  C307     1.0000 0.96870  0.21310  0.83670  Biso   1.000  C
  H190     1.0000 0.94140  0.22340  0.85100  Biso   1.000  H
  C308     1.0000 0.00960  0.22510  0.85570  Biso   1.000  C
  C309     1.0000 0.04960  0.20860  0.83630  Biso   1.000  C
  H191     1.0000 0.07790  0.21630  0.85010  Biso   1.000  H
  C310     1.0000 0.04810  0.18100  0.79680  Biso   1.000  C
  C311     1.0000 0.00721  0.17010  0.77680  Biso   1.000  C
  H192     1.0000 0.00620  0.15150  0.74920  Biso   1.000  H
  C312     1.0000 0.04650  0.27080  0.91240  Biso   1.000  C
  H193     1.0000 0.06930  0.24690  0.91880  Biso   1.000  H
  H194     1.0000 0.05930  0.29230  0.88890  Biso   1.000  H
  C313     1.0000 0.03380  0.29610  0.95950  Biso   1.000  C
  C314     1.0000 0.03180  0.34080  0.95740  Biso   1.000  C
  H195     1.0000 0.03240  0.35680  0.92800  Biso   1.000  H
  C315     1.0000 0.92236  0.17640  0.77330  Biso   1.000  C
  C316     1.0000 0.82700  0.23190  0.85910  Biso   1.000  C
  H196     1.0000 0.85820  0.22590  0.85390  Biso   1.000  H
  C317     1.0000 0.81300  0.25130  0.90170  Biso   1.000  C
  H197     1.0000 0.83460  0.25850  0.92560  Biso   1.000  H
  C318     1.0000 0.76730  0.26010  0.90930  Biso   1.000  C
  H198     1.0000 0.75770  0.27340  0.93850  Biso   1.000  H
  C319     1.0000 0.73570  0.24960  0.87440  Biso   1.000  C
  H199     1.0000 0.70450  0.25560  0.87960  Biso   1.000  H
  C320     1.0000 0.74980  0.23020  0.83180  Biso   1.000  C
  H200     1.0000 0.72820  0.22300  0.80800  Biso   1.000  H
  N8       1.0000 0.79540  0.22134  0.82420  Biso   1.000  N
  Cu17     1.0000 0.01231  0.36176  0.50000  Biso   1.000  Cu
  Cu18     1.0000 0.00925  0.27316  0.50000  Biso   1.000  Cu
  Cu19     1.0000 0.98769  0.63824  0.50000  Biso   1.000  Cu
  Cu20     1.0000 0.99075  0.72684  0.50000  Biso   1.000  Cu
  Cu21     1.0000 0.63824  0.01231  0.50000  Biso   1.000  Cu
  Cu22     1.0000 0.72684  0.00925  0.50000  Biso   1.000  Cu
  Cu23     1.0000 0.36176  0.98769  0.50000  Biso   1.000  Cu
  Cu24     1.0000 0.27316  0.99075  0.50000  Biso   1.000  Cu
  C321     1.0000 0.36260  0.97140  0.00000  Biso   1.000  C
  H201     1.0000 0.39440  0.97600  0.00000  Biso   1.000  H
  C322     1.0000 0.27140  0.96840  0.00000  Biso   1.000  C
  H202     1.0000 0.23930  0.97130  0.00000  Biso   1.000  H
  C323     1.0000 0.63740  0.02860  0.00000  Biso   1.000  C
  H203     1.0000 0.60560  0.02400  0.00000  Biso   1.000  H
  C324     1.0000 0.72860  0.03160  0.00000  Biso   1.000  C
  H204     1.0000 0.76070  0.02870  0.00000  Biso   1.000  H
  C325     1.0000 0.02860  0.36260  0.00000  Biso   1.000  C
  H205     1.0000 0.02400  0.39440  0.00000  Biso   1.000  H
  C326     1.0000 0.03160  0.27140  0.00000  Biso   1.000  C
  H206     1.0000 0.02870  0.23930  0.00000  Biso   1.000  H
  C327     1.0000 0.97140  0.63740  0.00000  Biso   1.000  C
  H207     1.0000 0.97600  0.60560  0.00000  Biso   1.000  H
  C328     1.0000 0.96840  0.72860  0.00000  Biso   1.000  C
  H208     1.0000 0.97130  0.76070  0.00000  Biso   1.000  H
  Cu25     1.0000 0.68787  0.67381  0.73479  Biso   1.000  Cu
  Cu26     1.0000 0.64191  0.63118  0.80200  Biso   1.000  Cu
  O121     1.0000 0.55526  0.77762  0.95106  Biso   1.000  O
  O122     1.0000 0.55786  0.85295  0.95023  Biso   1.000  O
  O123     1.0000 0.66710  0.88760  0.81531  Biso   1.000  O
  O124     1.0000 0.64765  0.09743  0.83124  Biso   1.000  O
  O125     1.0000 0.66025  0.25945  0.77475  Biso   1.000  O
  O126     1.0000 0.62392  0.29853  0.83049  Biso   1.000  O
  O127     1.0000 0.53704  0.21846  0.95182  Biso   1.000  O
  O128     1.0000 0.53425  0.14225  0.95114  Biso   1.000  O
  O129     1.0000 0.63764  0.69155  0.83072  Biso   1.000  O
  O130     1.0000 0.67642  0.72765  0.77359  Biso   1.000  O
  O131     1.0000 0.69194  0.61285  0.70822  Biso   1.000  O
  O132     1.0000 0.65257  0.57714  0.76454  Biso   1.000  O
  O133     1.0000 0.64536  0.41134  0.76446  Biso   1.000  O
  O134     1.0000 0.68166  0.37289  0.70780  Biso   1.000  O
  O135     1.0000 0.75220  0.49211  0.60450  Biso   1.000  O
  C329     1.0000 0.61346  0.77225  0.87334  Biso   1.000  C
  H209     1.0000 0.60130  0.74490  0.88570  Biso   1.000  H
  C330     1.0000 0.66800  0.40870  0.72630  Biso   1.000  C
  C331     1.0000 0.64312  0.77056  0.83453  Biso   1.000  C
  C332     1.0000 0.66045  0.81065  0.81710  Biso   1.000  C
  H210     1.0000 0.68120  0.80990  0.79130  Biso   1.000  H
  C333     1.0000 0.64810  0.85225  0.83660  Biso   1.000  C
  C334     1.0000 0.61926  0.85314  0.87560  Biso   1.000  C
  H211     1.0000 0.61130  0.88110  0.89000  Biso   1.000  H
  C335     1.0000 0.60186  0.81237  0.89359  Biso   1.000  C
  C336     1.0000 0.65440  0.92870  0.83040  Biso   1.000  C
  H212     1.0000 0.66670  0.93410  0.86270  Biso   1.000  H
  H213     1.0000 0.62100  0.93020  0.83220  Biso   1.000  H
  C337     1.0000 0.67220  0.96568  0.79580  Biso   1.000  C
  C338     1.0000 0.69490  0.95520  0.75750  Biso   1.000  C
  H214     1.0000 0.69870  0.92420  0.74930  Biso   1.000  H
  C339     1.0000 0.71380  0.98830  0.72830  Biso   1.000  C
  H215     1.0000 0.73290  0.98000  0.70250  Biso   1.000  H
  C340     1.0000 0.70470  0.03270  0.73740  Biso   1.000  C
  H216     1.0000 0.71570  0.05560  0.71670  Biso   1.000  H
  C341     1.0000 0.67950  0.04440  0.77640  Biso   1.000  C
  C342     1.0000 0.66430  0.01080  0.80510  Biso   1.000  C
  H217     1.0000 0.64750  0.01860  0.83270  Biso   1.000  H
  C343     1.0000 0.67190  0.09450  0.78810  Biso   1.000  C
  H218     1.0000 0.70140  0.11020  0.79130  Biso   1.000  H
  H219     1.0000 0.65460  0.10930  0.76220  Biso   1.000  H
  C344     1.0000 0.63260  0.13895  0.84390  Biso   1.000  C
  C345     1.0000 0.64518  0.17879  0.82220  Biso   1.000  C
  H220     1.0000 0.66630  0.17860  0.79670  Biso   1.000  H
  C346     1.0000 0.62663  0.21928  0.83800  Biso   1.000  C
  C347     1.0000 0.59641  0.21961  0.87490  Biso   1.000  C
  H221     1.0000 0.58390  0.24750  0.88530  Biso   1.000  H
  C348     1.0000 0.58389  0.17998  0.89710  Biso   1.000  C
  C349     1.0000 0.60150  0.13830  0.88100  Biso   1.000  C
  H222     1.0000 0.59230  0.11050  0.89520  Biso   1.000  H
  C350     1.0000 0.65355  0.72712  0.81220  Biso   1.000  C
  C351     1.0000 0.56989  0.81423  0.93440  Biso   1.000  C
  C352     1.0000 0.63825  0.26136  0.81320  Biso   1.000  C
  C353     1.0000 0.54977  0.17970  0.93568  Biso   1.000  C
  C354     1.0000 0.68610  0.53310  0.70320  Biso   1.000  C
  C355     1.0000 0.71310  0.53130  0.66330  Biso   1.000  C
  H223     1.0000 0.72340  0.55860  0.64900  Biso   1.000  H
  C356     1.0000 0.72510  0.49040  0.64430  Biso   1.000  C
  C357     1.0000 0.70860  0.45040  0.66370  Biso   1.000  C
  H224     1.0000 0.71630  0.42210  0.64990  Biso   1.000  H
  C358     1.0000 0.68100  0.45190  0.70320  Biso   1.000  C
  C359     1.0000 0.67010  0.49279  0.72320  Biso   1.000  C
  H225     1.0000 0.65150  0.49380  0.75080  Biso   1.000  H
  C360     1.0000 0.77080  0.45350  0.58760  Biso   1.000  C
  H226     1.0000 0.74690  0.43070  0.58120  Biso   1.000  H
  H227     1.0000 0.79230  0.44070  0.61110  Biso   1.000  H
  C361     1.0000 0.79610  0.46620  0.54050  Biso   1.000  C
  C362     1.0000 0.84080  0.46820  0.54260  Biso   1.000  C
  H228     1.0000 0.85680  0.46760  0.57200  Biso   1.000  H
  C363     1.0000 0.67640  0.57764  0.72670  Biso   1.000  C
  C364     1.0000 0.73190  0.67300  0.64090  Biso   1.000  C
  H229     1.0000 0.72590  0.64180  0.64610  Biso   1.000  H
  C365     1.0000 0.75130  0.68700  0.59830  Biso   1.000  C
  H230     1.0000 0.75850  0.66540  0.57440  Biso   1.000  H
  C366     1.0000 0.76010  0.73270  0.59070  Biso   1.000  C
  H231     1.0000 0.77340  0.74230  0.56150  Biso   1.000  H
  C367     1.0000 0.74960  0.76430  0.62560  Biso   1.000  C
  H232     1.0000 0.75560  0.79550  0.62040  Biso   1.000  H
  C368     1.0000 0.73020  0.75020  0.66820  Biso   1.000  C
  H233     1.0000 0.72300  0.77180  0.69200  Biso   1.000  H
  N9       1.0000 0.72134  0.70460  0.67580  Biso   1.000  N
  Cu27     1.0000 0.31213  0.32619  0.73479  Biso   1.000  Cu
  Cu28     1.0000 0.35809  0.36882  0.80200  Biso   1.000  Cu
  O136     1.0000 0.44474  0.22238  0.95106  Biso   1.000  O
  O137     1.0000 0.44214  0.14705  0.95023  Biso   1.000  O
  O138     1.0000 0.33290  0.11240  0.81531  Biso   1.000  O
  O139     1.0000 0.35235  0.90257  0.83124  Biso   1.000  O
  O140     1.0000 0.33975  0.74055  0.77475  Biso   1.000  O
  O141     1.0000 0.37608  0.70147  0.83049  Biso   1.000  O
  O142     1.0000 0.46296  0.78154  0.95182  Biso   1.000  O
  O143     1.0000 0.46575  0.85775  0.95114  Biso   1.000  O
  O144     1.0000 0.36236  0.30845  0.83072  Biso   1.000  O
  O145     1.0000 0.32358  0.27235  0.77359  Biso   1.000  O
  O146     1.0000 0.30806  0.38715  0.70822  Biso   1.000  O
  O147     1.0000 0.34743  0.42286  0.76454  Biso   1.000  O
  O148     1.0000 0.35464  0.58866  0.76446  Biso   1.000  O
  O149     1.0000 0.31834  0.62711  0.70780  Biso   1.000  O
  O150     1.0000 0.24780  0.50789  0.60450  Biso   1.000  O
  C369     1.0000 0.38654  0.22775  0.87334  Biso   1.000  C
  H234     1.0000 0.39870  0.25510  0.88570  Biso   1.000  H
  C370     1.0000 0.33200  0.59130  0.72630  Biso   1.000  C
  C371     1.0000 0.35688  0.22944  0.83453  Biso   1.000  C
  C372     1.0000 0.33955  0.18935  0.81710  Biso   1.000  C
  H235     1.0000 0.31880  0.19010  0.79130  Biso   1.000  H
  C373     1.0000 0.35190  0.14775  0.83660  Biso   1.000  C
  C374     1.0000 0.38074  0.14686  0.87560  Biso   1.000  C
  H236     1.0000 0.38870  0.11890  0.89000  Biso   1.000  H
  C375     1.0000 0.39814  0.18763  0.89359  Biso   1.000  C
  C376     1.0000 0.34560  0.07130  0.83040  Biso   1.000  C
  H237     1.0000 0.33330  0.06590  0.86270  Biso   1.000  H
  H238     1.0000 0.37900  0.06980  0.83220  Biso   1.000  H
  C377     1.0000 0.32780  0.03432  0.79580  Biso   1.000  C
  C378     1.0000 0.30510  0.04480  0.75750  Biso   1.000  C
  H239     1.0000 0.30130  0.07580  0.74930  Biso   1.000  H
  C379     1.0000 0.28620  0.01170  0.72830  Biso   1.000  C
  H240     1.0000 0.26710  0.02000  0.70250  Biso   1.000  H
  C380     1.0000 0.29530  0.96730  0.73740  Biso   1.000  C
  H241     1.0000 0.28430  0.94440  0.71670  Biso   1.000  H
  C381     1.0000 0.32050  0.95560  0.77640  Biso   1.000  C
  C382     1.0000 0.33570  0.98920  0.80510  Biso   1.000  C
  H242     1.0000 0.35250  0.98140  0.83270  Biso   1.000  H
  C383     1.0000 0.32810  0.90550  0.78810  Biso   1.000  C
  H243     1.0000 0.29860  0.88980  0.79130  Biso   1.000  H
  H244     1.0000 0.34540  0.89070  0.76220  Biso   1.000  H
  C384     1.0000 0.36740  0.86105  0.84390  Biso   1.000  C
  C385     1.0000 0.35482  0.82121  0.82220  Biso   1.000  C
  H245     1.0000 0.33370  0.82140  0.79670  Biso   1.000  H
  C386     1.0000 0.37337  0.78072  0.83800  Biso   1.000  C
  C387     1.0000 0.40359  0.78039  0.87490  Biso   1.000  C
  H246     1.0000 0.41610  0.75250  0.88530  Biso   1.000  H
  C388     1.0000 0.41611  0.82002  0.89710  Biso   1.000  C
  C389     1.0000 0.39850  0.86170  0.88100  Biso   1.000  C
  H247     1.0000 0.40770  0.88950  0.89520  Biso   1.000  H
  C390     1.0000 0.34645  0.27288  0.81220  Biso   1.000  C
  C391     1.0000 0.43011  0.18577  0.93440  Biso   1.000  C
  C392     1.0000 0.36175  0.73864  0.81320  Biso   1.000  C
  C393     1.0000 0.45023  0.82030  0.93568  Biso   1.000  C
  C394     1.0000 0.31390  0.46690  0.70320  Biso   1.000  C
  C395     1.0000 0.28690  0.46870  0.66330  Biso   1.000  C
  H248     1.0000 0.27660  0.44140  0.64900  Biso   1.000  H
  C396     1.0000 0.27490  0.50960  0.64430  Biso   1.000  C
  C397     1.0000 0.29140  0.54960  0.66370  Biso   1.000  C
  H249     1.0000 0.28370  0.57790  0.64990  Biso   1.000  H
  C398     1.0000 0.31900  0.54810  0.70320  Biso   1.000  C
  C399     1.0000 0.32990  0.50721  0.72320  Biso   1.000  C
  H250     1.0000 0.34850  0.50620  0.75080  Biso   1.000  H
  C400     1.0000 0.22920  0.54650  0.58760  Biso   1.000  C
  H251     1.0000 0.25310  0.56930  0.58120  Biso   1.000  H
  H252     1.0000 0.20770  0.55930  0.61110  Biso   1.000  H
  C401     1.0000 0.20390  0.53380  0.54050  Biso   1.000  C
  C402     1.0000 0.15920  0.53180  0.54260  Biso   1.000  C
  H253     1.0000 0.14320  0.53240  0.57200  Biso   1.000  H
  C403     1.0000 0.32360  0.42236  0.72670  Biso   1.000  C
  C404     1.0000 0.26810  0.32700  0.64090  Biso   1.000  C
  H254     1.0000 0.27410  0.35820  0.64610  Biso   1.000  H
  C405     1.0000 0.24870  0.31300  0.59830  Biso   1.000  C
  H255     1.0000 0.24150  0.33460  0.57440  Biso   1.000  H
  C406     1.0000 0.23990  0.26730  0.59070  Biso   1.000  C
  H256     1.0000 0.22660  0.25770  0.56150  Biso   1.000  H
  C407     1.0000 0.25040  0.23570  0.62560  Biso   1.000  C
  H257     1.0000 0.24440  0.20450  0.62040  Biso   1.000  H
  C408     1.0000 0.26980  0.24980  0.66820  Biso   1.000  C
  H258     1.0000 0.27700  0.22820  0.69200  Biso   1.000  H
  N10      1.0000 0.27866  0.29540  0.67580  Biso   1.000  N
  Cu29     1.0000 0.32619  0.68787  0.73479  Biso   1.000  Cu
  Cu30     1.0000 0.36882  0.64191  0.80200  Biso   1.000  Cu
  O151     1.0000 0.22238  0.55526  0.95106  Biso   1.000  O
  O152     1.0000 0.14705  0.55786  0.95023  Biso   1.000  O
  O153     1.0000 0.11240  0.66710  0.81531  Biso   1.000  O
  O154     1.0000 0.90257  0.64765  0.83124  Biso   1.000  O
  O155     1.0000 0.74055  0.66025  0.77475  Biso   1.000  O
  O156     1.0000 0.70147  0.62392  0.83049  Biso   1.000  O
  O157     1.0000 0.78154  0.53704  0.95182  Biso   1.000  O
  O158     1.0000 0.85775  0.53425  0.95114  Biso   1.000  O
  O159     1.0000 0.30845  0.63764  0.83072  Biso   1.000  O
  O160     1.0000 0.27235  0.67642  0.77359  Biso   1.000  O
  O161     1.0000 0.38715  0.69194  0.70822  Biso   1.000  O
  O162     1.0000 0.42286  0.65257  0.76454  Biso   1.000  O
  O163     1.0000 0.58866  0.64536  0.76446  Biso   1.000  O
  O164     1.0000 0.62711  0.68166  0.70780  Biso   1.000  O
  O165     1.0000 0.50789  0.75220  0.60450  Biso   1.000  O
  C409     1.0000 0.22775  0.61346  0.87334  Biso   1.000  C
  H259     1.0000 0.25510  0.60130  0.88570  Biso   1.000  H
  C410     1.0000 0.59130  0.66800  0.72630  Biso   1.000  C
  C411     1.0000 0.22944  0.64312  0.83453  Biso   1.000  C
  C412     1.0000 0.18935  0.66045  0.81710  Biso   1.000  C
  H260     1.0000 0.19010  0.68120  0.79130  Biso   1.000  H
  C413     1.0000 0.14775  0.64810  0.83660  Biso   1.000  C
  C414     1.0000 0.14686  0.61926  0.87560  Biso   1.000  C
  H261     1.0000 0.11890  0.61130  0.89000  Biso   1.000  H
  C415     1.0000 0.18763  0.60186  0.89359  Biso   1.000  C
  C416     1.0000 0.07130  0.65440  0.83040  Biso   1.000  C
  H262     1.0000 0.06590  0.66670  0.86270  Biso   1.000  H
  H263     1.0000 0.06980  0.62100  0.83220  Biso   1.000  H
  C417     1.0000 0.03432  0.67220  0.79580  Biso   1.000  C
  C418     1.0000 0.04480  0.69490  0.75750  Biso   1.000  C
  H264     1.0000 0.07580  0.69870  0.74930  Biso   1.000  H
  C419     1.0000 0.01170  0.71380  0.72830  Biso   1.000  C
  H265     1.0000 0.02000  0.73290  0.70250  Biso   1.000  H
  C420     1.0000 0.96730  0.70470  0.73740  Biso   1.000  C
  H266     1.0000 0.94440  0.71570  0.71670  Biso   1.000  H
  C421     1.0000 0.95560  0.67950  0.77640  Biso   1.000  C
  C422     1.0000 0.98920  0.66430  0.80510  Biso   1.000  C
  H267     1.0000 0.98140  0.64750  0.83270  Biso   1.000  H
  C423     1.0000 0.90550  0.67190  0.78810  Biso   1.000  C
  H268     1.0000 0.88980  0.70140  0.79130  Biso   1.000  H
  H269     1.0000 0.89070  0.65460  0.76220  Biso   1.000  H
  C424     1.0000 0.86105  0.63260  0.84390  Biso   1.000  C
  C425     1.0000 0.82121  0.64518  0.82220  Biso   1.000  C
  H270     1.0000 0.82140  0.66630  0.79670  Biso   1.000  H
  C426     1.0000 0.78072  0.62663  0.83800  Biso   1.000  C
  C427     1.0000 0.78039  0.59641  0.87490  Biso   1.000  C
  H271     1.0000 0.75250  0.58390  0.88530  Biso   1.000  H
  C428     1.0000 0.82002  0.58389  0.89710  Biso   1.000  C
  C429     1.0000 0.86170  0.60150  0.88100  Biso   1.000  C
  H272     1.0000 0.88950  0.59230  0.89520  Biso   1.000  H
  C430     1.0000 0.27288  0.65355  0.81220  Biso   1.000  C
  C431     1.0000 0.18577  0.56989  0.93440  Biso   1.000  C
  C432     1.0000 0.73864  0.63825  0.81320  Biso   1.000  C
  C433     1.0000 0.82030  0.54977  0.93568  Biso   1.000  C
  C434     1.0000 0.46690  0.68610  0.70320  Biso   1.000  C
  C435     1.0000 0.46870  0.71310  0.66330  Biso   1.000  C
  H273     1.0000 0.44140  0.72340  0.64900  Biso   1.000  H
  C436     1.0000 0.50960  0.72510  0.64430  Biso   1.000  C
  C437     1.0000 0.54960  0.70860  0.66370  Biso   1.000  C
  H274     1.0000 0.57790  0.71630  0.64990  Biso   1.000  H
  C438     1.0000 0.54810  0.68100  0.70320  Biso   1.000  C
  C439     1.0000 0.50721  0.67010  0.72320  Biso   1.000  C
  H275     1.0000 0.50620  0.65150  0.75080  Biso   1.000  H
  C440     1.0000 0.54650  0.77080  0.58760  Biso   1.000  C
  H276     1.0000 0.56930  0.74690  0.58120  Biso   1.000  H
  H277     1.0000 0.55930  0.79230  0.61110  Biso   1.000  H
  C441     1.0000 0.53380  0.79610  0.54050  Biso   1.000  C
  C442     1.0000 0.53180  0.84080  0.54260  Biso   1.000  C
  H278     1.0000 0.53240  0.85680  0.57200  Biso   1.000  H
  C443     1.0000 0.42236  0.67640  0.72670  Biso   1.000  C
  C444     1.0000 0.32700  0.73190  0.64090  Biso   1.000  C
  H279     1.0000 0.35820  0.72590  0.64610  Biso   1.000  H
  C445     1.0000 0.31300  0.75130  0.59830  Biso   1.000  C
  H280     1.0000 0.33460  0.75850  0.57440  Biso   1.000  H
  C446     1.0000 0.26730  0.76010  0.59070  Biso   1.000  C
  H281     1.0000 0.25770  0.77340  0.56150  Biso   1.000  H
  C447     1.0000 0.23570  0.74960  0.62560  Biso   1.000  C
  H282     1.0000 0.20450  0.75560  0.62040  Biso   1.000  H
  C448     1.0000 0.24980  0.73020  0.66820  Biso   1.000  C
  H283     1.0000 0.22820  0.72300  0.69200  Biso   1.000  H
  N11      1.0000 0.29540  0.72134  0.67580  Biso   1.000  N
  Cu31     1.0000 0.67381  0.31213  0.73479  Biso   1.000  Cu
  Cu32     1.0000 0.63118  0.35809  0.80200  Biso   1.000  Cu
  O166     1.0000 0.77762  0.44474  0.95106  Biso   1.000  O
  O167     1.0000 0.85295  0.44214  0.95023  Biso   1.000  O
  O168     1.0000 0.88760  0.33290  0.81531  Biso   1.000  O
  O169     1.0000 0.09743  0.35235  0.83124  Biso   1.000  O
  O170     1.0000 0.25945  0.33975  0.77475  Biso   1.000  O
  O171     1.0000 0.29853  0.37608  0.83049  Biso   1.000  O
  O172     1.0000 0.21846  0.46296  0.95182  Biso   1.000  O
  O173     1.0000 0.14225  0.46575  0.95114  Biso   1.000  O
  O174     1.0000 0.69155  0.36236  0.83072  Biso   1.000  O
  O175     1.0000 0.72765  0.32358  0.77359  Biso   1.000  O
  O176     1.0000 0.61285  0.30806  0.70822  Biso   1.000  O
  O177     1.0000 0.57714  0.34743  0.76454  Biso   1.000  O
  O178     1.0000 0.41134  0.35464  0.76446  Biso   1.000  O
  O179     1.0000 0.37289  0.31834  0.70780  Biso   1.000  O
  O180     1.0000 0.49211  0.24780  0.60450  Biso   1.000  O
  C449     1.0000 0.77225  0.38654  0.87334  Biso   1.000  C
  H284     1.0000 0.74490  0.39870  0.88570  Biso   1.000  H
  C450     1.0000 0.40870  0.33200  0.72630  Biso   1.000  C
  C451     1.0000 0.77056  0.35688  0.83453  Biso   1.000  C
  C452     1.0000 0.81065  0.33955  0.81710  Biso   1.000  C
  H285     1.0000 0.80990  0.31880  0.79130  Biso   1.000  H
  C453     1.0000 0.85225  0.35190  0.83660  Biso   1.000  C
  C454     1.0000 0.85314  0.38074  0.87560  Biso   1.000  C
  H286     1.0000 0.88110  0.38870  0.89000  Biso   1.000  H
  C455     1.0000 0.81237  0.39814  0.89359  Biso   1.000  C
  C456     1.0000 0.92870  0.34560  0.83040  Biso   1.000  C
  H287     1.0000 0.93410  0.33330  0.86270  Biso   1.000  H
  H288     1.0000 0.93020  0.37900  0.83220  Biso   1.000  H
  C457     1.0000 0.96568  0.32780  0.79580  Biso   1.000  C
  C458     1.0000 0.95520  0.30510  0.75750  Biso   1.000  C
  H289     1.0000 0.92420  0.30130  0.74930  Biso   1.000  H
  C459     1.0000 0.98830  0.28620  0.72830  Biso   1.000  C
  H290     1.0000 0.98000  0.26710  0.70250  Biso   1.000  H
  C460     1.0000 0.03270  0.29530  0.73740  Biso   1.000  C
  H291     1.0000 0.05560  0.28430  0.71670  Biso   1.000  H
  C461     1.0000 0.04440  0.32050  0.77640  Biso   1.000  C
  C462     1.0000 0.01080  0.33570  0.80510  Biso   1.000  C
  H292     1.0000 0.01860  0.35250  0.83270  Biso   1.000  H
  C463     1.0000 0.09450  0.32810  0.78810  Biso   1.000  C
  H293     1.0000 0.11020  0.29860  0.79130  Biso   1.000  H
  H294     1.0000 0.10930  0.34540  0.76220  Biso   1.000  H
  C464     1.0000 0.13895  0.36740  0.84390  Biso   1.000  C
  C465     1.0000 0.17879  0.35482  0.82220  Biso   1.000  C
  H295     1.0000 0.17860  0.33370  0.79670  Biso   1.000  H
  C466     1.0000 0.21928  0.37337  0.83800  Biso   1.000  C
  C467     1.0000 0.21961  0.40359  0.87490  Biso   1.000  C
  H296     1.0000 0.24750  0.41610  0.88530  Biso   1.000  H
  C468     1.0000 0.17998  0.41611  0.89710  Biso   1.000  C
  C469     1.0000 0.13830  0.39850  0.88100  Biso   1.000  C
  H297     1.0000 0.11050  0.40770  0.89520  Biso   1.000  H
  C470     1.0000 0.72712  0.34645  0.81220  Biso   1.000  C
  C471     1.0000 0.81423  0.43011  0.93440  Biso   1.000  C
  C472     1.0000 0.26136  0.36175  0.81320  Biso   1.000  C
  C473     1.0000 0.17970  0.45023  0.93568  Biso   1.000  C
  C474     1.0000 0.53310  0.31390  0.70320  Biso   1.000  C
  C475     1.0000 0.53130  0.28690  0.66330  Biso   1.000  C
  H298     1.0000 0.55860  0.27660  0.64900  Biso   1.000  H
  C476     1.0000 0.49040  0.27490  0.64430  Biso   1.000  C
  C477     1.0000 0.45040  0.29140  0.66370  Biso   1.000  C
  H299     1.0000 0.42210  0.28370  0.64990  Biso   1.000  H
  C478     1.0000 0.45190  0.31900  0.70320  Biso   1.000  C
  C479     1.0000 0.49279  0.32990  0.72320  Biso   1.000  C
  H300     1.0000 0.49380  0.34850  0.75080  Biso   1.000  H
  C480     1.0000 0.45350  0.22920  0.58760  Biso   1.000  C
  H301     1.0000 0.43070  0.25310  0.58120  Biso   1.000  H
  H302     1.0000 0.44070  0.20770  0.61110  Biso   1.000  H
  C481     1.0000 0.46620  0.20390  0.54050  Biso   1.000  C
  C482     1.0000 0.46820  0.15920  0.54260  Biso   1.000  C
  H303     1.0000 0.46760  0.14320  0.57200  Biso   1.000  H
  C483     1.0000 0.57764  0.32360  0.72670  Biso   1.000  C
  C484     1.0000 0.67300  0.26810  0.64090  Biso   1.000  C
  H304     1.0000 0.64180  0.27410  0.64610  Biso   1.000  H
  C485     1.0000 0.68700  0.24870  0.59830  Biso   1.000  C
  H305     1.0000 0.66540  0.24150  0.57440  Biso   1.000  H
  C486     1.0000 0.73270  0.23990  0.59070  Biso   1.000  C
  H306     1.0000 0.74230  0.22660  0.56150  Biso   1.000  H
  C487     1.0000 0.76430  0.25040  0.62560  Biso   1.000  C
  H307     1.0000 0.79550  0.24440  0.62040  Biso   1.000  H
  C488     1.0000 0.75020  0.26980  0.66820  Biso   1.000  C
  H308     1.0000 0.77180  0.27700  0.69200  Biso   1.000  H
  N12      1.0000 0.70460  0.27866  0.67580  Biso   1.000  N
  Cu33     1.0000 0.31213  0.32619  0.26521  Biso   1.000  Cu
  Cu34     1.0000 0.35809  0.36882  0.19800  Biso   1.000  Cu
  O181     1.0000 0.44474  0.22238  0.04894  Biso   1.000  O
  O182     1.0000 0.44214  0.14705  0.04977  Biso   1.000  O
  O183     1.0000 0.33290  0.11240  0.18469  Biso   1.000  O
  O184     1.0000 0.35235  0.90257  0.16876  Biso   1.000  O
  O185     1.0000 0.33975  0.74055  0.22525  Biso   1.000  O
  O186     1.0000 0.37608  0.70147  0.16951  Biso   1.000  O
  O187     1.0000 0.46296  0.78154  0.04818  Biso   1.000  O
  O188     1.0000 0.46575  0.85775  0.04886  Biso   1.000  O
  O189     1.0000 0.36236  0.30845  0.16928  Biso   1.000  O
  O190     1.0000 0.32358  0.27235  0.22641  Biso   1.000  O
  O191     1.0000 0.30806  0.38715  0.29178  Biso   1.000  O
  O192     1.0000 0.34743  0.42286  0.23546  Biso   1.000  O
  O193     1.0000 0.35464  0.58866  0.23554  Biso   1.000  O
  O194     1.0000 0.31834  0.62711  0.29220  Biso   1.000  O
  O195     1.0000 0.24780  0.50789  0.39550  Biso   1.000  O
  C489     1.0000 0.38654  0.22775  0.12666  Biso   1.000  C
  H309     1.0000 0.39870  0.25510  0.11430  Biso   1.000  H
  C490     1.0000 0.33200  0.59130  0.27370  Biso   1.000  C
  C491     1.0000 0.35688  0.22944  0.16547  Biso   1.000  C
  C492     1.0000 0.33955  0.18935  0.18290  Biso   1.000  C
  H310     1.0000 0.31880  0.19010  0.20870  Biso   1.000  H
  C493     1.0000 0.35190  0.14775  0.16340  Biso   1.000  C
  C494     1.0000 0.38074  0.14686  0.12440  Biso   1.000  C
  H311     1.0000 0.38870  0.11890  0.11000  Biso   1.000  H
  C495     1.0000 0.39814  0.18763  0.10641  Biso   1.000  C
  C496     1.0000 0.34560  0.07130  0.16960  Biso   1.000  C
  H312     1.0000 0.33330  0.06590  0.13730  Biso   1.000  H
  H313     1.0000 0.37900  0.06980  0.16780  Biso   1.000  H
  C497     1.0000 0.32780  0.03432  0.20420  Biso   1.000  C
  C498     1.0000 0.30510  0.04480  0.24250  Biso   1.000  C
  H314     1.0000 0.30130  0.07580  0.25070  Biso   1.000  H
  C499     1.0000 0.28620  0.01170  0.27170  Biso   1.000  C
  H315     1.0000 0.26710  0.02000  0.29750  Biso   1.000  H
  C500     1.0000 0.29530  0.96730  0.26260  Biso   1.000  C
  H316     1.0000 0.28430  0.94440  0.28330  Biso   1.000  H
  C501     1.0000 0.32050  0.95560  0.22360  Biso   1.000  C
  C502     1.0000 0.33570  0.98920  0.19490  Biso   1.000  C
  H317     1.0000 0.35250  0.98140  0.16730  Biso   1.000  H
  C503     1.0000 0.32810  0.90550  0.21190  Biso   1.000  C
  H318     1.0000 0.29860  0.88980  0.20870  Biso   1.000  H
  H319     1.0000 0.34540  0.89070  0.23780  Biso   1.000  H
  C504     1.0000 0.36740  0.86105  0.15610  Biso   1.000  C
  C505     1.0000 0.35482  0.82121  0.17780  Biso   1.000  C
  H320     1.0000 0.33370  0.82140  0.20330  Biso   1.000  H
  C506     1.0000 0.37337  0.78072  0.16200  Biso   1.000  C
  C507     1.0000 0.40359  0.78039  0.12510  Biso   1.000  C
  H321     1.0000 0.41610  0.75250  0.11470  Biso   1.000  H
  C508     1.0000 0.41611  0.82002  0.10290  Biso   1.000  C
  C509     1.0000 0.39850  0.86170  0.11900  Biso   1.000  C
  H322     1.0000 0.40770  0.88950  0.10480  Biso   1.000  H
  C510     1.0000 0.34645  0.27288  0.18780  Biso   1.000  C
  C511     1.0000 0.43011  0.18577  0.06560  Biso   1.000  C
  C512     1.0000 0.36175  0.73864  0.18680  Biso   1.000  C
  C513     1.0000 0.45023  0.82030  0.06432  Biso   1.000  C
  C514     1.0000 0.31390  0.46690  0.29680  Biso   1.000  C
  C515     1.0000 0.28690  0.46870  0.33670  Biso   1.000  C
  H323     1.0000 0.27660  0.44140  0.35100  Biso   1.000  H
  C516     1.0000 0.27490  0.50960  0.35570  Biso   1.000  C
  C517     1.0000 0.29140  0.54960  0.33630  Biso   1.000  C
  H324     1.0000 0.28370  0.57790  0.35010  Biso   1.000  H
  C518     1.0000 0.31900  0.54810  0.29680  Biso   1.000  C
  C519     1.0000 0.32990  0.50721  0.27680  Biso   1.000  C
  H325     1.0000 0.34850  0.50620  0.24920  Biso   1.000  H
  C520     1.0000 0.22920  0.54650  0.41240  Biso   1.000  C
  H326     1.0000 0.25310  0.56930  0.41880  Biso   1.000  H
  H327     1.0000 0.20770  0.55930  0.38890  Biso   1.000  H
  C521     1.0000 0.20390  0.53380  0.45950  Biso   1.000  C
  C522     1.0000 0.15920  0.53180  0.45740  Biso   1.000  C
  H328     1.0000 0.14320  0.53240  0.42800  Biso   1.000  H
  C523     1.0000 0.32360  0.42236  0.27330  Biso   1.000  C
  C524     1.0000 0.26810  0.32700  0.35910  Biso   1.000  C
  H329     1.0000 0.27410  0.35820  0.35390  Biso   1.000  H
  C525     1.0000 0.24870  0.31300  0.40170  Biso   1.000  C
  H330     1.0000 0.24150  0.33460  0.42560  Biso   1.000  H
  C526     1.0000 0.23990  0.26730  0.40930  Biso   1.000  C
  H331     1.0000 0.22660  0.25770  0.43850  Biso   1.000  H
  C527     1.0000 0.25040  0.23570  0.37440  Biso   1.000  C
  H332     1.0000 0.24440  0.20450  0.37960  Biso   1.000  H
  C528     1.0000 0.26980  0.24980  0.33180  Biso   1.000  C
  H333     1.0000 0.27700  0.22820  0.30800  Biso   1.000  H
  N13      1.0000 0.27866  0.29540  0.32420  Biso   1.000  N
  Cu35     1.0000 0.68787  0.67381  0.26521  Biso   1.000  Cu
  Cu36     1.0000 0.64191  0.63118  0.19800  Biso   1.000  Cu
  O196     1.0000 0.55526  0.77762  0.04894  Biso   1.000  O
  O197     1.0000 0.55786  0.85295  0.04977  Biso   1.000  O
  O198     1.0000 0.66710  0.88760  0.18469  Biso   1.000  O
  O199     1.0000 0.64765  0.09743  0.16876  Biso   1.000  O
  O200     1.0000 0.66025  0.25945  0.22525  Biso   1.000  O
  O201     1.0000 0.62392  0.29853  0.16951  Biso   1.000  O
  O202     1.0000 0.53704  0.21846  0.04818  Biso   1.000  O
  O203     1.0000 0.53425  0.14225  0.04886  Biso   1.000  O
  O204     1.0000 0.63764  0.69155  0.16928  Biso   1.000  O
  O205     1.0000 0.67642  0.72765  0.22641  Biso   1.000  O
  O206     1.0000 0.69194  0.61285  0.29178  Biso   1.000  O
  O207     1.0000 0.65257  0.57714  0.23546  Biso   1.000  O
  O208     1.0000 0.64536  0.41134  0.23554  Biso   1.000  O
  O209     1.0000 0.68166  0.37289  0.29220  Biso   1.000  O
  O210     1.0000 0.75220  0.49211  0.39550  Biso   1.000  O
  C529     1.0000 0.61346  0.77225  0.12666  Biso   1.000  C
  H334     1.0000 0.60130  0.74490  0.11430  Biso   1.000  H
  C530     1.0000 0.66800  0.40870  0.27370  Biso   1.000  C
  C531     1.0000 0.64312  0.77056  0.16547  Biso   1.000  C
  C532     1.0000 0.66045  0.81065  0.18290  Biso   1.000  C
  H335     1.0000 0.68120  0.80990  0.20870  Biso   1.000  H
  C533     1.0000 0.64810  0.85225  0.16340  Biso   1.000  C
  C534     1.0000 0.61926  0.85314  0.12440  Biso   1.000  C
  H336     1.0000 0.61130  0.88110  0.11000  Biso   1.000  H
  C535     1.0000 0.60186  0.81237  0.10641  Biso   1.000  C
  C536     1.0000 0.65440  0.92870  0.16960  Biso   1.000  C
  H337     1.0000 0.66670  0.93410  0.13730  Biso   1.000  H
  H338     1.0000 0.62100  0.93020  0.16780  Biso   1.000  H
  C537     1.0000 0.67220  0.96568  0.20420  Biso   1.000  C
  C538     1.0000 0.69490  0.95520  0.24250  Biso   1.000  C
  H339     1.0000 0.69870  0.92420  0.25070  Biso   1.000  H
  C539     1.0000 0.71380  0.98830  0.27170  Biso   1.000  C
  H340     1.0000 0.73290  0.98000  0.29750  Biso   1.000  H
  C540     1.0000 0.70470  0.03270  0.26260  Biso   1.000  C
  H341     1.0000 0.71570  0.05560  0.28330  Biso   1.000  H
  C541     1.0000 0.67950  0.04440  0.22360  Biso   1.000  C
  C542     1.0000 0.66430  0.01080  0.19490  Biso   1.000  C
  H342     1.0000 0.64750  0.01860  0.16730  Biso   1.000  H
  C543     1.0000 0.67190  0.09450  0.21190  Biso   1.000  C
  H343     1.0000 0.70140  0.11020  0.20870  Biso   1.000  H
  H344     1.0000 0.65460  0.10930  0.23780  Biso   1.000  H
  C544     1.0000 0.63260  0.13895  0.15610  Biso   1.000  C
  C545     1.0000 0.64518  0.17879  0.17780  Biso   1.000  C
  H345     1.0000 0.66630  0.17860  0.20330  Biso   1.000  H
  C546     1.0000 0.62663  0.21928  0.16200  Biso   1.000  C
  C547     1.0000 0.59641  0.21961  0.12510  Biso   1.000  C
  H346     1.0000 0.58390  0.24750  0.11470  Biso   1.000  H
  C548     1.0000 0.58389  0.17998  0.10290  Biso   1.000  C
  C549     1.0000 0.60150  0.13830  0.11900  Biso   1.000  C
  H347     1.0000 0.59230  0.11050  0.10480  Biso   1.000  H
  C550     1.0000 0.65355  0.72712  0.18780  Biso   1.000  C
  C551     1.0000 0.56989  0.81423  0.06560  Biso   1.000  C
  C552     1.0000 0.63825  0.26136  0.18680  Biso   1.000  C
  C553     1.0000 0.54977  0.17970  0.06432  Biso   1.000  C
  C554     1.0000 0.68610  0.53310  0.29680  Biso   1.000  C
  C555     1.0000 0.71310  0.53130  0.33670  Biso   1.000  C
  H348     1.0000 0.72340  0.55860  0.35100  Biso   1.000  H
  C556     1.0000 0.72510  0.49040  0.35570  Biso   1.000  C
  C557     1.0000 0.70860  0.45040  0.33630  Biso   1.000  C
  H349     1.0000 0.71630  0.42210  0.35010  Biso   1.000  H
  C558     1.0000 0.68100  0.45190  0.29680  Biso   1.000  C
  C559     1.0000 0.67010  0.49279  0.27680  Biso   1.000  C
  H350     1.0000 0.65150  0.49380  0.24920  Biso   1.000  H
  C560     1.0000 0.77080  0.45350  0.41240  Biso   1.000  C
  H351     1.0000 0.74690  0.43070  0.41880  Biso   1.000  H
  H352     1.0000 0.79230  0.44070  0.38890  Biso   1.000  H
  C561     1.0000 0.79610  0.46620  0.45950  Biso   1.000  C
  C562     1.0000 0.84080  0.46820  0.45740  Biso   1.000  C
  H353     1.0000 0.85680  0.46760  0.42800  Biso   1.000  H
  C563     1.0000 0.67640  0.57764  0.27330  Biso   1.000  C
  C564     1.0000 0.73190  0.67300  0.35910  Biso   1.000  C
  H354     1.0000 0.72590  0.64180  0.35390  Biso   1.000  H
  C565     1.0000 0.75130  0.68700  0.40170  Biso   1.000  C
  H355     1.0000 0.75850  0.66540  0.42560  Biso   1.000  H
  C566     1.0000 0.76010  0.73270  0.40930  Biso   1.000  C
  H356     1.0000 0.77340  0.74230  0.43850  Biso   1.000  H
  C567     1.0000 0.74960  0.76430  0.37440  Biso   1.000  C
  H357     1.0000 0.75560  0.79550  0.37960  Biso   1.000  H
  C568     1.0000 0.73020  0.75020  0.33180  Biso   1.000  C
  H358     1.0000 0.72300  0.77180  0.30800  Biso   1.000  H
  N14      1.0000 0.72134  0.70460  0.32420  Biso   1.000  N
  Cu37     1.0000 0.67381  0.31213  0.26521  Biso   1.000  Cu
  Cu38     1.0000 0.63118  0.35809  0.19800  Biso   1.000  Cu
  O211     1.0000 0.77762  0.44474  0.04894  Biso   1.000  O
  O212     1.0000 0.85295  0.44214  0.04977  Biso   1.000  O
  O213     1.0000 0.88760  0.33290  0.18469  Biso   1.000  O
  O214     1.0000 0.09743  0.35235  0.16876  Biso   1.000  O
  O215     1.0000 0.25945  0.33975  0.22525  Biso   1.000  O
  O216     1.0000 0.29853  0.37608  0.16951  Biso   1.000  O
  O217     1.0000 0.21846  0.46296  0.04818  Biso   1.000  O
  O218     1.0000 0.14225  0.46575  0.04886  Biso   1.000  O
  O219     1.0000 0.69155  0.36236  0.16928  Biso   1.000  O
  O220     1.0000 0.72765  0.32358  0.22641  Biso   1.000  O
  O221     1.0000 0.61285  0.30806  0.29178  Biso   1.000  O
  O222     1.0000 0.57714  0.34743  0.23546  Biso   1.000  O
  O223     1.0000 0.41134  0.35464  0.23554  Biso   1.000  O
  O224     1.0000 0.37289  0.31834  0.29220  Biso   1.000  O
  O225     1.0000 0.49211  0.24780  0.39550  Biso   1.000  O
  C569     1.0000 0.77225  0.38654  0.12666  Biso   1.000  C
  H359     1.0000 0.74490  0.39870  0.11430  Biso   1.000  H
  C570     1.0000 0.40870  0.33200  0.27370  Biso   1.000  C
  C571     1.0000 0.77056  0.35688  0.16547  Biso   1.000  C
  C572     1.0000 0.81065  0.33955  0.18290  Biso   1.000  C
  H360     1.0000 0.80990  0.31880  0.20870  Biso   1.000  H
  C573     1.0000 0.85225  0.35190  0.16340  Biso   1.000  C
  C574     1.0000 0.85314  0.38074  0.12440  Biso   1.000  C
  H361     1.0000 0.88110  0.38870  0.11000  Biso   1.000  H
  C575     1.0000 0.81237  0.39814  0.10641  Biso   1.000  C
  C576     1.0000 0.92870  0.34560  0.16960  Biso   1.000  C
  H362     1.0000 0.93410  0.33330  0.13730  Biso   1.000  H
  H363     1.0000 0.93020  0.37900  0.16780  Biso   1.000  H
  C577     1.0000 0.96568  0.32780  0.20420  Biso   1.000  C
  C578     1.0000 0.95520  0.30510  0.24250  Biso   1.000  C
  H364     1.0000 0.92420  0.30130  0.25070  Biso   1.000  H
  C579     1.0000 0.98830  0.28620  0.27170  Biso   1.000  C
  H365     1.0000 0.98000  0.26710  0.29750  Biso   1.000  H
  C580     1.0000 0.03270  0.29530  0.26260  Biso   1.000  C
  H366     1.0000 0.05560  0.28430  0.28330  Biso   1.000  H
  C581     1.0000 0.04440  0.32050  0.22360  Biso   1.000  C
  C582     1.0000 0.01080  0.33570  0.19490  Biso   1.000  C
  H367     1.0000 0.01860  0.35250  0.16730  Biso   1.000  H
  C583     1.0000 0.09450  0.32810  0.21190  Biso   1.000  C
  H368     1.0000 0.11020  0.29860  0.20870  Biso   1.000  H
  H369     1.0000 0.10930  0.34540  0.23780  Biso   1.000  H
  C584     1.0000 0.13895  0.36740  0.15610  Biso   1.000  C
  C585     1.0000 0.17879  0.35482  0.17780  Biso   1.000  C
  H370     1.0000 0.17860  0.33370  0.20330  Biso   1.000  H
  C586     1.0000 0.21928  0.37337  0.16200  Biso   1.000  C
  C587     1.0000 0.21961  0.40359  0.12510  Biso   1.000  C
  H371     1.0000 0.24750  0.41610  0.11470  Biso   1.000  H
  C588     1.0000 0.17998  0.41611  0.10290  Biso   1.000  C
  C589     1.0000 0.13830  0.39850  0.11900  Biso   1.000  C
  H372     1.0000 0.11050  0.40770  0.10480  Biso   1.000  H
  C590     1.0000 0.72712  0.34645  0.18780  Biso   1.000  C
  C591     1.0000 0.81423  0.43011  0.06560  Biso   1.000  C
  C592     1.0000 0.26136  0.36175  0.18680  Biso   1.000  C
  C593     1.0000 0.17970  0.45023  0.06432  Biso   1.000  C
  C594     1.0000 0.53310  0.31390  0.29680  Biso   1.000  C
  C595     1.0000 0.53130  0.28690  0.33670  Biso   1.000  C
  H373     1.0000 0.55860  0.27660  0.35100  Biso   1.000  H
  C596     1.0000 0.49040  0.27490  0.35570  Biso   1.000  C
  C597     1.0000 0.45040  0.29140  0.33630  Biso   1.000  C
  H374     1.0000 0.42210  0.28370  0.35010  Biso   1.000  H
  C598     1.0000 0.45190  0.31900  0.29680  Biso   1.000  C
  C599     1.0000 0.49279  0.32990  0.27680  Biso   1.000  C
  H375     1.0000 0.49380  0.34850  0.24920  Biso   1.000  H
  C600     1.0000 0.45350  0.22920  0.41240  Biso   1.000  C
  H376     1.0000 0.43070  0.25310  0.41880  Biso   1.000  H
  H377     1.0000 0.44070  0.20770  0.38890  Biso   1.000  H
  C601     1.0000 0.46620  0.20390  0.45950  Biso   1.000  C
  C602     1.0000 0.46820  0.15920  0.45740  Biso   1.000  C
  H378     1.0000 0.46760  0.14320  0.42800  Biso   1.000  H
  C603     1.0000 0.57764  0.32360  0.27330  Biso   1.000  C
  C604     1.0000 0.67300  0.26810  0.35910  Biso   1.000  C
  H379     1.0000 0.64180  0.27410  0.35390  Biso   1.000  H
  C605     1.0000 0.68700  0.24870  0.40170  Biso   1.000  C
  H380     1.0000 0.66540  0.24150  0.42560  Biso   1.000  H
  C606     1.0000 0.73270  0.23990  0.40930  Biso   1.000  C
  H381     1.0000 0.74230  0.22660  0.43850  Biso   1.000  H
  C607     1.0000 0.76430  0.25040  0.37440  Biso   1.000  C
  H382     1.0000 0.79550  0.24440  0.37960  Biso   1.000  H
  C608     1.0000 0.75020  0.26980  0.33180  Biso   1.000  C
  H383     1.0000 0.77180  0.27700  0.30800  Biso   1.000  H
  N15      1.0000 0.70460  0.27866  0.32420  Biso   1.000  N
  Cu39     1.0000 0.32619  0.68787  0.26521  Biso   1.000  Cu
  Cu40     1.0000 0.36882  0.64191  0.19800  Biso   1.000  Cu
  O226     1.0000 0.22238  0.55526  0.04894  Biso   1.000  O
  O227     1.0000 0.14705  0.55786  0.04977  Biso   1.000  O
  O228     1.0000 0.11240  0.66710  0.18469  Biso   1.000  O
  O229     1.0000 0.90257  0.64765  0.16876  Biso   1.000  O
  O230     1.0000 0.74055  0.66025  0.22525  Biso   1.000  O
  O231     1.0000 0.70147  0.62392  0.16951  Biso   1.000  O
  O232     1.0000 0.78154  0.53704  0.04818  Biso   1.000  O
  O233     1.0000 0.85775  0.53425  0.04886  Biso   1.000  O
  O234     1.0000 0.30845  0.63764  0.16928  Biso   1.000  O
  O235     1.0000 0.27235  0.67642  0.22641  Biso   1.000  O
  O236     1.0000 0.38715  0.69194  0.29178  Biso   1.000  O
  O237     1.0000 0.42286  0.65257  0.23546  Biso   1.000  O
  O238     1.0000 0.58866  0.64536  0.23554  Biso   1.000  O
  O239     1.0000 0.62711  0.68166  0.29220  Biso   1.000  O
  O240     1.0000 0.50789  0.75220  0.39550  Biso   1.000  O
  C609     1.0000 0.22775  0.61346  0.12666  Biso   1.000  C
  H384     1.0000 0.25510  0.60130  0.11430  Biso   1.000  H
  C610     1.0000 0.59130  0.66800  0.27370  Biso   1.000  C
  C611     1.0000 0.22944  0.64312  0.16547  Biso   1.000  C
  C612     1.0000 0.18935  0.66045  0.18290  Biso   1.000  C
  H385     1.0000 0.19010  0.68120  0.20870  Biso   1.000  H
  C613     1.0000 0.14775  0.64810  0.16340  Biso   1.000  C
  C614     1.0000 0.14686  0.61926  0.12440  Biso   1.000  C
  H386     1.0000 0.11890  0.61130  0.11000  Biso   1.000  H
  C615     1.0000 0.18763  0.60186  0.10641  Biso   1.000  C
  C616     1.0000 0.07130  0.65440  0.16960  Biso   1.000  C
  H387     1.0000 0.06590  0.66670  0.13730  Biso   1.000  H
  H388     1.0000 0.06980  0.62100  0.16780  Biso   1.000  H
  C617     1.0000 0.03432  0.67220  0.20420  Biso   1.000  C
  C618     1.0000 0.04480  0.69490  0.24250  Biso   1.000  C
  H389     1.0000 0.07580  0.69870  0.25070  Biso   1.000  H
  C619     1.0000 0.01170  0.71380  0.27170  Biso   1.000  C
  H390     1.0000 0.02000  0.73290  0.29750  Biso   1.000  H
  C620     1.0000 0.96730  0.70470  0.26260  Biso   1.000  C
  H391     1.0000 0.94440  0.71570  0.28330  Biso   1.000  H
  C621     1.0000 0.95560  0.67950  0.22360  Biso   1.000  C
  C622     1.0000 0.98920  0.66430  0.19490  Biso   1.000  C
  H392     1.0000 0.98140  0.64750  0.16730  Biso   1.000  H
  C623     1.0000 0.90550  0.67190  0.21190  Biso   1.000  C
  H393     1.0000 0.88980  0.70140  0.20870  Biso   1.000  H
  H394     1.0000 0.89070  0.65460  0.23780  Biso   1.000  H
  C624     1.0000 0.86105  0.63260  0.15610  Biso   1.000  C
  C625     1.0000 0.82121  0.64518  0.17780  Biso   1.000  C
  H395     1.0000 0.82140  0.66630  0.20330  Biso   1.000  H
  C626     1.0000 0.78072  0.62663  0.16200  Biso   1.000  C
  C627     1.0000 0.78039  0.59641  0.12510  Biso   1.000  C
  H396     1.0000 0.75250  0.58390  0.11470  Biso   1.000  H
  C628     1.0000 0.82002  0.58389  0.10290  Biso   1.000  C
  C629     1.0000 0.86170  0.60150  0.11900  Biso   1.000  C
  H397     1.0000 0.88950  0.59230  0.10480  Biso   1.000  H
  C630     1.0000 0.27288  0.65355  0.18780  Biso   1.000  C
  C631     1.0000 0.18577  0.56989  0.06560  Biso   1.000  C
  C632     1.0000 0.73864  0.63825  0.18680  Biso   1.000  C
  C633     1.0000 0.82030  0.54977  0.06432  Biso   1.000  C
  C634     1.0000 0.46690  0.68610  0.29680  Biso   1.000  C
  C635     1.0000 0.46870  0.71310  0.33670  Biso   1.000  C
  H398     1.0000 0.44140  0.72340  0.35100  Biso   1.000  H
  C636     1.0000 0.50960  0.72510  0.35570  Biso   1.000  C
  C637     1.0000 0.54960  0.70860  0.33630  Biso   1.000  C
  H399     1.0000 0.57790  0.71630  0.35010  Biso   1.000  H
  C638     1.0000 0.54810  0.68100  0.29680  Biso   1.000  C
  C639     1.0000 0.50721  0.67010  0.27680  Biso   1.000  C
  H400     1.0000 0.50620  0.65150  0.24920  Biso   1.000  H
  C640     1.0000 0.54650  0.77080  0.41240  Biso   1.000  C
  H401     1.0000 0.56930  0.74690  0.41880  Biso   1.000  H
  H402     1.0000 0.55930  0.79230  0.38890  Biso   1.000  H
  C641     1.0000 0.53380  0.79610  0.45950  Biso   1.000  C
  C642     1.0000 0.53180  0.84080  0.45740  Biso   1.000  C
  H403     1.0000 0.53240  0.85680  0.42800  Biso   1.000  H
  C643     1.0000 0.42236  0.67640  0.27330  Biso   1.000  C
  C644     1.0000 0.32700  0.73190  0.35910  Biso   1.000  C
  H404     1.0000 0.35820  0.72590  0.35390  Biso   1.000  H
  C645     1.0000 0.31300  0.75130  0.40170  Biso   1.000  C
  H405     1.0000 0.33460  0.75850  0.42560  Biso   1.000  H
  C646     1.0000 0.26730  0.76010  0.40930  Biso   1.000  C
  H406     1.0000 0.25770  0.77340  0.43850  Biso   1.000  H
  C647     1.0000 0.23570  0.74960  0.37440  Biso   1.000  C
  H407     1.0000 0.20450  0.75560  0.37960  Biso   1.000  H
  C648     1.0000 0.24980  0.73020  0.33180  Biso   1.000  C
  H408     1.0000 0.22820  0.72300  0.30800  Biso   1.000  H
  N16      1.0000 0.29540  0.72134  0.32420  Biso   1.000  N
  Cu41     1.0000 0.51231  0.86176  0.00000  Biso   1.000  Cu
  Cu42     1.0000 0.50925  0.77316  0.00000  Biso   1.000  Cu
  Cu43     1.0000 0.48769  0.13824  0.00000  Biso   1.000  Cu
  Cu44     1.0000 0.49075  0.22684  0.00000  Biso   1.000  Cu
  Cu45     1.0000 0.13824  0.51231  0.00000  Biso   1.000  Cu
  Cu46     1.0000 0.22684  0.50925  0.00000  Biso   1.000  Cu
  Cu47     1.0000 0.86176  0.48769  0.00000  Biso   1.000  Cu
  Cu48     1.0000 0.77316  0.49075  0.00000  Biso   1.000  Cu
  C649     1.0000 0.86260  0.47140  0.50000  Biso   1.000  C
  H409     1.0000 0.89440  0.47600  0.50000  Biso   1.000  H
  C650     1.0000 0.77140  0.46840  0.50000  Biso   1.000  C
  H410     1.0000 0.73930  0.47130  0.50000  Biso   1.000  H
  C651     1.0000 0.13740  0.52860  0.50000  Biso   1.000  C
  H411     1.0000 0.10560  0.52400  0.50000  Biso   1.000  H
  C652     1.0000 0.22860  0.53160  0.50000  Biso   1.000  C
  H412     1.0000 0.26070  0.52870  0.50000  Biso   1.000  H
  C653     1.0000 0.52860  0.86260  0.50000  Biso   1.000  C
  H413     1.0000 0.52400  0.89440  0.50000  Biso   1.000  H
  C654     1.0000 0.53160  0.77140  0.50000  Biso   1.000  C
  H414     1.0000 0.52870  0.73930  0.50000  Biso   1.000  H
  C655     1.0000 0.47140  0.13740  0.50000  Biso   1.000  C
  H415     1.0000 0.47600  0.10560  0.50000  Biso   1.000  H
  C656     1.0000 0.46840  0.22860  0.50000  Biso   1.000  C
  H416     1.0000 0.47130  0.26070  0.50000  Biso   1.000  H
