data_image0
_cell_length_a       46.108
_cell_length_b       10.6758
_cell_length_c       23.633
_cell_angle_alpha    90
_cell_angle_beta     95.274
_cell_angle_gamma    90

_symmetry_space_group_name_H-M    "P 1"
_symmetry_int_tables_number       1

loop_
  _symmetry_equiv_pos_as_xyz
  'x, y, z'

loop_
  _atom_site_label
  _atom_site_occupancy
  _atom_site_fract_x
  _atom_site_fract_y
  _atom_site_fract_z
  _atom_site_thermal_displace_type
  _atom_site_B_iso_or_equiv
  _atom_site_type_symbol
  C1       1.0000 0.18885  0.10030  0.04983  Biso   1.000  C
  C2       1.0000 0.17083  0.20310  0.06756  Biso   1.000  C
  C3       1.0000 0.15268  0.18840  0.10967  Biso   1.000  C
  H1       1.0000 0.15180  0.11070  0.12720  Biso   1.000  H
  C4       1.0000 0.13534  0.28670  0.12736  Biso   1.000  C
  H2       1.0000 0.12270  0.27490  0.15540  Biso   1.000  H
  C5       1.0000 0.13783  0.39960  0.10173  Biso   1.000  C
  C6       1.0000 0.15587  0.41620  0.06074  Biso   1.000  C
  H3       1.0000 0.15770  0.49520  0.04490  Biso   1.000  H
  C7       1.0000 0.17157  0.31750  0.04211  Biso   1.000  C
  H4       1.0000 0.18280  0.32880  0.01180  Biso   1.000  H
  C8       1.0000 0.10316  0.56310  0.08621  Biso   1.000  C
  C9       1.0000 0.08891  0.50670  0.04055  Biso   1.000  C
  H5       1.0000 0.09380  0.42550  0.03070  Biso   1.000  H
  C10      1.0000 0.06724  0.57010  0.00904  Biso   1.000  C
  H6       1.0000 0.05720  0.53120  0.97790  Biso   1.000  H
  C11      1.0000 0.06007  0.69050  0.02290  Biso   1.000  C
  C12      1.0000 0.07514  0.74810  0.06745  Biso   1.000  C
  H7       1.0000 0.07090  0.83070  0.07620  Biso   1.000  H
  C13      1.0000 0.09687  0.68380  0.10000  Biso   1.000  C
  H8       1.0000 0.10710  0.72250  0.13100  Biso   1.000  H
  C14      1.0000 0.03459  0.75040  0.99050  Biso   1.000  C
  C15      1.0000 0.28812  0.71310  0.15057  Biso   1.000  C
  C16      1.0000 0.30343  0.77700  0.19379  Biso   1.000  C
  H9       1.0000 0.29710  0.85610  0.20370  Biso   1.000  H
  C17      1.0000 0.32853  0.72630  0.22358  Biso   1.000  C
  H10      1.0000 0.33860  0.77080  0.25300  Biso   1.000  H
  C18      1.0000 0.33811  0.60820  0.20831  Biso   1.000  C
  C19      1.0000 0.32362  0.54530  0.16506  Biso   1.000  C
  H11      1.0000 0.33020  0.46760  0.15400  Biso   1.000  H
  C20      1.0000 0.29854  0.59830  0.13697  Biso   1.000  C
  H12      1.0000 0.28850  0.55330  0.10770  Biso   1.000  H
  C21      1.0000 0.38735  0.55040  0.21460  Biso   1.000  C
  C22      1.0000 0.39313  0.61360  0.16710  Biso   1.000  C
  H13      1.0000 0.37850  0.66090  0.14770  Biso   1.000  H
  C23      1.0000 0.42019  0.60900  0.14714  Biso   1.000  C
  H14      1.0000 0.42360  0.65490  0.11500  Biso   1.000  H
  C24      1.0000 0.44241  0.53750  0.17389  Biso   1.000  C
  C25      1.0000 0.43600  0.46970  0.22118  Biso   1.000  C
  H15      1.0000 0.45020  0.41780  0.23910  Biso   1.000  H
  C26      1.0000 0.40873  0.47700  0.24275  Biso   1.000  C
  H16      1.0000 0.40510  0.43320  0.27540  Biso   1.000  H
  C27      1.0000 0.47215  0.53660  0.15191  Biso   1.000  C
  C28      1.0000 0.17751  0.83320  0.17179  Biso   1.000  C
  H17      1.0000 0.17630  0.91920  0.16570  Biso   1.000  H
  C29      1.0000 0.16138  0.78370  0.21267  Biso   1.000  C
  H18      1.0000 0.14950  0.83450  0.23270  Biso   1.000  H
  C30      1.0000 0.16329  0.65590  0.22305  Biso   1.000  C
  C31      1.0000 0.18150  0.58800  0.19142  Biso   1.000  C
  H19      1.0000 0.18340  0.50210  0.19690  Biso   1.000  H
  C32      1.0000 0.19666  0.64640  0.15207  Biso   1.000  C
  H20      1.0000 0.20920  0.59820  0.13230  Biso   1.000  H
  C33      1.0000 0.19328  0.33000  0.48396  Biso   1.000  C
  H21      1.0000 0.21280  0.35350  0.48820  Biso   1.000  H
  C34      1.0000 0.17517  0.39620  0.44475  Biso   1.000  C
  H22      1.0000 0.18220  0.46170  0.42400  Biso   1.000  H
  C35      1.0000 0.14653  0.36180  0.43760  Biso   1.000  C
  C36      1.0000 0.13742  0.26620  0.47008  Biso   1.000  C
  H23      1.0000 0.11810  0.24050  0.46640  Biso   1.000  H
  C37      1.0000 0.15721  0.20960  0.50779  Biso   1.000  C
  H24      1.0000 0.15050  0.14590  0.53000  Biso   1.000  H
  C38      1.0000 0.05023  0.22760  0.17153  Biso   1.000  C
  H25      1.0000 0.05040  0.14110  0.17600  Biso   1.000  H
  C39      1.0000 0.06683  0.29580  0.21100  Biso   1.000  C
  H26      1.0000 0.07810  0.25590  0.24040  Biso   1.000  H
  C40      1.0000 0.06683  0.42190  0.20707  Biso   1.000  C
  C41      1.0000 0.04952  0.47410  0.16191  Biso   1.000  C
  H27      1.0000 0.04830  0.56060  0.15770  Biso   1.000  H
  C42      1.0000 0.03413  0.39640  0.12337  Biso   1.000  C
  H28      1.0000 0.02330  0.43310  0.09260  Biso   1.000  H
  C43      1.0000 0.06451  0.84280  0.51117  Biso   1.000  C
  H29      1.0000 0.07070  0.89200  0.54240  Biso   1.000  H
  C44      1.0000 0.08421  0.81470  0.47370  Biso   1.000  C
  H30      1.0000 0.10340  0.84220  0.47980  Biso   1.000  H
  C45      1.0000 0.07516  0.74520  0.42709  Biso   1.000  C
  C46      1.0000 0.04661  0.70720  0.41849  Biso   1.000  C
  H31      1.0000 0.03970  0.66070  0.38680  Biso   1.000  H
  C47      1.0000 0.02898  0.74170  0.45932  Biso   1.000  C
  H32      1.0000 0.00950  0.71850  0.45370  Biso   1.000  H
  C48      1.0000 0.08675  0.61400  0.35034  Biso   1.000  C
  H33      1.0000 0.07300  0.64980  0.32130  Biso   1.000  H
  H34      1.0000 0.07710  0.54690  0.36890  Biso   1.000  H
  C49      1.0000 0.10101  0.45330  0.28668  Biso   1.000  C
  H35      1.0000 0.11680  0.40860  0.27130  Biso   1.000  H
  H36      1.0000 0.09080  0.39540  0.30940  Biso   1.000  H
  C50      1.0000 0.13629  0.51670  0.36709  Biso   1.000  C
  H37      1.0000 0.15300  0.48910  0.34840  Biso   1.000  H
  H38      1.0000 0.14250  0.58560  0.39220  Biso   1.000  H
  C51      1.0000 0.12692  0.65760  0.28808  Biso   1.000  C
  H39      1.0000 0.11250  0.69590  0.26100  Biso   1.000  H
  H40      1.0000 0.13600  0.72270  0.31230  Biso   1.000  H
  C52      1.0000 0.26162  0.76610  0.12141  Biso   1.000  C
  C53      1.0000 0.11294  0.56190  0.32303  Biso   1.000  C
  N1       1.0000 0.19466  0.76780  0.14023  Biso   1.000  N
  N2       1.0000 0.03389  0.27360  0.12743  Biso   1.000  N
  N3       1.0000 0.18558  0.23750  0.51574  Biso   1.000  N
  N4       1.0000 0.03723  0.80530  0.50616  Biso   1.000  N
  Ni1      1.0000 0.21495  0.84612  0.07397  Biso   1.000  Ni
  Ni2      1.0000 0.99150  0.83131  0.93003  Biso   1.000  Ni
  O1       1.0000 0.19148  0.00490  0.08052  Biso   1.000  O
  O2       1.0000 0.20131  0.11240  0.00568  Biso   1.000  O
  O3       1.0000 0.25277  0.87380  0.13389  Biso   1.000  O
  O4       1.0000 0.24714  0.70350  0.08168  Biso   1.000  O
  O5       1.0000 0.47798  0.63420  0.12478  Biso   1.000  O
  O6       1.0000 0.48837  0.44550  0.16262  Biso   1.000  O
  O7       1.0000 0.02870  0.86500  0.99685  Biso   1.000  O
  O8       1.0000 0.01844  0.68370  0.95622  Biso   1.000  O
  O9       1.0000 0.36198  0.55890  0.24019  Biso   1.000  O
  O10      1.0000 0.12309  0.50070  0.12378  Biso   1.000  O
  O11      1.0000 0.09626  0.70940  0.39164  Biso   1.000  O
  O12      1.0000 0.08155  0.50220  0.24166  Biso   1.000  O
  O13      1.0000 0.12617  0.41540  0.40013  Biso   1.000  O
  O14      1.0000 0.14829  0.59310  0.25915  Biso   1.000  O
  C54      1.0000 0.68885  0.60030  0.04983  Biso   1.000  C
  C55      1.0000 0.67083  0.70310  0.06756  Biso   1.000  C
  C56      1.0000 0.65268  0.68840  0.10967  Biso   1.000  C
  H41      1.0000 0.65180  0.61070  0.12720  Biso   1.000  H
  C57      1.0000 0.63534  0.78670  0.12736  Biso   1.000  C
  H42      1.0000 0.62270  0.77490  0.15540  Biso   1.000  H
  C58      1.0000 0.63783  0.89960  0.10173  Biso   1.000  C
  C59      1.0000 0.65587  0.91620  0.06074  Biso   1.000  C
  H43      1.0000 0.65770  0.99520  0.04490  Biso   1.000  H
  C60      1.0000 0.67157  0.81750  0.04211  Biso   1.000  C
  H44      1.0000 0.68280  0.82880  0.01180  Biso   1.000  H
  C61      1.0000 0.60316  0.06310  0.08621  Biso   1.000  C
  C62      1.0000 0.58891  0.00670  0.04055  Biso   1.000  C
  H45      1.0000 0.59380  0.92550  0.03070  Biso   1.000  H
  C63      1.0000 0.56724  0.07010  0.00904  Biso   1.000  C
  H46      1.0000 0.55720  0.03120  0.97790  Biso   1.000  H
  C64      1.0000 0.56007  0.19050  0.02290  Biso   1.000  C
  C65      1.0000 0.57514  0.24810  0.06745  Biso   1.000  C
  H47      1.0000 0.57090  0.33070  0.07620  Biso   1.000  H
  C66      1.0000 0.59687  0.18380  0.10000  Biso   1.000  C
  H48      1.0000 0.60710  0.22250  0.13100  Biso   1.000  H
  C67      1.0000 0.53459  0.25040  0.99050  Biso   1.000  C
  C68      1.0000 0.78812  0.21310  0.15057  Biso   1.000  C
  C69      1.0000 0.80343  0.27700  0.19379  Biso   1.000  C
  H49      1.0000 0.79710  0.35610  0.20370  Biso   1.000  H
  C70      1.0000 0.82853  0.22630  0.22358  Biso   1.000  C
  H50      1.0000 0.83860  0.27080  0.25300  Biso   1.000  H
  C71      1.0000 0.83811  0.10820  0.20831  Biso   1.000  C
  C72      1.0000 0.82362  0.04530  0.16506  Biso   1.000  C
  H51      1.0000 0.83020  0.96760  0.15400  Biso   1.000  H
  C73      1.0000 0.79854  0.09830  0.13697  Biso   1.000  C
  H52      1.0000 0.78850  0.05330  0.10770  Biso   1.000  H
  C74      1.0000 0.88735  0.05040  0.21460  Biso   1.000  C
  C75      1.0000 0.89313  0.11360  0.16710  Biso   1.000  C
  H53      1.0000 0.87850  0.16090  0.14770  Biso   1.000  H
  C76      1.0000 0.92019  0.10900  0.14714  Biso   1.000  C
  H54      1.0000 0.92360  0.15490  0.11500  Biso   1.000  H
  C77      1.0000 0.94241  0.03750  0.17389  Biso   1.000  C
  C78      1.0000 0.93600  0.96970  0.22118  Biso   1.000  C
  H55      1.0000 0.95020  0.91780  0.23910  Biso   1.000  H
  C79      1.0000 0.90873  0.97700  0.24275  Biso   1.000  C
  H56      1.0000 0.90510  0.93320  0.27540  Biso   1.000  H
  C80      1.0000 0.97215  0.03660  0.15191  Biso   1.000  C
  C81      1.0000 0.67751  0.33320  0.17179  Biso   1.000  C
  H57      1.0000 0.67630  0.41920  0.16570  Biso   1.000  H
  C82      1.0000 0.66138  0.28370  0.21267  Biso   1.000  C
  H58      1.0000 0.64950  0.33450  0.23270  Biso   1.000  H
  C83      1.0000 0.66329  0.15590  0.22305  Biso   1.000  C
  C84      1.0000 0.68150  0.08800  0.19142  Biso   1.000  C
  H59      1.0000 0.68340  0.00210  0.19690  Biso   1.000  H
  C85      1.0000 0.69666  0.14640  0.15207  Biso   1.000  C
  H60      1.0000 0.70920  0.09820  0.13230  Biso   1.000  H
  C86      1.0000 0.69328  0.83000  0.48396  Biso   1.000  C
  H61      1.0000 0.71280  0.85350  0.48820  Biso   1.000  H
  C87      1.0000 0.67517  0.89620  0.44475  Biso   1.000  C
  H62      1.0000 0.68220  0.96170  0.42400  Biso   1.000  H
  C88      1.0000 0.64653  0.86180  0.43760  Biso   1.000  C
  C89      1.0000 0.63742  0.76620  0.47008  Biso   1.000  C
  H63      1.0000 0.61810  0.74050  0.46640  Biso   1.000  H
  C90      1.0000 0.65721  0.70960  0.50779  Biso   1.000  C
  H64      1.0000 0.65050  0.64590  0.53000  Biso   1.000  H
  C91      1.0000 0.55023  0.72760  0.17153  Biso   1.000  C
  H65      1.0000 0.55040  0.64110  0.17600  Biso   1.000  H
  C92      1.0000 0.56683  0.79580  0.21100  Biso   1.000  C
  H66      1.0000 0.57810  0.75590  0.24040  Biso   1.000  H
  C93      1.0000 0.56683  0.92190  0.20707  Biso   1.000  C
  C94      1.0000 0.54952  0.97410  0.16191  Biso   1.000  C
  H67      1.0000 0.54830  0.06060  0.15770  Biso   1.000  H
  C95      1.0000 0.53413  0.89640  0.12337  Biso   1.000  C
  H68      1.0000 0.52330  0.93310  0.09260  Biso   1.000  H
  C96      1.0000 0.56451  0.34280  0.51117  Biso   1.000  C
  H69      1.0000 0.57070  0.39200  0.54240  Biso   1.000  H
  C97      1.0000 0.58421  0.31470  0.47370  Biso   1.000  C
  H70      1.0000 0.60340  0.34220  0.47980  Biso   1.000  H
  C98      1.0000 0.57516  0.24520  0.42709  Biso   1.000  C
  C99      1.0000 0.54661  0.20720  0.41849  Biso   1.000  C
  H71      1.0000 0.53970  0.16070  0.38680  Biso   1.000  H
  C100     1.0000 0.52898  0.24170  0.45932  Biso   1.000  C
  H72      1.0000 0.50950  0.21850  0.45370  Biso   1.000  H
  C101     1.0000 0.58675  0.11400  0.35034  Biso   1.000  C
  H73      1.0000 0.57300  0.14980  0.32130  Biso   1.000  H
  H74      1.0000 0.57710  0.04690  0.36890  Biso   1.000  H
  C102     1.0000 0.60101  0.95330  0.28668  Biso   1.000  C
  H75      1.0000 0.61680  0.90860  0.27130  Biso   1.000  H
  H76      1.0000 0.59080  0.89540  0.30940  Biso   1.000  H
  C103     1.0000 0.63629  0.01670  0.36709  Biso   1.000  C
  H77      1.0000 0.65300  0.98910  0.34840  Biso   1.000  H
  H78      1.0000 0.64250  0.08560  0.39220  Biso   1.000  H
  C104     1.0000 0.62692  0.15760  0.28808  Biso   1.000  C
  H79      1.0000 0.61250  0.19590  0.26100  Biso   1.000  H
  H80      1.0000 0.63600  0.22270  0.31230  Biso   1.000  H
  C105     1.0000 0.76162  0.26610  0.12141  Biso   1.000  C
  C106     1.0000 0.61294  0.06190  0.32303  Biso   1.000  C
  N5       1.0000 0.69466  0.26780  0.14023  Biso   1.000  N
  N6       1.0000 0.53389  0.77360  0.12743  Biso   1.000  N
  N7       1.0000 0.68558  0.73750  0.51574  Biso   1.000  N
  N8       1.0000 0.53723  0.30530  0.50616  Biso   1.000  N
  Ni3      1.0000 0.71495  0.34612  0.07397  Biso   1.000  Ni
  Ni4      1.0000 0.49150  0.33131  0.93003  Biso   1.000  Ni
  O15      1.0000 0.69148  0.50490  0.08052  Biso   1.000  O
  O16      1.0000 0.70131  0.61240  0.00568  Biso   1.000  O
  O17      1.0000 0.75277  0.37380  0.13389  Biso   1.000  O
  O18      1.0000 0.74714  0.20350  0.08168  Biso   1.000  O
  O19      1.0000 0.97798  0.13420  0.12478  Biso   1.000  O
  O20      1.0000 0.98837  0.94550  0.16262  Biso   1.000  O
  O21      1.0000 0.52870  0.36500  0.99685  Biso   1.000  O
  O22      1.0000 0.51844  0.18370  0.95622  Biso   1.000  O
  O23      1.0000 0.86198  0.05890  0.24019  Biso   1.000  O
  O24      1.0000 0.62309  0.00070  0.12378  Biso   1.000  O
  O25      1.0000 0.59626  0.20940  0.39164  Biso   1.000  O
  O26      1.0000 0.58155  0.00220  0.24166  Biso   1.000  O
  O27      1.0000 0.62617  0.91540  0.40013  Biso   1.000  O
  O28      1.0000 0.64829  0.09310  0.25915  Biso   1.000  O
  C107     1.0000 0.81115  0.10030  0.45017  Biso   1.000  C
  C108     1.0000 0.82917  0.20310  0.43244  Biso   1.000  C
  C109     1.0000 0.84732  0.18840  0.39033  Biso   1.000  C
  H81      1.0000 0.84820  0.11070  0.37280  Biso   1.000  H
  C110     1.0000 0.86466  0.28670  0.37264  Biso   1.000  C
  H82      1.0000 0.87730  0.27490  0.34460  Biso   1.000  H
  C111     1.0000 0.86217  0.39960  0.39827  Biso   1.000  C
  C112     1.0000 0.84413  0.41620  0.43926  Biso   1.000  C
  H83      1.0000 0.84230  0.49520  0.45510  Biso   1.000  H
  C113     1.0000 0.82843  0.31750  0.45789  Biso   1.000  C
  H84      1.0000 0.81720  0.32880  0.48820  Biso   1.000  H
  C114     1.0000 0.89684  0.56310  0.41379  Biso   1.000  C
  C115     1.0000 0.91109  0.50670  0.45945  Biso   1.000  C
  H85      1.0000 0.90620  0.42550  0.46930  Biso   1.000  H
  C116     1.0000 0.93276  0.57010  0.49096  Biso   1.000  C
  H86      1.0000 0.94280  0.53120  0.52210  Biso   1.000  H
  C117     1.0000 0.93993  0.69050  0.47710  Biso   1.000  C
  C118     1.0000 0.92486  0.74810  0.43255  Biso   1.000  C
  H87      1.0000 0.92910  0.83070  0.42380  Biso   1.000  H
  C119     1.0000 0.90313  0.68380  0.40000  Biso   1.000  C
  H88      1.0000 0.89290  0.72250  0.36900  Biso   1.000  H
  C120     1.0000 0.96541  0.75040  0.50950  Biso   1.000  C
  C121     1.0000 0.71188  0.71310  0.34943  Biso   1.000  C
  C122     1.0000 0.69657  0.77700  0.30621  Biso   1.000  C
  H89      1.0000 0.70290  0.85610  0.29630  Biso   1.000  H
  C123     1.0000 0.67147  0.72630  0.27642  Biso   1.000  C
  H90      1.0000 0.66140  0.77080  0.24700  Biso   1.000  H
  C124     1.0000 0.66189  0.60820  0.29169  Biso   1.000  C
  C125     1.0000 0.67638  0.54530  0.33494  Biso   1.000  C
  H91      1.0000 0.66980  0.46760  0.34600  Biso   1.000  H
  C126     1.0000 0.70146  0.59830  0.36303  Biso   1.000  C
  H92      1.0000 0.71150  0.55330  0.39230  Biso   1.000  H
  C127     1.0000 0.61265  0.55040  0.28540  Biso   1.000  C
  C128     1.0000 0.60687  0.61360  0.33290  Biso   1.000  C
  H93      1.0000 0.62150  0.66090  0.35230  Biso   1.000  H
  C129     1.0000 0.57981  0.60900  0.35286  Biso   1.000  C
  H94      1.0000 0.57640  0.65490  0.38500  Biso   1.000  H
  C130     1.0000 0.55759  0.53750  0.32611  Biso   1.000  C
  C131     1.0000 0.56400  0.46970  0.27882  Biso   1.000  C
  H95      1.0000 0.54980  0.41780  0.26090  Biso   1.000  H
  C132     1.0000 0.59127  0.47700  0.25725  Biso   1.000  C
  H96      1.0000 0.59490  0.43320  0.22460  Biso   1.000  H
  C133     1.0000 0.52785  0.53660  0.34809  Biso   1.000  C
  C134     1.0000 0.82249  0.83320  0.32821  Biso   1.000  C
  H97      1.0000 0.82370  0.91920  0.33430  Biso   1.000  H
  C135     1.0000 0.83862  0.78370  0.28733  Biso   1.000  C
  H98      1.0000 0.85050  0.83450  0.26730  Biso   1.000  H
  C136     1.0000 0.83671  0.65590  0.27695  Biso   1.000  C
  C137     1.0000 0.81850  0.58800  0.30858  Biso   1.000  C
  H99      1.0000 0.81660  0.50210  0.30310  Biso   1.000  H
  C138     1.0000 0.80334  0.64640  0.34793  Biso   1.000  C
  H100     1.0000 0.79080  0.59820  0.36770  Biso   1.000  H
  C139     1.0000 0.80672  0.33000  0.01604  Biso   1.000  C
  H101     1.0000 0.78720  0.35350  0.01180  Biso   1.000  H
  C140     1.0000 0.82483  0.39620  0.05525  Biso   1.000  C
  H102     1.0000 0.81780  0.46170  0.07600  Biso   1.000  H
  C141     1.0000 0.85347  0.36180  0.06240  Biso   1.000  C
  C142     1.0000 0.86258  0.26620  0.02992  Biso   1.000  C
  H103     1.0000 0.88190  0.24050  0.03360  Biso   1.000  H
  C143     1.0000 0.84279  0.20960  0.99221  Biso   1.000  C
  H104     1.0000 0.84950  0.14590  0.97000  Biso   1.000  H
  C144     1.0000 0.94977  0.22760  0.32847  Biso   1.000  C
  H105     1.0000 0.94960  0.14110  0.32400  Biso   1.000  H
  C145     1.0000 0.93317  0.29580  0.28900  Biso   1.000  C
  H106     1.0000 0.92190  0.25590  0.25960  Biso   1.000  H
  C146     1.0000 0.93317  0.42190  0.29293  Biso   1.000  C
  C147     1.0000 0.95048  0.47410  0.33809  Biso   1.000  C
  H107     1.0000 0.95170  0.56060  0.34230  Biso   1.000  H
  C148     1.0000 0.96587  0.39640  0.37663  Biso   1.000  C
  H108     1.0000 0.97670  0.43310  0.40740  Biso   1.000  H
  C149     1.0000 0.93549  0.84280  0.98883  Biso   1.000  C
  H109     1.0000 0.92930  0.89200  0.95760  Biso   1.000  H
  C150     1.0000 0.91579  0.81470  0.02630  Biso   1.000  C
  H110     1.0000 0.89660  0.84220  0.02020  Biso   1.000  H
  C151     1.0000 0.92484  0.74520  0.07291  Biso   1.000  C
  C152     1.0000 0.95339  0.70720  0.08151  Biso   1.000  C
  H111     1.0000 0.96030  0.66070  0.11320  Biso   1.000  H
  C153     1.0000 0.97102  0.74170  0.04068  Biso   1.000  C
  H112     1.0000 0.99050  0.71850  0.04630  Biso   1.000  H
  C154     1.0000 0.91325  0.61400  0.14966  Biso   1.000  C
  H113     1.0000 0.92700  0.64980  0.17870  Biso   1.000  H
  H114     1.0000 0.92290  0.54690  0.13110  Biso   1.000  H
  C155     1.0000 0.89899  0.45330  0.21332  Biso   1.000  C
  H115     1.0000 0.88320  0.40860  0.22870  Biso   1.000  H
  H116     1.0000 0.90920  0.39540  0.19060  Biso   1.000  H
  C156     1.0000 0.86371  0.51670  0.13291  Biso   1.000  C
  H117     1.0000 0.84700  0.48910  0.15160  Biso   1.000  H
  H118     1.0000 0.85750  0.58560  0.10780  Biso   1.000  H
  C157     1.0000 0.87308  0.65760  0.21192  Biso   1.000  C
  H119     1.0000 0.88750  0.69590  0.23900  Biso   1.000  H
  H120     1.0000 0.86400  0.72270  0.18770  Biso   1.000  H
  C158     1.0000 0.73838  0.76610  0.37859  Biso   1.000  C
  C159     1.0000 0.88706  0.56190  0.17697  Biso   1.000  C
  N9       1.0000 0.80534  0.76780  0.35977  Biso   1.000  N
  N10      1.0000 0.96611  0.27360  0.37257  Biso   1.000  N
  N11      1.0000 0.81442  0.23750  0.98426  Biso   1.000  N
  N12      1.0000 0.96277  0.80530  0.99384  Biso   1.000  N
  Ni5      1.0000 0.78505  0.84612  0.42603  Biso   1.000  Ni
  Ni6      1.0000 0.00850  0.83131  0.56997  Biso   1.000  Ni
  O29      1.0000 0.80852  0.00490  0.41948  Biso   1.000  O
  O30      1.0000 0.79869  0.11240  0.49432  Biso   1.000  O
  O31      1.0000 0.74723  0.87380  0.36611  Biso   1.000  O
  O32      1.0000 0.75286  0.70350  0.41832  Biso   1.000  O
  O33      1.0000 0.52202  0.63420  0.37522  Biso   1.000  O
  O34      1.0000 0.51163  0.44550  0.33738  Biso   1.000  O
  O35      1.0000 0.97130  0.86500  0.50315  Biso   1.000  O
  O36      1.0000 0.98156  0.68370  0.54378  Biso   1.000  O
  O37      1.0000 0.63802  0.55890  0.25981  Biso   1.000  O
  O38      1.0000 0.87691  0.50070  0.37622  Biso   1.000  O
  O39      1.0000 0.90374  0.70940  0.10836  Biso   1.000  O
  O40      1.0000 0.91845  0.50220  0.25834  Biso   1.000  O
  O41      1.0000 0.87383  0.41540  0.09987  Biso   1.000  O
  O42      1.0000 0.85171  0.59310  0.24085  Biso   1.000  O
  C160     1.0000 0.31115  0.60030  0.45017  Biso   1.000  C
  C161     1.0000 0.32917  0.70310  0.43244  Biso   1.000  C
  C162     1.0000 0.34732  0.68840  0.39033  Biso   1.000  C
  H121     1.0000 0.34820  0.61070  0.37280  Biso   1.000  H
  C163     1.0000 0.36466  0.78670  0.37264  Biso   1.000  C
  H122     1.0000 0.37730  0.77490  0.34460  Biso   1.000  H
  C164     1.0000 0.36217  0.89960  0.39827  Biso   1.000  C
  C165     1.0000 0.34413  0.91620  0.43926  Biso   1.000  C
  H123     1.0000 0.34230  0.99520  0.45510  Biso   1.000  H
  C166     1.0000 0.32843  0.81750  0.45789  Biso   1.000  C
  H124     1.0000 0.31720  0.82880  0.48820  Biso   1.000  H
  C167     1.0000 0.39684  0.06310  0.41379  Biso   1.000  C
  C168     1.0000 0.41109  0.00670  0.45945  Biso   1.000  C
  H125     1.0000 0.40620  0.92550  0.46930  Biso   1.000  H
  C169     1.0000 0.43276  0.07010  0.49096  Biso   1.000  C
  H126     1.0000 0.44280  0.03120  0.52210  Biso   1.000  H
  C170     1.0000 0.43993  0.19050  0.47710  Biso   1.000  C
  C171     1.0000 0.42486  0.24810  0.43255  Biso   1.000  C
  H127     1.0000 0.42910  0.33070  0.42380  Biso   1.000  H
  C172     1.0000 0.40313  0.18380  0.40000  Biso   1.000  C
  H128     1.0000 0.39290  0.22250  0.36900  Biso   1.000  H
  C173     1.0000 0.46541  0.25040  0.50950  Biso   1.000  C
  C174     1.0000 0.21188  0.21310  0.34943  Biso   1.000  C
  C175     1.0000 0.19657  0.27700  0.30621  Biso   1.000  C
  H129     1.0000 0.20290  0.35610  0.29630  Biso   1.000  H
  C176     1.0000 0.17147  0.22630  0.27642  Biso   1.000  C
  H130     1.0000 0.16140  0.27080  0.24700  Biso   1.000  H
  C177     1.0000 0.16189  0.10820  0.29169  Biso   1.000  C
  C178     1.0000 0.17638  0.04530  0.33494  Biso   1.000  C
  H131     1.0000 0.16980  0.96760  0.34600  Biso   1.000  H
  C179     1.0000 0.20146  0.09830  0.36303  Biso   1.000  C
  H132     1.0000 0.21150  0.05330  0.39230  Biso   1.000  H
  C180     1.0000 0.11265  0.05040  0.28540  Biso   1.000  C
  C181     1.0000 0.10687  0.11360  0.33290  Biso   1.000  C
  H133     1.0000 0.12150  0.16090  0.35230  Biso   1.000  H
  C182     1.0000 0.07981  0.10900  0.35286  Biso   1.000  C
  H134     1.0000 0.07640  0.15490  0.38500  Biso   1.000  H
  C183     1.0000 0.05759  0.03750  0.32611  Biso   1.000  C
  C184     1.0000 0.06400  0.96970  0.27882  Biso   1.000  C
  H135     1.0000 0.04980  0.91780  0.26090  Biso   1.000  H
  C185     1.0000 0.09127  0.97700  0.25725  Biso   1.000  C
  H136     1.0000 0.09490  0.93320  0.22460  Biso   1.000  H
  C186     1.0000 0.02785  0.03660  0.34809  Biso   1.000  C
  C187     1.0000 0.32249  0.33320  0.32821  Biso   1.000  C
  H137     1.0000 0.32370  0.41920  0.33430  Biso   1.000  H
  C188     1.0000 0.33862  0.28370  0.28733  Biso   1.000  C
  H138     1.0000 0.35050  0.33450  0.26730  Biso   1.000  H
  C189     1.0000 0.33671  0.15590  0.27695  Biso   1.000  C
  C190     1.0000 0.31850  0.08800  0.30858  Biso   1.000  C
  H139     1.0000 0.31660  0.00210  0.30310  Biso   1.000  H
  C191     1.0000 0.30334  0.14640  0.34793  Biso   1.000  C
  H140     1.0000 0.29080  0.09820  0.36770  Biso   1.000  H
  C192     1.0000 0.30672  0.83000  0.01604  Biso   1.000  C
  H141     1.0000 0.28720  0.85350  0.01180  Biso   1.000  H
  C193     1.0000 0.32483  0.89620  0.05525  Biso   1.000  C
  H142     1.0000 0.31780  0.96170  0.07600  Biso   1.000  H
  C194     1.0000 0.35347  0.86180  0.06240  Biso   1.000  C
  C195     1.0000 0.36258  0.76620  0.02992  Biso   1.000  C
  H143     1.0000 0.38190  0.74050  0.03360  Biso   1.000  H
  C196     1.0000 0.34279  0.70960  0.99221  Biso   1.000  C
  H144     1.0000 0.34950  0.64590  0.97000  Biso   1.000  H
  C197     1.0000 0.44977  0.72760  0.32847  Biso   1.000  C
  H145     1.0000 0.44960  0.64110  0.32400  Biso   1.000  H
  C198     1.0000 0.43317  0.79580  0.28900  Biso   1.000  C
  H146     1.0000 0.42190  0.75590  0.25960  Biso   1.000  H
  C199     1.0000 0.43317  0.92190  0.29293  Biso   1.000  C
  C200     1.0000 0.45048  0.97410  0.33809  Biso   1.000  C
  H147     1.0000 0.45170  0.06060  0.34230  Biso   1.000  H
  C201     1.0000 0.46587  0.89640  0.37663  Biso   1.000  C
  H148     1.0000 0.47670  0.93310  0.40740  Biso   1.000  H
  C202     1.0000 0.43549  0.34280  0.98883  Biso   1.000  C
  H149     1.0000 0.42930  0.39200  0.95760  Biso   1.000  H
  C203     1.0000 0.41579  0.31470  0.02630  Biso   1.000  C
  H150     1.0000 0.39660  0.34220  0.02020  Biso   1.000  H
  C204     1.0000 0.42484  0.24520  0.07291  Biso   1.000  C
  C205     1.0000 0.45339  0.20720  0.08151  Biso   1.000  C
  H151     1.0000 0.46030  0.16070  0.11320  Biso   1.000  H
  C206     1.0000 0.47102  0.24170  0.04068  Biso   1.000  C
  H152     1.0000 0.49050  0.21850  0.04630  Biso   1.000  H
  C207     1.0000 0.41325  0.11400  0.14966  Biso   1.000  C
  H153     1.0000 0.42700  0.14980  0.17870  Biso   1.000  H
  H154     1.0000 0.42290  0.04690  0.13110  Biso   1.000  H
  C208     1.0000 0.39899  0.95330  0.21332  Biso   1.000  C
  H155     1.0000 0.38320  0.90860  0.22870  Biso   1.000  H
  H156     1.0000 0.40920  0.89540  0.19060  Biso   1.000  H
  C209     1.0000 0.36371  0.01670  0.13291  Biso   1.000  C
  H157     1.0000 0.34700  0.98910  0.15160  Biso   1.000  H
  H158     1.0000 0.35750  0.08560  0.10780  Biso   1.000  H
  C210     1.0000 0.37308  0.15760  0.21192  Biso   1.000  C
  H159     1.0000 0.38750  0.19590  0.23900  Biso   1.000  H
  H160     1.0000 0.36400  0.22270  0.18770  Biso   1.000  H
  C211     1.0000 0.23838  0.26610  0.37859  Biso   1.000  C
  C212     1.0000 0.38706  0.06190  0.17697  Biso   1.000  C
  N13      1.0000 0.30534  0.26780  0.35977  Biso   1.000  N
  N14      1.0000 0.46611  0.77360  0.37257  Biso   1.000  N
  N15      1.0000 0.31442  0.73750  0.98426  Biso   1.000  N
  N16      1.0000 0.46277  0.30530  0.99384  Biso   1.000  N
  Ni7      1.0000 0.28505  0.34612  0.42603  Biso   1.000  Ni
  Ni8      1.0000 0.50850  0.33131  0.56997  Biso   1.000  Ni
  O43      1.0000 0.30852  0.50490  0.41948  Biso   1.000  O
  O44      1.0000 0.29869  0.61240  0.49432  Biso   1.000  O
  O45      1.0000 0.24723  0.37380  0.36611  Biso   1.000  O
  O46      1.0000 0.25286  0.20350  0.41832  Biso   1.000  O
  O47      1.0000 0.02202  0.13420  0.37522  Biso   1.000  O
  O48      1.0000 0.01163  0.94550  0.33738  Biso   1.000  O
  O49      1.0000 0.47130  0.36500  0.50315  Biso   1.000  O
  O50      1.0000 0.48156  0.18370  0.54378  Biso   1.000  O
  O51      1.0000 0.13802  0.05890  0.25981  Biso   1.000  O
  O52      1.0000 0.37691  0.00070  0.37622  Biso   1.000  O
  O53      1.0000 0.40374  0.20940  0.10836  Biso   1.000  O
  O54      1.0000 0.41845  0.00220  0.25834  Biso   1.000  O
  O55      1.0000 0.37383  0.91540  0.09987  Biso   1.000  O
  O56      1.0000 0.35171  0.09310  0.24085  Biso   1.000  O
  C213     1.0000 0.81115  0.89970  0.95017  Biso   1.000  C
  C214     1.0000 0.82917  0.79690  0.93244  Biso   1.000  C
  C215     1.0000 0.84732  0.81160  0.89033  Biso   1.000  C
  H161     1.0000 0.84820  0.88930  0.87280  Biso   1.000  H
  C216     1.0000 0.86466  0.71330  0.87264  Biso   1.000  C
  H162     1.0000 0.87730  0.72510  0.84460  Biso   1.000  H
  C217     1.0000 0.86217  0.60040  0.89827  Biso   1.000  C
  C218     1.0000 0.84413  0.58380  0.93926  Biso   1.000  C
  H163     1.0000 0.84230  0.50480  0.95510  Biso   1.000  H
  C219     1.0000 0.82843  0.68250  0.95789  Biso   1.000  C
  H164     1.0000 0.81720  0.67120  0.98820  Biso   1.000  H
  C220     1.0000 0.89684  0.43690  0.91379  Biso   1.000  C
  C221     1.0000 0.91109  0.49330  0.95945  Biso   1.000  C
  H165     1.0000 0.90620  0.57450  0.96930  Biso   1.000  H
  C222     1.0000 0.93276  0.42990  0.99096  Biso   1.000  C
  H166     1.0000 0.94280  0.46880  0.02210  Biso   1.000  H
  C223     1.0000 0.93993  0.30950  0.97710  Biso   1.000  C
  C224     1.0000 0.92486  0.25190  0.93255  Biso   1.000  C
  H167     1.0000 0.92910  0.16930  0.92380  Biso   1.000  H
  C225     1.0000 0.90313  0.31620  0.90000  Biso   1.000  C
  H168     1.0000 0.89290  0.27750  0.86900  Biso   1.000  H
  C226     1.0000 0.96541  0.24960  0.00950  Biso   1.000  C
  C227     1.0000 0.71188  0.28690  0.84943  Biso   1.000  C
  C228     1.0000 0.69657  0.22300  0.80621  Biso   1.000  C
  H169     1.0000 0.70290  0.14390  0.79630  Biso   1.000  H
  C229     1.0000 0.67147  0.27370  0.77642  Biso   1.000  C
  H170     1.0000 0.66140  0.22920  0.74700  Biso   1.000  H
  C230     1.0000 0.66189  0.39180  0.79169  Biso   1.000  C
  C231     1.0000 0.67638  0.45470  0.83494  Biso   1.000  C
  H171     1.0000 0.66980  0.53240  0.84600  Biso   1.000  H
  C232     1.0000 0.70146  0.40170  0.86303  Biso   1.000  C
  H172     1.0000 0.71150  0.44670  0.89230  Biso   1.000  H
  C233     1.0000 0.61265  0.44960  0.78540  Biso   1.000  C
  C234     1.0000 0.60687  0.38640  0.83290  Biso   1.000  C
  H173     1.0000 0.62150  0.33910  0.85230  Biso   1.000  H
  C235     1.0000 0.57981  0.39100  0.85286  Biso   1.000  C
  H174     1.0000 0.57640  0.34510  0.88500  Biso   1.000  H
  C236     1.0000 0.55759  0.46250  0.82611  Biso   1.000  C
  C237     1.0000 0.56400  0.53030  0.77882  Biso   1.000  C
  H175     1.0000 0.54980  0.58220  0.76090  Biso   1.000  H
  C238     1.0000 0.59127  0.52300  0.75725  Biso   1.000  C
  H176     1.0000 0.59490  0.56680  0.72460  Biso   1.000  H
  C239     1.0000 0.52785  0.46340  0.84809  Biso   1.000  C
  C240     1.0000 0.82249  0.16680  0.82821  Biso   1.000  C
  H177     1.0000 0.82370  0.08080  0.83430  Biso   1.000  H
  C241     1.0000 0.83862  0.21630  0.78733  Biso   1.000  C
  H178     1.0000 0.85050  0.16550  0.76730  Biso   1.000  H
  C242     1.0000 0.83671  0.34410  0.77695  Biso   1.000  C
  C243     1.0000 0.81850  0.41200  0.80858  Biso   1.000  C
  H179     1.0000 0.81660  0.49790  0.80310  Biso   1.000  H
  C244     1.0000 0.80334  0.35360  0.84793  Biso   1.000  C
  H180     1.0000 0.79080  0.40180  0.86770  Biso   1.000  H
  C245     1.0000 0.80672  0.67000  0.51604  Biso   1.000  C
  H181     1.0000 0.78720  0.64650  0.51180  Biso   1.000  H
  C246     1.0000 0.82483  0.60380  0.55525  Biso   1.000  C
  H182     1.0000 0.81780  0.53830  0.57600  Biso   1.000  H
  C247     1.0000 0.85347  0.63820  0.56240  Biso   1.000  C
  C248     1.0000 0.86258  0.73380  0.52992  Biso   1.000  C
  H183     1.0000 0.88190  0.75950  0.53360  Biso   1.000  H
  C249     1.0000 0.84279  0.79040  0.49221  Biso   1.000  C
  H184     1.0000 0.84950  0.85410  0.47000  Biso   1.000  H
  C250     1.0000 0.94977  0.77240  0.82847  Biso   1.000  C
  H185     1.0000 0.94960  0.85890  0.82400  Biso   1.000  H
  C251     1.0000 0.93317  0.70420  0.78900  Biso   1.000  C
  H186     1.0000 0.92190  0.74410  0.75960  Biso   1.000  H
  C252     1.0000 0.93317  0.57810  0.79293  Biso   1.000  C
  C253     1.0000 0.95048  0.52590  0.83809  Biso   1.000  C
  H187     1.0000 0.95170  0.43940  0.84230  Biso   1.000  H
  C254     1.0000 0.96587  0.60360  0.87663  Biso   1.000  C
  H188     1.0000 0.97670  0.56690  0.90740  Biso   1.000  H
  C255     1.0000 0.93549  0.15720  0.48883  Biso   1.000  C
  H189     1.0000 0.92930  0.10800  0.45760  Biso   1.000  H
  C256     1.0000 0.91579  0.18530  0.52630  Biso   1.000  C
  H190     1.0000 0.89660  0.15780  0.52020  Biso   1.000  H
  C257     1.0000 0.92484  0.25480  0.57291  Biso   1.000  C
  C258     1.0000 0.95339  0.29280  0.58151  Biso   1.000  C
  H191     1.0000 0.96030  0.33930  0.61320  Biso   1.000  H
  C259     1.0000 0.97102  0.25830  0.54068  Biso   1.000  C
  H192     1.0000 0.99050  0.28150  0.54630  Biso   1.000  H
  C260     1.0000 0.91325  0.38600  0.64966  Biso   1.000  C
  H193     1.0000 0.92700  0.35020  0.67870  Biso   1.000  H
  H194     1.0000 0.92290  0.45310  0.63110  Biso   1.000  H
  C261     1.0000 0.89899  0.54670  0.71332  Biso   1.000  C
  H195     1.0000 0.88320  0.59140  0.72870  Biso   1.000  H
  H196     1.0000 0.90920  0.60460  0.69060  Biso   1.000  H
  C262     1.0000 0.86371  0.48330  0.63291  Biso   1.000  C
  H197     1.0000 0.84700  0.51090  0.65160  Biso   1.000  H
  H198     1.0000 0.85750  0.41440  0.60780  Biso   1.000  H
  C263     1.0000 0.87308  0.34240  0.71192  Biso   1.000  C
  H199     1.0000 0.88750  0.30410  0.73900  Biso   1.000  H
  H200     1.0000 0.86400  0.27730  0.68770  Biso   1.000  H
  C264     1.0000 0.73838  0.23390  0.87859  Biso   1.000  C
  C265     1.0000 0.88706  0.43810  0.67697  Biso   1.000  C
  N17      1.0000 0.80534  0.23220  0.85977  Biso   1.000  N
  N18      1.0000 0.96611  0.72640  0.87257  Biso   1.000  N
  N19      1.0000 0.81442  0.76250  0.48426  Biso   1.000  N
  N20      1.0000 0.96277  0.19470  0.49384  Biso   1.000  N
  Ni9      1.0000 0.78505  0.15388  0.92603  Biso   1.000  Ni
  Ni10     1.0000 0.00850  0.16869  0.06997  Biso   1.000  Ni
  O57      1.0000 0.80852  0.99510  0.91948  Biso   1.000  O
  O58      1.0000 0.79869  0.88760  0.99432  Biso   1.000  O
  O59      1.0000 0.74723  0.12620  0.86611  Biso   1.000  O
  O60      1.0000 0.75286  0.29650  0.91832  Biso   1.000  O
  O61      1.0000 0.52202  0.36580  0.87522  Biso   1.000  O
  O62      1.0000 0.51163  0.55450  0.83738  Biso   1.000  O
  O63      1.0000 0.97130  0.13500  0.00315  Biso   1.000  O
  O64      1.0000 0.98156  0.31630  0.04378  Biso   1.000  O
  O65      1.0000 0.63802  0.44110  0.75981  Biso   1.000  O
  O66      1.0000 0.87691  0.49930  0.87622  Biso   1.000  O
  O67      1.0000 0.90374  0.29060  0.60836  Biso   1.000  O
  O68      1.0000 0.91845  0.49780  0.75834  Biso   1.000  O
  O69      1.0000 0.87383  0.58460  0.59987  Biso   1.000  O
  O70      1.0000 0.85171  0.40690  0.74085  Biso   1.000  O
  C266     1.0000 0.31115  0.39970  0.95017  Biso   1.000  C
  C267     1.0000 0.32917  0.29690  0.93244  Biso   1.000  C
  C268     1.0000 0.34732  0.31160  0.89033  Biso   1.000  C
  H201     1.0000 0.34820  0.38930  0.87280  Biso   1.000  H
  C269     1.0000 0.36466  0.21330  0.87264  Biso   1.000  C
  H202     1.0000 0.37730  0.22510  0.84460  Biso   1.000  H
  C270     1.0000 0.36217  0.10040  0.89827  Biso   1.000  C
  C271     1.0000 0.34413  0.08380  0.93926  Biso   1.000  C
  H203     1.0000 0.34230  0.00480  0.95510  Biso   1.000  H
  C272     1.0000 0.32843  0.18250  0.95789  Biso   1.000  C
  H204     1.0000 0.31720  0.17120  0.98820  Biso   1.000  H
  C273     1.0000 0.39684  0.93690  0.91379  Biso   1.000  C
  C274     1.0000 0.41109  0.99330  0.95945  Biso   1.000  C
  H205     1.0000 0.40620  0.07450  0.96930  Biso   1.000  H
  C275     1.0000 0.43276  0.92990  0.99096  Biso   1.000  C
  H206     1.0000 0.44280  0.96880  0.02210  Biso   1.000  H
  C276     1.0000 0.43993  0.80950  0.97710  Biso   1.000  C
  C277     1.0000 0.42486  0.75190  0.93255  Biso   1.000  C
  H207     1.0000 0.42910  0.66930  0.92380  Biso   1.000  H
  C278     1.0000 0.40313  0.81620  0.90000  Biso   1.000  C
  H208     1.0000 0.39290  0.77750  0.86900  Biso   1.000  H
  C279     1.0000 0.46541  0.74960  0.00950  Biso   1.000  C
  C280     1.0000 0.21188  0.78690  0.84943  Biso   1.000  C
  C281     1.0000 0.19657  0.72300  0.80621  Biso   1.000  C
  H209     1.0000 0.20290  0.64390  0.79630  Biso   1.000  H
  C282     1.0000 0.17147  0.77370  0.77642  Biso   1.000  C
  H210     1.0000 0.16140  0.72920  0.74700  Biso   1.000  H
  C283     1.0000 0.16189  0.89180  0.79169  Biso   1.000  C
  C284     1.0000 0.17638  0.95470  0.83494  Biso   1.000  C
  H211     1.0000 0.16980  0.03240  0.84600  Biso   1.000  H
  C285     1.0000 0.20146  0.90170  0.86303  Biso   1.000  C
  H212     1.0000 0.21150  0.94670  0.89230  Biso   1.000  H
  C286     1.0000 0.11265  0.94960  0.78540  Biso   1.000  C
  C287     1.0000 0.10687  0.88640  0.83290  Biso   1.000  C
  H213     1.0000 0.12150  0.83910  0.85230  Biso   1.000  H
  C288     1.0000 0.07981  0.89100  0.85286  Biso   1.000  C
  H214     1.0000 0.07640  0.84510  0.88500  Biso   1.000  H
  C289     1.0000 0.05759  0.96250  0.82611  Biso   1.000  C
  C290     1.0000 0.06400  0.03030  0.77882  Biso   1.000  C
  H215     1.0000 0.04980  0.08220  0.76090  Biso   1.000  H
  C291     1.0000 0.09127  0.02300  0.75725  Biso   1.000  C
  H216     1.0000 0.09490  0.06680  0.72460  Biso   1.000  H
  C292     1.0000 0.02785  0.96340  0.84809  Biso   1.000  C
  C293     1.0000 0.32249  0.66680  0.82821  Biso   1.000  C
  H217     1.0000 0.32370  0.58080  0.83430  Biso   1.000  H
  C294     1.0000 0.33862  0.71630  0.78733  Biso   1.000  C
  H218     1.0000 0.35050  0.66550  0.76730  Biso   1.000  H
  C295     1.0000 0.33671  0.84410  0.77695  Biso   1.000  C
  C296     1.0000 0.31850  0.91200  0.80858  Biso   1.000  C
  H219     1.0000 0.31660  0.99790  0.80310  Biso   1.000  H
  C297     1.0000 0.30334  0.85360  0.84793  Biso   1.000  C
  H220     1.0000 0.29080  0.90180  0.86770  Biso   1.000  H
  C298     1.0000 0.30672  0.17000  0.51604  Biso   1.000  C
  H221     1.0000 0.28720  0.14650  0.51180  Biso   1.000  H
  C299     1.0000 0.32483  0.10380  0.55525  Biso   1.000  C
  H222     1.0000 0.31780  0.03830  0.57600  Biso   1.000  H
  C300     1.0000 0.35347  0.13820  0.56240  Biso   1.000  C
  C301     1.0000 0.36258  0.23380  0.52992  Biso   1.000  C
  H223     1.0000 0.38190  0.25950  0.53360  Biso   1.000  H
  C302     1.0000 0.34279  0.29040  0.49221  Biso   1.000  C
  H224     1.0000 0.34950  0.35410  0.47000  Biso   1.000  H
  C303     1.0000 0.44977  0.27240  0.82847  Biso   1.000  C
  H225     1.0000 0.44960  0.35890  0.82400  Biso   1.000  H
  C304     1.0000 0.43317  0.20420  0.78900  Biso   1.000  C
  H226     1.0000 0.42190  0.24410  0.75960  Biso   1.000  H
  C305     1.0000 0.43317  0.07810  0.79293  Biso   1.000  C
  C306     1.0000 0.45048  0.02590  0.83809  Biso   1.000  C
  H227     1.0000 0.45170  0.93940  0.84230  Biso   1.000  H
  C307     1.0000 0.46587  0.10360  0.87663  Biso   1.000  C
  H228     1.0000 0.47670  0.06690  0.90740  Biso   1.000  H
  C308     1.0000 0.43549  0.65720  0.48883  Biso   1.000  C
  H229     1.0000 0.42930  0.60800  0.45760  Biso   1.000  H
  C309     1.0000 0.41579  0.68530  0.52630  Biso   1.000  C
  H230     1.0000 0.39660  0.65780  0.52020  Biso   1.000  H
  C310     1.0000 0.42484  0.75480  0.57291  Biso   1.000  C
  C311     1.0000 0.45339  0.79280  0.58151  Biso   1.000  C
  H231     1.0000 0.46030  0.83930  0.61320  Biso   1.000  H
  C312     1.0000 0.47102  0.75830  0.54068  Biso   1.000  C
  H232     1.0000 0.49050  0.78150  0.54630  Biso   1.000  H
  C313     1.0000 0.41325  0.88600  0.64966  Biso   1.000  C
  H233     1.0000 0.42700  0.85020  0.67870  Biso   1.000  H
  H234     1.0000 0.42290  0.95310  0.63110  Biso   1.000  H
  C314     1.0000 0.39899  0.04670  0.71332  Biso   1.000  C
  H235     1.0000 0.38320  0.09140  0.72870  Biso   1.000  H
  H236     1.0000 0.40920  0.10460  0.69060  Biso   1.000  H
  C315     1.0000 0.36371  0.98330  0.63291  Biso   1.000  C
  H237     1.0000 0.34700  0.01090  0.65160  Biso   1.000  H
  H238     1.0000 0.35750  0.91440  0.60780  Biso   1.000  H
  C316     1.0000 0.37308  0.84240  0.71192  Biso   1.000  C
  H239     1.0000 0.38750  0.80410  0.73900  Biso   1.000  H
  H240     1.0000 0.36400  0.77730  0.68770  Biso   1.000  H
  C317     1.0000 0.23838  0.73390  0.87859  Biso   1.000  C
  C318     1.0000 0.38706  0.93810  0.67697  Biso   1.000  C
  N21      1.0000 0.30534  0.73220  0.85977  Biso   1.000  N
  N22      1.0000 0.46611  0.22640  0.87257  Biso   1.000  N
  N23      1.0000 0.31442  0.26250  0.48426  Biso   1.000  N
  N24      1.0000 0.46277  0.69470  0.49384  Biso   1.000  N
  Ni11     1.0000 0.28505  0.65388  0.92603  Biso   1.000  Ni
  Ni12     1.0000 0.50850  0.66869  0.06997  Biso   1.000  Ni
  O71      1.0000 0.30852  0.49510  0.91948  Biso   1.000  O
  O72      1.0000 0.29869  0.38760  0.99432  Biso   1.000  O
  O73      1.0000 0.24723  0.62620  0.86611  Biso   1.000  O
  O74      1.0000 0.25286  0.79650  0.91832  Biso   1.000  O
  O75      1.0000 0.02202  0.86580  0.87522  Biso   1.000  O
  O76      1.0000 0.01163  0.05450  0.83738  Biso   1.000  O
  O77      1.0000 0.47130  0.63500  0.00315  Biso   1.000  O
  O78      1.0000 0.48156  0.81630  0.04378  Biso   1.000  O
  O79      1.0000 0.13802  0.94110  0.75981  Biso   1.000  O
  O80      1.0000 0.37691  0.99930  0.87622  Biso   1.000  O
  O81      1.0000 0.40374  0.79060  0.60836  Biso   1.000  O
  O82      1.0000 0.41845  0.99780  0.75834  Biso   1.000  O
  O83      1.0000 0.37383  0.08460  0.59987  Biso   1.000  O
  O84      1.0000 0.35171  0.90690  0.74085  Biso   1.000  O
  C319     1.0000 0.18885  0.89970  0.54983  Biso   1.000  C
  C320     1.0000 0.17083  0.79690  0.56756  Biso   1.000  C
  C321     1.0000 0.15268  0.81160  0.60967  Biso   1.000  C
  H241     1.0000 0.15180  0.88930  0.62720  Biso   1.000  H
  C322     1.0000 0.13534  0.71330  0.62736  Biso   1.000  C
  H242     1.0000 0.12270  0.72510  0.65540  Biso   1.000  H
  C323     1.0000 0.13783  0.60040  0.60173  Biso   1.000  C
  C324     1.0000 0.15587  0.58380  0.56074  Biso   1.000  C
  H243     1.0000 0.15770  0.50480  0.54490  Biso   1.000  H
  C325     1.0000 0.17157  0.68250  0.54211  Biso   1.000  C
  H244     1.0000 0.18280  0.67120  0.51180  Biso   1.000  H
  C326     1.0000 0.10316  0.43690  0.58621  Biso   1.000  C
  C327     1.0000 0.08891  0.49330  0.54055  Biso   1.000  C
  H245     1.0000 0.09380  0.57450  0.53070  Biso   1.000  H
  C328     1.0000 0.06724  0.42990  0.50904  Biso   1.000  C
  H246     1.0000 0.05720  0.46880  0.47790  Biso   1.000  H
  C329     1.0000 0.06007  0.30950  0.52290  Biso   1.000  C
  C330     1.0000 0.07514  0.25190  0.56745  Biso   1.000  C
  H247     1.0000 0.07090  0.16930  0.57620  Biso   1.000  H
  C331     1.0000 0.09687  0.31620  0.60000  Biso   1.000  C
  H248     1.0000 0.10710  0.27750  0.63100  Biso   1.000  H
  C332     1.0000 0.03459  0.24960  0.49050  Biso   1.000  C
  C333     1.0000 0.28812  0.28690  0.65057  Biso   1.000  C
  C334     1.0000 0.30343  0.22300  0.69379  Biso   1.000  C
  H249     1.0000 0.29710  0.14390  0.70370  Biso   1.000  H
  C335     1.0000 0.32853  0.27370  0.72358  Biso   1.000  C
  H250     1.0000 0.33860  0.22920  0.75300  Biso   1.000  H
  C336     1.0000 0.33811  0.39180  0.70831  Biso   1.000  C
  C337     1.0000 0.32362  0.45470  0.66506  Biso   1.000  C
  H251     1.0000 0.33020  0.53240  0.65400  Biso   1.000  H
  C338     1.0000 0.29854  0.40170  0.63697  Biso   1.000  C
  H252     1.0000 0.28850  0.44670  0.60770  Biso   1.000  H
  C339     1.0000 0.38735  0.44960  0.71460  Biso   1.000  C
  C340     1.0000 0.39313  0.38640  0.66710  Biso   1.000  C
  H253     1.0000 0.37850  0.33910  0.64770  Biso   1.000  H
  C341     1.0000 0.42019  0.39100  0.64714  Biso   1.000  C
  H254     1.0000 0.42360  0.34510  0.61500  Biso   1.000  H
  C342     1.0000 0.44241  0.46250  0.67389  Biso   1.000  C
  C343     1.0000 0.43600  0.53030  0.72118  Biso   1.000  C
  H255     1.0000 0.45020  0.58220  0.73910  Biso   1.000  H
  C344     1.0000 0.40873  0.52300  0.74275  Biso   1.000  C
  H256     1.0000 0.40510  0.56680  0.77540  Biso   1.000  H
  C345     1.0000 0.47215  0.46340  0.65191  Biso   1.000  C
  C346     1.0000 0.17751  0.16680  0.67179  Biso   1.000  C
  H257     1.0000 0.17630  0.08080  0.66570  Biso   1.000  H
  C347     1.0000 0.16138  0.21630  0.71267  Biso   1.000  C
  H258     1.0000 0.14950  0.16550  0.73270  Biso   1.000  H
  C348     1.0000 0.16329  0.34410  0.72305  Biso   1.000  C
  C349     1.0000 0.18150  0.41200  0.69142  Biso   1.000  C
  H259     1.0000 0.18340  0.49790  0.69690  Biso   1.000  H
  C350     1.0000 0.19666  0.35360  0.65207  Biso   1.000  C
  H260     1.0000 0.20920  0.40180  0.63230  Biso   1.000  H
  C351     1.0000 0.19328  0.67000  0.98396  Biso   1.000  C
  H261     1.0000 0.21280  0.64650  0.98820  Biso   1.000  H
  C352     1.0000 0.17517  0.60380  0.94475  Biso   1.000  C
  H262     1.0000 0.18220  0.53830  0.92400  Biso   1.000  H
  C353     1.0000 0.14653  0.63820  0.93760  Biso   1.000  C
  C354     1.0000 0.13742  0.73380  0.97008  Biso   1.000  C
  H263     1.0000 0.11810  0.75950  0.96640  Biso   1.000  H
  C355     1.0000 0.15721  0.79040  0.00779  Biso   1.000  C
  H264     1.0000 0.15050  0.85410  0.03000  Biso   1.000  H
  C356     1.0000 0.05023  0.77240  0.67153  Biso   1.000  C
  H265     1.0000 0.05040  0.85890  0.67600  Biso   1.000  H
  C357     1.0000 0.06683  0.70420  0.71100  Biso   1.000  C
  H266     1.0000 0.07810  0.74410  0.74040  Biso   1.000  H
  C358     1.0000 0.06683  0.57810  0.70707  Biso   1.000  C
  C359     1.0000 0.04952  0.52590  0.66191  Biso   1.000  C
  H267     1.0000 0.04830  0.43940  0.65770  Biso   1.000  H
  C360     1.0000 0.03413  0.60360  0.62337  Biso   1.000  C
  H268     1.0000 0.02330  0.56690  0.59260  Biso   1.000  H
  C361     1.0000 0.06451  0.15720  0.01117  Biso   1.000  C
  H269     1.0000 0.07070  0.10800  0.04240  Biso   1.000  H
  C362     1.0000 0.08421  0.18530  0.97370  Biso   1.000  C
  H270     1.0000 0.10340  0.15780  0.97980  Biso   1.000  H
  C363     1.0000 0.07516  0.25480  0.92709  Biso   1.000  C
  C364     1.0000 0.04661  0.29280  0.91849  Biso   1.000  C
  H271     1.0000 0.03970  0.33930  0.88680  Biso   1.000  H
  C365     1.0000 0.02898  0.25830  0.95932  Biso   1.000  C
  H272     1.0000 0.00950  0.28150  0.95370  Biso   1.000  H
  C366     1.0000 0.08675  0.38600  0.85034  Biso   1.000  C
  H273     1.0000 0.07300  0.35020  0.82130  Biso   1.000  H
  H274     1.0000 0.07710  0.45310  0.86890  Biso   1.000  H
  C367     1.0000 0.10101  0.54670  0.78668  Biso   1.000  C
  H275     1.0000 0.11680  0.59140  0.77130  Biso   1.000  H
  H276     1.0000 0.09080  0.60460  0.80940  Biso   1.000  H
  C368     1.0000 0.13629  0.48330  0.86709  Biso   1.000  C
  H277     1.0000 0.15300  0.51090  0.84840  Biso   1.000  H
  H278     1.0000 0.14250  0.41440  0.89220  Biso   1.000  H
  C369     1.0000 0.12692  0.34240  0.78808  Biso   1.000  C
  H279     1.0000 0.11250  0.30410  0.76100  Biso   1.000  H
  H280     1.0000 0.13600  0.27730  0.81230  Biso   1.000  H
  C370     1.0000 0.26162  0.23390  0.62141  Biso   1.000  C
  C371     1.0000 0.11294  0.43810  0.82303  Biso   1.000  C
  N25      1.0000 0.19466  0.23220  0.64023  Biso   1.000  N
  N26      1.0000 0.03389  0.72640  0.62743  Biso   1.000  N
  N27      1.0000 0.18558  0.76250  0.01574  Biso   1.000  N
  N28      1.0000 0.03723  0.19470  0.00616  Biso   1.000  N
  Ni13     1.0000 0.21495  0.15388  0.57397  Biso   1.000  Ni
  Ni14     1.0000 0.99150  0.16869  0.43003  Biso   1.000  Ni
  O85      1.0000 0.19148  0.99510  0.58052  Biso   1.000  O
  O86      1.0000 0.20131  0.88760  0.50568  Biso   1.000  O
  O87      1.0000 0.25277  0.12620  0.63389  Biso   1.000  O
  O88      1.0000 0.24714  0.29650  0.58168  Biso   1.000  O
  O89      1.0000 0.47798  0.36580  0.62478  Biso   1.000  O
  O90      1.0000 0.48837  0.55450  0.66262  Biso   1.000  O
  O91      1.0000 0.02870  0.13500  0.49685  Biso   1.000  O
  O92      1.0000 0.01844  0.31630  0.45622  Biso   1.000  O
  O93      1.0000 0.36198  0.44110  0.74019  Biso   1.000  O
  O94      1.0000 0.12309  0.49930  0.62378  Biso   1.000  O
  O95      1.0000 0.09626  0.29060  0.89164  Biso   1.000  O
  O96      1.0000 0.08155  0.49780  0.74166  Biso   1.000  O
  O97      1.0000 0.12617  0.58460  0.90013  Biso   1.000  O
  O98      1.0000 0.14829  0.40690  0.75915  Biso   1.000  O
  C372     1.0000 0.68885  0.39970  0.54983  Biso   1.000  C
  C373     1.0000 0.67083  0.29690  0.56756  Biso   1.000  C
  C374     1.0000 0.65268  0.31160  0.60967  Biso   1.000  C
  H281     1.0000 0.65180  0.38930  0.62720  Biso   1.000  H
  C375     1.0000 0.63534  0.21330  0.62736  Biso   1.000  C
  H282     1.0000 0.62270  0.22510  0.65540  Biso   1.000  H
  C376     1.0000 0.63783  0.10040  0.60173  Biso   1.000  C
  C377     1.0000 0.65587  0.08380  0.56074  Biso   1.000  C
  H283     1.0000 0.65770  0.00480  0.54490  Biso   1.000  H
  C378     1.0000 0.67157  0.18250  0.54211  Biso   1.000  C
  H284     1.0000 0.68280  0.17120  0.51180  Biso   1.000  H
  C379     1.0000 0.60316  0.93690  0.58621  Biso   1.000  C
  C380     1.0000 0.58891  0.99330  0.54055  Biso   1.000  C
  H285     1.0000 0.59380  0.07450  0.53070  Biso   1.000  H
  C381     1.0000 0.56724  0.92990  0.50904  Biso   1.000  C
  H286     1.0000 0.55720  0.96880  0.47790  Biso   1.000  H
  C382     1.0000 0.56007  0.80950  0.52290  Biso   1.000  C
  C383     1.0000 0.57514  0.75190  0.56745  Biso   1.000  C
  H287     1.0000 0.57090  0.66930  0.57620  Biso   1.000  H
  C384     1.0000 0.59687  0.81620  0.60000  Biso   1.000  C
  H288     1.0000 0.60710  0.77750  0.63100  Biso   1.000  H
  C385     1.0000 0.53459  0.74960  0.49050  Biso   1.000  C
  C386     1.0000 0.78812  0.78690  0.65057  Biso   1.000  C
  C387     1.0000 0.80343  0.72300  0.69379  Biso   1.000  C
  H289     1.0000 0.79710  0.64390  0.70370  Biso   1.000  H
  C388     1.0000 0.82853  0.77370  0.72358  Biso   1.000  C
  H290     1.0000 0.83860  0.72920  0.75300  Biso   1.000  H
  C389     1.0000 0.83811  0.89180  0.70831  Biso   1.000  C
  C390     1.0000 0.82362  0.95470  0.66506  Biso   1.000  C
  H291     1.0000 0.83020  0.03240  0.65400  Biso   1.000  H
  C391     1.0000 0.79854  0.90170  0.63697  Biso   1.000  C
  H292     1.0000 0.78850  0.94670  0.60770  Biso   1.000  H
  C392     1.0000 0.88735  0.94960  0.71460  Biso   1.000  C
  C393     1.0000 0.89313  0.88640  0.66710  Biso   1.000  C
  H293     1.0000 0.87850  0.83910  0.64770  Biso   1.000  H
  C394     1.0000 0.92019  0.89100  0.64714  Biso   1.000  C
  H294     1.0000 0.92360  0.84510  0.61500  Biso   1.000  H
  C395     1.0000 0.94241  0.96250  0.67389  Biso   1.000  C
  C396     1.0000 0.93600  0.03030  0.72118  Biso   1.000  C
  H295     1.0000 0.95020  0.08220  0.73910  Biso   1.000  H
  C397     1.0000 0.90873  0.02300  0.74275  Biso   1.000  C
  H296     1.0000 0.90510  0.06680  0.77540  Biso   1.000  H
  C398     1.0000 0.97215  0.96340  0.65191  Biso   1.000  C
  C399     1.0000 0.67751  0.66680  0.67179  Biso   1.000  C
  H297     1.0000 0.67630  0.58080  0.66570  Biso   1.000  H
  C400     1.0000 0.66138  0.71630  0.71267  Biso   1.000  C
  H298     1.0000 0.64950  0.66550  0.73270  Biso   1.000  H
  C401     1.0000 0.66329  0.84410  0.72305  Biso   1.000  C
  C402     1.0000 0.68150  0.91200  0.69142  Biso   1.000  C
  H299     1.0000 0.68340  0.99790  0.69690  Biso   1.000  H
  C403     1.0000 0.69666  0.85360  0.65207  Biso   1.000  C
  H300     1.0000 0.70920  0.90180  0.63230  Biso   1.000  H
  C404     1.0000 0.69328  0.17000  0.98396  Biso   1.000  C
  H301     1.0000 0.71280  0.14650  0.98820  Biso   1.000  H
  C405     1.0000 0.67517  0.10380  0.94475  Biso   1.000  C
  H302     1.0000 0.68220  0.03830  0.92400  Biso   1.000  H
  C406     1.0000 0.64653  0.13820  0.93760  Biso   1.000  C
  C407     1.0000 0.63742  0.23380  0.97008  Biso   1.000  C
  H303     1.0000 0.61810  0.25950  0.96640  Biso   1.000  H
  C408     1.0000 0.65721  0.29040  0.00779  Biso   1.000  C
  H304     1.0000 0.65050  0.35410  0.03000  Biso   1.000  H
  C409     1.0000 0.55023  0.27240  0.67153  Biso   1.000  C
  H305     1.0000 0.55040  0.35890  0.67600  Biso   1.000  H
  C410     1.0000 0.56683  0.20420  0.71100  Biso   1.000  C
  H306     1.0000 0.57810  0.24410  0.74040  Biso   1.000  H
  C411     1.0000 0.56683  0.07810  0.70707  Biso   1.000  C
  C412     1.0000 0.54952  0.02590  0.66191  Biso   1.000  C
  H307     1.0000 0.54830  0.93940  0.65770  Biso   1.000  H
  C413     1.0000 0.53413  0.10360  0.62337  Biso   1.000  C
  H308     1.0000 0.52330  0.06690  0.59260  Biso   1.000  H
  C414     1.0000 0.56451  0.65720  0.01117  Biso   1.000  C
  H309     1.0000 0.57070  0.60800  0.04240  Biso   1.000  H
  C415     1.0000 0.58421  0.68530  0.97370  Biso   1.000  C
  H310     1.0000 0.60340  0.65780  0.97980  Biso   1.000  H
  C416     1.0000 0.57516  0.75480  0.92709  Biso   1.000  C
  C417     1.0000 0.54661  0.79280  0.91849  Biso   1.000  C
  H311     1.0000 0.53970  0.83930  0.88680  Biso   1.000  H
  C418     1.0000 0.52898  0.75830  0.95932  Biso   1.000  C
  H312     1.0000 0.50950  0.78150  0.95370  Biso   1.000  H
  C419     1.0000 0.58675  0.88600  0.85034  Biso   1.000  C
  H313     1.0000 0.57300  0.85020  0.82130  Biso   1.000  H
  H314     1.0000 0.57710  0.95310  0.86890  Biso   1.000  H
  C420     1.0000 0.60101  0.04670  0.78668  Biso   1.000  C
  H315     1.0000 0.61680  0.09140  0.77130  Biso   1.000  H
  H316     1.0000 0.59080  0.10460  0.80940  Biso   1.000  H
  C421     1.0000 0.63629  0.98330  0.86709  Biso   1.000  C
  H317     1.0000 0.65300  0.01090  0.84840  Biso   1.000  H
  H318     1.0000 0.64250  0.91440  0.89220  Biso   1.000  H
  C422     1.0000 0.62692  0.84240  0.78808  Biso   1.000  C
  H319     1.0000 0.61250  0.80410  0.76100  Biso   1.000  H
  H320     1.0000 0.63600  0.77730  0.81230  Biso   1.000  H
  C423     1.0000 0.76162  0.73390  0.62141  Biso   1.000  C
  C424     1.0000 0.61294  0.93810  0.82303  Biso   1.000  C
  N29      1.0000 0.69466  0.73220  0.64023  Biso   1.000  N
  N30      1.0000 0.53389  0.22640  0.62743  Biso   1.000  N
  N31      1.0000 0.68558  0.26250  0.01574  Biso   1.000  N
  N32      1.0000 0.53723  0.69470  0.00616  Biso   1.000  N
  Ni15     1.0000 0.71495  0.65388  0.57397  Biso   1.000  Ni
  Ni16     1.0000 0.49150  0.66869  0.43003  Biso   1.000  Ni
  O99      1.0000 0.69148  0.49510  0.58052  Biso   1.000  O
  O100     1.0000 0.70131  0.38760  0.50568  Biso   1.000  O
  O101     1.0000 0.75277  0.62620  0.63389  Biso   1.000  O
  O102     1.0000 0.74714  0.79650  0.58168  Biso   1.000  O
  O103     1.0000 0.97798  0.86580  0.62478  Biso   1.000  O
  O104     1.0000 0.98837  0.05450  0.66262  Biso   1.000  O
  O105     1.0000 0.52870  0.63500  0.49685  Biso   1.000  O
  O106     1.0000 0.51844  0.81630  0.45622  Biso   1.000  O
  O107     1.0000 0.86198  0.94110  0.74019  Biso   1.000  O
  O108     1.0000 0.62309  0.99930  0.62378  Biso   1.000  O
  O109     1.0000 0.59626  0.79060  0.89164  Biso   1.000  O
  O110     1.0000 0.58155  0.99780  0.74166  Biso   1.000  O
  O111     1.0000 0.62617  0.08460  0.90013  Biso   1.000  O
  O112     1.0000 0.64829  0.90690  0.75915  Biso   1.000  O
