data_image0
_cell_length_a       29.325
_cell_length_b       13.413
_cell_length_c       36.016
_cell_angle_alpha    90
_cell_angle_beta     90
_cell_angle_gamma    90

_symmetry_space_group_name_H-M    "P 1"
_symmetry_int_tables_number       1

loop_
  _symmetry_equiv_pos_as_xyz
  'x, y, z'

loop_
  _atom_site_label
  _atom_site_occupancy
  _atom_site_fract_x
  _atom_site_fract_y
  _atom_site_fract_z
  _atom_site_thermal_displace_type
  _atom_site_B_iso_or_equiv
  _atom_site_type_symbol
  W1       1.0000 0.54314  0.67341  0.35050  Biso   1.000  W
  W2       1.0000 0.46942  0.70293  0.42397  Biso   1.000  W
  W3       1.0000 0.42176  0.45086  0.41028  Biso   1.000  W
  W4       1.0000 0.49412  0.25233  0.40879  Biso   1.000  W
  W5       1.0000 0.61918  0.45187  0.34814  Biso   1.000  W
  W6       1.0000 0.66096  0.52040  0.43505  Biso   1.000  W
  W7       1.0000 0.58437  0.73592  0.43735  Biso   1.000  W
  W8       1.0000 0.61776  0.28777  0.42360  Biso   1.000  W
  W9       1.0000 0.49456  0.42202  0.33584  Biso   1.000  W
  Co1      1.0000 0.58652  0.42410  0.50472  Biso   1.000  Co
  Co2      1.0000 0.52105  0.61394  0.50706  Biso   1.000  Co
  P1       1.0000 0.54103  0.49170  0.42648  Biso   1.000  P
  O1       1.0000 0.50540  0.43080  0.40530  Biso   1.000  O
  O2       1.0000 0.58900  0.45480  0.41480  Biso   1.000  O
  O3       1.0000 0.53390  0.48010  0.46860  Biso   1.000  O
  O4       1.0000 0.53660  0.60210  0.41440  Biso   1.000  O
  O5       1.0000 0.49450  0.27110  0.45830  Biso   1.000  O
  O6       1.0000 0.43280  0.31420  0.40850  Biso   1.000  O
  O7       1.0000 0.49300  0.29200  0.35590  Biso   1.000  O
  O8       1.0000 0.55940  0.24660  0.40590  Biso   1.000  O
  O9       1.0000 0.43820  0.59090  0.40570  Biso   1.000  O
  O10      1.0000 0.59810  0.30610  0.46980  Biso   1.000  O
  O11      1.0000 0.64880  0.17610  0.42550  Biso   1.000  O
  O12      1.0000 0.62870  0.32640  0.36980  Biso   1.000  O
  O13      1.0000 0.56600  0.53960  0.53990  Biso   1.000  O
  O14      1.0000 0.57190  0.68560  0.48140  Biso   1.000  O
  O15      1.0000 0.63680  0.50670  0.47950  Biso   1.000  O
  O16      1.0000 0.52120  0.78400  0.43560  Biso   1.000  O
  O17      1.0000 0.57930  0.75020  0.38190  Biso   1.000  O
  O18      1.0000 0.63280  0.64770  0.42650  Biso   1.000  O
  O19      1.0000 0.46990  0.65010  0.47080  Biso   1.000  O
  O20      1.0000 0.49030  0.72440  0.37300  Biso   1.000  O
  O21      1.0000 0.59290  0.58370  0.34500  Biso   1.000  O
  O22      1.0000 0.55950  0.40760  0.33510  Biso   1.000  O
  O23      1.0000 0.66360  0.50850  0.37920  Biso   1.000  O
  O24      1.0000 0.54420  0.74500  0.31050  Biso   1.000  O
  O25      1.0000 0.48070  0.39890  0.28980  Biso   1.000  O
  O26      1.0000 0.43720  0.44820  0.35750  Biso   1.000  O
  O27      1.0000 0.66830  0.37610  0.43130  Biso   1.000  O
  O28      1.0000 0.50410  0.55900  0.33710  Biso   1.000  O
  O29      1.0000 0.71770  0.55490  0.44210  Biso   1.000  O
  Co3      1.0000 0.53013  0.82339  0.26149  Biso   1.000  Co
  C1       1.0000 0.70070  0.68910  0.17110  Biso   1.000  C
  C2       1.0000 0.72980  0.67990  0.11390  Biso   1.000  C
  C3       1.0000 0.77580  0.68880  0.16310  Biso   1.000  C
  C4       1.0000 0.72250  0.67530  0.07280  Biso   1.000  C
  C5       1.0000 0.82250  0.69390  0.18110  Biso   1.000  C
  C6       1.0000 0.82650  0.71030  0.21850  Biso   1.000  C
  H1       1.0000 0.80100  0.72220  0.23320  Biso   1.000  H
  C7       1.0000 0.86070  0.67710  0.15950  Biso   1.000  C
  H2       1.0000 0.85860  0.67000  0.13390  Biso   1.000  H
  C8       1.0000 0.90200  0.67120  0.17780  Biso   1.000  C
  H3       1.0000 0.92750  0.65360  0.16390  Biso   1.000  H
  C9       1.0000 0.30260  0.92740  0.38840  Biso   1.000  C
  C10      1.0000 0.27040  0.94490  0.33250  Biso   1.000  C
  C11      1.0000 0.34580  0.94200  0.33850  Biso   1.000  C
  C12      1.0000 0.39250  0.94090  0.32030  Biso   1.000  C
  C13      1.0000 0.42990  0.92760  0.34200  Biso   1.000  C
  H4       1.0000 0.42840  0.93210  0.36770  Biso   1.000  H
  C14      1.0000 0.47110  0.90630  0.32320  Biso   1.000  C
  H5       1.0000 0.49700  0.89430  0.33740  Biso   1.000  H
  C15      1.0000 0.29770  0.91330  0.42930  Biso   1.000  C
  C16      1.0000 0.25580  0.90660  0.44620  Biso   1.000  C
  H6       1.0000 0.22920  0.91150  0.43230  Biso   1.000  H
  C17      1.0000 0.22870  0.95120  0.30820  Biso   1.000  C
  C18      1.0000 0.18510  0.94430  0.32350  Biso   1.000  C
  H7       1.0000 0.18160  0.93700  0.34900  Biso   1.000  H
  C19      1.0000 0.14760  0.94810  0.30130  Biso   1.000  C
  H8       1.0000 0.11880  0.94460  0.31200  Biso   1.000  H
  C20      1.0000 0.43820  0.92470  0.26640  Biso   1.000  C
  H9       1.0000 0.44050  0.92640  0.24070  Biso   1.000  H
  C21      1.0000 0.86930  0.70850  0.23340  Biso   1.000  C
  H10      1.0000 0.87240  0.72130  0.25870  Biso   1.000  H
  C22      1.0000 0.65930  0.69650  0.19450  Biso   1.000  C
  C23      1.0000 0.61580  0.69620  0.17840  Biso   1.000  C
  H11      1.0000 0.61200  0.68140  0.15330  Biso   1.000  H
  C24      1.0000 0.39510  0.94590  0.28280  Biso   1.000  C
  H12      1.0000 0.36980  0.96240  0.26840  Biso   1.000  H
  C25      1.0000 0.57960  0.71780  0.20010  Biso   1.000  C
  H13      1.0000 0.55080  0.71780  0.18940  Biso   1.000  H
  C26      1.0000 0.23280  0.96190  0.27040  Biso   1.000  C
  H14      1.0000 0.26130  0.96690  0.25930  Biso   1.000  H
  C27      1.0000 0.25400  0.89240  0.48370  Biso   1.000  C
  H15      1.0000 0.22540  0.88420  0.49440  Biso   1.000  H
  C28      1.0000 0.66320  0.70890  0.23200  Biso   1.000  C
  H16      1.0000 0.69140  0.70250  0.24360  Biso   1.000  H
  C29      1.0000 0.62480  0.73090  0.25230  Biso   1.000  C
  H17      1.0000 0.62760  0.74030  0.27780  Biso   1.000  H
  C30      1.0000 0.75700  0.64640  0.04980  Biso   1.000  C
  H18      1.0000 0.78530  0.62930  0.05950  Biso   1.000  H
  C31      1.0000 0.74960  0.64300  0.01280  Biso   1.000  C
  H19      1.0000 0.77360  0.62350  0.99760  Biso   1.000  H
  C32      1.0000 0.68090  0.69670  0.05720  Biso   1.000  C
  H20      1.0000 0.65600  0.71370  0.07180  Biso   1.000  H
  C33      1.0000 0.67750  0.69230  0.01990  Biso   1.000  C
  H21      1.0000 0.64960  0.70950  0.00940  Biso   1.000  H
  C34      1.0000 0.33580  0.90790  0.45110  Biso   1.000  C
  H22      1.0000 0.36470  0.91370  0.44070  Biso   1.000  H
  C35      1.0000 0.33020  0.89340  0.48930  Biso   1.000  C
  H23      1.0000 0.35630  0.88590  0.50370  Biso   1.000  H
  C36      1.0000 0.19440  0.96500  0.24960  Biso   1.000  C
  H24      1.0000 0.19760  0.97310  0.22410  Biso   1.000  H
  N1       1.0000 0.47520  0.90260  0.28600  Biso   1.000  N
  N2       1.0000 0.29060  0.88960  0.50610  Biso   1.000  N
  N3       1.0000 0.26400  0.93340  0.36850  Biso   1.000  N
  N4       1.0000 0.34410  0.93350  0.37510  Biso   1.000  N
  N5       1.0000 0.31000  0.95170  0.31580  Biso   1.000  N
  N6       1.0000 0.69330  0.68150  0.13470  Biso   1.000  N
  N7       1.0000 0.74110  0.69410  0.18650  Biso   1.000  N
  N8       1.0000 0.77260  0.68500  0.12650  Biso   1.000  N
  N9       1.0000 0.90780  0.68910  0.21350  Biso   1.000  N
  N10      1.0000 0.15150  0.95710  0.26350  Biso   1.000  N
  N11      1.0000 0.58290  0.73930  0.23630  Biso   1.000  N
  N12      1.0000 0.71070  0.66540  0.99700  Biso   1.000  N
  Co4      1.0000 0.28432  0.89035  0.56523  Biso   1.000  Co
  W10      1.0000 0.95686  0.32659  0.85050  Biso   1.000  W
  W11      1.0000 0.03058  0.29707  0.92397  Biso   1.000  W
  W12      1.0000 0.07824  0.54914  0.91028  Biso   1.000  W
  W13      1.0000 0.00588  0.74767  0.90879  Biso   1.000  W
  W14      1.0000 0.88082  0.54813  0.84814  Biso   1.000  W
  W15      1.0000 0.83904  0.47960  0.93505  Biso   1.000  W
  W16      1.0000 0.91563  0.26408  0.93735  Biso   1.000  W
  W17      1.0000 0.88224  0.71223  0.92360  Biso   1.000  W
  W18      1.0000 0.00544  0.57798  0.83584  Biso   1.000  W
  Co5      1.0000 0.91348  0.57590  0.00472  Biso   1.000  Co
  Co6      1.0000 0.97895  0.38606  0.00706  Biso   1.000  Co
  P2       1.0000 0.95897  0.50830  0.92648  Biso   1.000  P
  O30      1.0000 0.99460  0.56920  0.90530  Biso   1.000  O
  O31      1.0000 0.91100  0.54520  0.91480  Biso   1.000  O
  O32      1.0000 0.96610  0.51990  0.96860  Biso   1.000  O
  O33      1.0000 0.96340  0.39790  0.91440  Biso   1.000  O
  O34      1.0000 0.00550  0.72890  0.95830  Biso   1.000  O
  O35      1.0000 0.06720  0.68580  0.90850  Biso   1.000  O
  O36      1.0000 0.00700  0.70800  0.85590  Biso   1.000  O
  O37      1.0000 0.94060  0.75340  0.90590  Biso   1.000  O
  O38      1.0000 0.06180  0.40910  0.90570  Biso   1.000  O
  O39      1.0000 0.90190  0.69390  0.96980  Biso   1.000  O
  O40      1.0000 0.85120  0.82390  0.92550  Biso   1.000  O
  O41      1.0000 0.87130  0.67360  0.86980  Biso   1.000  O
  O42      1.0000 0.93400  0.46040  0.03990  Biso   1.000  O
  O43      1.0000 0.92810  0.31440  0.98140  Biso   1.000  O
  O44      1.0000 0.86320  0.49330  0.97950  Biso   1.000  O
  O45      1.0000 0.97880  0.21600  0.93560  Biso   1.000  O
  O46      1.0000 0.92070  0.24980  0.88190  Biso   1.000  O
  O47      1.0000 0.86720  0.35230  0.92650  Biso   1.000  O
  O48      1.0000 0.03010  0.34990  0.97080  Biso   1.000  O
  O49      1.0000 0.00970  0.27560  0.87300  Biso   1.000  O
  O50      1.0000 0.90710  0.41630  0.84500  Biso   1.000  O
  O51      1.0000 0.94050  0.59240  0.83510  Biso   1.000  O
  O52      1.0000 0.83640  0.49150  0.87920  Biso   1.000  O
  O53      1.0000 0.95580  0.25500  0.81050  Biso   1.000  O
  O54      1.0000 0.01930  0.60110  0.78980  Biso   1.000  O
  O55      1.0000 0.06280  0.55180  0.85750  Biso   1.000  O
  O56      1.0000 0.83170  0.62390  0.93130  Biso   1.000  O
  O57      1.0000 0.99590  0.44100  0.83710  Biso   1.000  O
  O58      1.0000 0.78230  0.44510  0.94210  Biso   1.000  O
  Co7      1.0000 0.96987  0.17661  0.76149  Biso   1.000  Co
  C37      1.0000 0.79930  0.31090  0.67110  Biso   1.000  C
  C38      1.0000 0.77020  0.32010  0.61390  Biso   1.000  C
  C39      1.0000 0.72420  0.31120  0.66310  Biso   1.000  C
  C40      1.0000 0.77750  0.32470  0.57280  Biso   1.000  C
  C41      1.0000 0.67750  0.30610  0.68110  Biso   1.000  C
  C42      1.0000 0.67350  0.28970  0.71850  Biso   1.000  C
  H25      1.0000 0.69900  0.27780  0.73320  Biso   1.000  H
  C43      1.0000 0.63930  0.32290  0.65950  Biso   1.000  C
  H26      1.0000 0.64140  0.33000  0.63390  Biso   1.000  H
  C44      1.0000 0.59800  0.32880  0.67780  Biso   1.000  C
  H27      1.0000 0.57250  0.34640  0.66390  Biso   1.000  H
  C45      1.0000 0.19740  0.07260  0.88840  Biso   1.000  C
  C46      1.0000 0.22960  0.05510  0.83250  Biso   1.000  C
  C47      1.0000 0.15420  0.05800  0.83850  Biso   1.000  C
  C48      1.0000 0.10750  0.05910  0.82030  Biso   1.000  C
  C49      1.0000 0.07010  0.07240  0.84200  Biso   1.000  C
  H28      1.0000 0.07160  0.06790  0.86770  Biso   1.000  H
  C50      1.0000 0.02890  0.09370  0.82320  Biso   1.000  C
  H29      1.0000 0.00300  0.10570  0.83740  Biso   1.000  H
  C51      1.0000 0.20230  0.08670  0.92930  Biso   1.000  C
  C52      1.0000 0.24420  0.09340  0.94620  Biso   1.000  C
  H30      1.0000 0.27080  0.08850  0.93230  Biso   1.000  H
  C53      1.0000 0.27130  0.04880  0.80820  Biso   1.000  C
  C54      1.0000 0.31490  0.05570  0.82350  Biso   1.000  C
  H31      1.0000 0.31840  0.06300  0.84900  Biso   1.000  H
  C55      1.0000 0.35240  0.05190  0.80130  Biso   1.000  C
  H32      1.0000 0.38120  0.05540  0.81200  Biso   1.000  H
  C56      1.0000 0.06180  0.07530  0.76640  Biso   1.000  C
  H33      1.0000 0.05950  0.07360  0.74070  Biso   1.000  H
  C57      1.0000 0.63070  0.29150  0.73340  Biso   1.000  C
  H34      1.0000 0.62760  0.27870  0.75870  Biso   1.000  H
  C58      1.0000 0.84070  0.30350  0.69450  Biso   1.000  C
  C59      1.0000 0.88420  0.30380  0.67840  Biso   1.000  C
  H35      1.0000 0.88800  0.31860  0.65330  Biso   1.000  H
  C60      1.0000 0.10490  0.05410  0.78280  Biso   1.000  C
  H36      1.0000 0.13020  0.03760  0.76840  Biso   1.000  H
  C61      1.0000 0.92040  0.28220  0.70010  Biso   1.000  C
  H37      1.0000 0.94920  0.28220  0.68940  Biso   1.000  H
  C62      1.0000 0.26720  0.03810  0.77040  Biso   1.000  C
  H38      1.0000 0.23870  0.03310  0.75930  Biso   1.000  H
  C63      1.0000 0.24600  0.10760  0.98370  Biso   1.000  C
  H39      1.0000 0.27460  0.11580  0.99440  Biso   1.000  H
  C64      1.0000 0.83680  0.29110  0.73200  Biso   1.000  C
  H40      1.0000 0.80860  0.29750  0.74360  Biso   1.000  H
  C65      1.0000 0.87520  0.26910  0.75230  Biso   1.000  C
  H41      1.0000 0.87240  0.25970  0.77780  Biso   1.000  H
  C66      1.0000 0.74300  0.35360  0.54980  Biso   1.000  C
  H42      1.0000 0.71470  0.37070  0.55950  Biso   1.000  H
  C67      1.0000 0.75040  0.35700  0.51280  Biso   1.000  C
  H43      1.0000 0.72640  0.37650  0.49760  Biso   1.000  H
  C68      1.0000 0.81910  0.30330  0.55720  Biso   1.000  C
  H44      1.0000 0.84400  0.28630  0.57180  Biso   1.000  H
  C69      1.0000 0.82250  0.30770  0.51990  Biso   1.000  C
  H45      1.0000 0.85040  0.29050  0.50940  Biso   1.000  H
  C70      1.0000 0.16420  0.09210  0.95110  Biso   1.000  C
  H46      1.0000 0.13530  0.08630  0.94070  Biso   1.000  H
  C71      1.0000 0.16980  0.10660  0.98930  Biso   1.000  C
  H47      1.0000 0.14370  0.11410  0.00370  Biso   1.000  H
  C72      1.0000 0.30560  0.03500  0.74960  Biso   1.000  C
  H48      1.0000 0.30240  0.02690  0.72410  Biso   1.000  H
  N13      1.0000 0.02480  0.09740  0.78600  Biso   1.000  N
  N14      1.0000 0.20940  0.11040  0.00610  Biso   1.000  N
  N15      1.0000 0.23600  0.06660  0.86850  Biso   1.000  N
  N16      1.0000 0.15590  0.06650  0.87510  Biso   1.000  N
  N17      1.0000 0.19000  0.04830  0.81580  Biso   1.000  N
  N18      1.0000 0.80670  0.31850  0.63470  Biso   1.000  N
  N19      1.0000 0.75890  0.30590  0.68650  Biso   1.000  N
  N20      1.0000 0.72740  0.31500  0.62650  Biso   1.000  N
  N21      1.0000 0.59220  0.31090  0.71350  Biso   1.000  N
  N22      1.0000 0.34850  0.04290  0.76350  Biso   1.000  N
  N23      1.0000 0.91710  0.26070  0.73630  Biso   1.000  N
  N24      1.0000 0.78930  0.33460  0.49700  Biso   1.000  N
  Co8      1.0000 0.21568  0.10965  0.06523  Biso   1.000  Co
  W19      1.0000 0.45686  0.17341  0.14950  Biso   1.000  W
  W20      1.0000 0.53058  0.20293  0.07603  Biso   1.000  W
  W21      1.0000 0.57824  0.95086  0.08972  Biso   1.000  W
  W22      1.0000 0.50588  0.75233  0.09121  Biso   1.000  W
  W23      1.0000 0.38082  0.95187  0.15186  Biso   1.000  W
  W24      1.0000 0.33904  0.02040  0.06495  Biso   1.000  W
  W25      1.0000 0.41563  0.23592  0.06265  Biso   1.000  W
  W26      1.0000 0.38224  0.78777  0.07640  Biso   1.000  W
  W27      1.0000 0.50544  0.92202  0.16416  Biso   1.000  W
  Co9      1.0000 0.41348  0.92410  0.99528  Biso   1.000  Co
  Co10     1.0000 0.47895  0.11394  0.99294  Biso   1.000  Co
  P3       1.0000 0.45897  0.99170  0.07352  Biso   1.000  P
  O59      1.0000 0.49460  0.93080  0.09470  Biso   1.000  O
  O60      1.0000 0.41100  0.95480  0.08520  Biso   1.000  O
  O61      1.0000 0.46610  0.98010  0.03140  Biso   1.000  O
  O62      1.0000 0.46340  0.10210  0.08560  Biso   1.000  O
  O63      1.0000 0.50550  0.77110  0.04170  Biso   1.000  O
  O64      1.0000 0.56720  0.81420  0.09150  Biso   1.000  O
  O65      1.0000 0.50700  0.79200  0.14410  Biso   1.000  O
  O66      1.0000 0.44060  0.74660  0.09410  Biso   1.000  O
  O67      1.0000 0.56180  0.09090  0.09430  Biso   1.000  O
  O68      1.0000 0.40190  0.80610  0.03020  Biso   1.000  O
  O69      1.0000 0.35120  0.67610  0.07450  Biso   1.000  O
  O70      1.0000 0.37130  0.82640  0.13020  Biso   1.000  O
  O71      1.0000 0.43400  0.03960  0.96010  Biso   1.000  O
  O72      1.0000 0.42810  0.18560  0.01860  Biso   1.000  O
  O73      1.0000 0.36320  0.00670  0.02050  Biso   1.000  O
  O74      1.0000 0.47880  0.28400  0.06440  Biso   1.000  O
  O75      1.0000 0.42070  0.25020  0.11810  Biso   1.000  O
  O76      1.0000 0.36720  0.14770  0.07350  Biso   1.000  O
  O77      1.0000 0.53010  0.15010  0.02920  Biso   1.000  O
  O78      1.0000 0.50970  0.22440  0.12700  Biso   1.000  O
  O79      1.0000 0.40710  0.08370  0.15500  Biso   1.000  O
  O80      1.0000 0.44050  0.90760  0.16490  Biso   1.000  O
  O81      1.0000 0.33640  0.00850  0.12080  Biso   1.000  O
  O82      1.0000 0.45580  0.24500  0.18950  Biso   1.000  O
  O83      1.0000 0.51930  0.89890  0.21020  Biso   1.000  O
  O84      1.0000 0.56280  0.94820  0.14250  Biso   1.000  O
  O85      1.0000 0.33170  0.87610  0.06870  Biso   1.000  O
  O86      1.0000 0.49590  0.05900  0.16290  Biso   1.000  O
  O87      1.0000 0.28230  0.05490  0.05790  Biso   1.000  O
  Co11     1.0000 0.46987  0.32339  0.23851  Biso   1.000  Co
  C73      1.0000 0.29930  0.18910  0.32890  Biso   1.000  C
  C74      1.0000 0.27020  0.17990  0.38610  Biso   1.000  C
  C75      1.0000 0.22420  0.18880  0.33690  Biso   1.000  C
  C76      1.0000 0.27750  0.17530  0.42720  Biso   1.000  C
  C77      1.0000 0.17750  0.19390  0.31890  Biso   1.000  C
  C78      1.0000 0.17350  0.21030  0.28150  Biso   1.000  C
  H49      1.0000 0.19900  0.22220  0.26680  Biso   1.000  H
  C79      1.0000 0.13930  0.17710  0.34050  Biso   1.000  C
  H50      1.0000 0.14140  0.17000  0.36610  Biso   1.000  H
  C80      1.0000 0.09800  0.17120  0.32220  Biso   1.000  C
  H51      1.0000 0.07250  0.15360  0.33610  Biso   1.000  H
  C81      1.0000 0.69740  0.42740  0.11160  Biso   1.000  C
  C82      1.0000 0.72960  0.44490  0.16750  Biso   1.000  C
  C83      1.0000 0.65420  0.44200  0.16150  Biso   1.000  C
  C84      1.0000 0.60750  0.44090  0.17970  Biso   1.000  C
  C85      1.0000 0.57010  0.42760  0.15800  Biso   1.000  C
  H52      1.0000 0.57160  0.43210  0.13230  Biso   1.000  H
  C86      1.0000 0.52890  0.40630  0.17680  Biso   1.000  C
  H53      1.0000 0.50300  0.39430  0.16260  Biso   1.000  H
  C87      1.0000 0.70230  0.41330  0.07070  Biso   1.000  C
  C88      1.0000 0.74420  0.40660  0.05380  Biso   1.000  C
  H54      1.0000 0.77080  0.41150  0.06770  Biso   1.000  H
  C89      1.0000 0.77130  0.45120  0.19180  Biso   1.000  C
  C90      1.0000 0.81490  0.44430  0.17650  Biso   1.000  C
  H55      1.0000 0.81840  0.43700  0.15100  Biso   1.000  H
  C91      1.0000 0.85240  0.44810  0.19870  Biso   1.000  C
  H56      1.0000 0.88120  0.44460  0.18800  Biso   1.000  H
  C92      1.0000 0.56180  0.42470  0.23360  Biso   1.000  C
  H57      1.0000 0.55950  0.42640  0.25930  Biso   1.000  H
  C93      1.0000 0.13070  0.20850  0.26660  Biso   1.000  C
  H58      1.0000 0.12760  0.22130  0.24130  Biso   1.000  H
  C94      1.0000 0.34070  0.19650  0.30550  Biso   1.000  C
  C95      1.0000 0.38420  0.19620  0.32160  Biso   1.000  C
  H59      1.0000 0.38800  0.18140  0.34670  Biso   1.000  H
  C96      1.0000 0.60490  0.44590  0.21720  Biso   1.000  C
  H60      1.0000 0.63020  0.46240  0.23160  Biso   1.000  H
  C97      1.0000 0.42040  0.21780  0.29990  Biso   1.000  C
  H61      1.0000 0.44920  0.21780  0.31060  Biso   1.000  H
  C98      1.0000 0.76720  0.46190  0.22960  Biso   1.000  C
  H62      1.0000 0.73870  0.46690  0.24070  Biso   1.000  H
  C99      1.0000 0.74600  0.39240  0.01630  Biso   1.000  C
  H63      1.0000 0.77460  0.38420  0.00560  Biso   1.000  H
  C100     1.0000 0.33680  0.20890  0.26800  Biso   1.000  C
  H64      1.0000 0.30860  0.20250  0.25640  Biso   1.000  H
  C101     1.0000 0.37520  0.23090  0.24770  Biso   1.000  C
  H65      1.0000 0.37240  0.24030  0.22220  Biso   1.000  H
  C102     1.0000 0.24300  0.14640  0.45020  Biso   1.000  C
  H66      1.0000 0.21470  0.12930  0.44050  Biso   1.000  H
  C103     1.0000 0.25040  0.14300  0.48720  Biso   1.000  C
  H67      1.0000 0.22640  0.12350  0.50240  Biso   1.000  H
  C104     1.0000 0.31910  0.19670  0.44280  Biso   1.000  C
  H68      1.0000 0.34400  0.21370  0.42820  Biso   1.000  H
  C105     1.0000 0.32250  0.19230  0.48010  Biso   1.000  C
  H69      1.0000 0.35040  0.20950  0.49060  Biso   1.000  H
  C106     1.0000 0.66420  0.40790  0.04890  Biso   1.000  C
  H70      1.0000 0.63530  0.41370  0.05930  Biso   1.000  H
  C107     1.0000 0.66980  0.39340  0.01070  Biso   1.000  C
  H71      1.0000 0.64370  0.38590  0.99630  Biso   1.000  H
  C108     1.0000 0.80560  0.46500  0.25040  Biso   1.000  C
  H72      1.0000 0.80240  0.47310  0.27590  Biso   1.000  H
  N25      1.0000 0.52480  0.40260  0.21400  Biso   1.000  N
  N26      1.0000 0.70940  0.38960  0.99390  Biso   1.000  N
  N27      1.0000 0.73600  0.43340  0.13150  Biso   1.000  N
  N28      1.0000 0.65590  0.43350  0.12490  Biso   1.000  N
  N29      1.0000 0.69000  0.45170  0.18420  Biso   1.000  N
  N30      1.0000 0.30670  0.18150  0.36530  Biso   1.000  N
  N31      1.0000 0.25890  0.19410  0.31350  Biso   1.000  N
  N32      1.0000 0.22740  0.18500  0.37350  Biso   1.000  N
  N33      1.0000 0.09220  0.18910  0.28650  Biso   1.000  N
  N34      1.0000 0.84850  0.45710  0.23650  Biso   1.000  N
  N35      1.0000 0.41710  0.23930  0.26370  Biso   1.000  N
  N36      1.0000 0.28930  0.16540  0.50300  Biso   1.000  N
  Co12     1.0000 0.71568  0.39035  0.93477  Biso   1.000  Co
  W28      1.0000 0.04314  0.82659  0.64950  Biso   1.000  W
  W29      1.0000 0.96942  0.79707  0.57603  Biso   1.000  W
  W30      1.0000 0.92176  0.04914  0.58972  Biso   1.000  W
  W31      1.0000 0.99412  0.24767  0.59121  Biso   1.000  W
  W32      1.0000 0.11918  0.04813  0.65186  Biso   1.000  W
  W33      1.0000 0.16096  0.97960  0.56495  Biso   1.000  W
  W34      1.0000 0.08437  0.76408  0.56265  Biso   1.000  W
  W35      1.0000 0.11776  0.21223  0.57640  Biso   1.000  W
  W36      1.0000 0.99456  0.07798  0.66416  Biso   1.000  W
  Co13     1.0000 0.08652  0.07590  0.49528  Biso   1.000  Co
  Co14     1.0000 0.02105  0.88606  0.49294  Biso   1.000  Co
  P4       1.0000 0.04103  0.00830  0.57352  Biso   1.000  P
  O88      1.0000 0.00540  0.06920  0.59470  Biso   1.000  O
  O89      1.0000 0.08900  0.04520  0.58520  Biso   1.000  O
  O90      1.0000 0.03390  0.01990  0.53140  Biso   1.000  O
  O91      1.0000 0.03660  0.89790  0.58560  Biso   1.000  O
  O92      1.0000 0.99450  0.22890  0.54170  Biso   1.000  O
  O93      1.0000 0.93280  0.18580  0.59150  Biso   1.000  O
  O94      1.0000 0.99300  0.20800  0.64410  Biso   1.000  O
  O95      1.0000 0.05940  0.25340  0.59410  Biso   1.000  O
  O96      1.0000 0.93820  0.90910  0.59430  Biso   1.000  O
  O97      1.0000 0.09810  0.19390  0.53020  Biso   1.000  O
  O98      1.0000 0.14880  0.32390  0.57450  Biso   1.000  O
  O99      1.0000 0.12870  0.17360  0.63020  Biso   1.000  O
  O100     1.0000 0.06600  0.96040  0.46010  Biso   1.000  O
  O101     1.0000 0.07190  0.81440  0.51860  Biso   1.000  O
  O102     1.0000 0.13680  0.99330  0.52050  Biso   1.000  O
  O103     1.0000 0.02120  0.71600  0.56440  Biso   1.000  O
  O104     1.0000 0.07930  0.74980  0.61810  Biso   1.000  O
  O105     1.0000 0.13280  0.85230  0.57350  Biso   1.000  O
  O106     1.0000 0.96990  0.84990  0.52920  Biso   1.000  O
  O107     1.0000 0.99030  0.77560  0.62700  Biso   1.000  O
  O108     1.0000 0.09290  0.91630  0.65500  Biso   1.000  O
  O109     1.0000 0.05950  0.09240  0.66490  Biso   1.000  O
  O110     1.0000 0.16360  0.99150  0.62080  Biso   1.000  O
  O111     1.0000 0.04420  0.75500  0.68950  Biso   1.000  O
  O112     1.0000 0.98070  0.10110  0.71020  Biso   1.000  O
  O113     1.0000 0.93720  0.05180  0.64250  Biso   1.000  O
  O114     1.0000 0.16830  0.12390  0.56870  Biso   1.000  O
  O115     1.0000 0.00410  0.94100  0.66290  Biso   1.000  O
  O116     1.0000 0.21770  0.94510  0.55790  Biso   1.000  O
  Co15     1.0000 0.03013  0.67661  0.73851  Biso   1.000  Co
  C109     1.0000 0.20070  0.81090  0.82890  Biso   1.000  C
  C110     1.0000 0.22980  0.82010  0.88610  Biso   1.000  C
  C111     1.0000 0.27580  0.81120  0.83690  Biso   1.000  C
  C112     1.0000 0.22250  0.82470  0.92720  Biso   1.000  C
  C113     1.0000 0.32250  0.80610  0.81890  Biso   1.000  C
  C114     1.0000 0.32650  0.78970  0.78150  Biso   1.000  C
  H73      1.0000 0.30100  0.77780  0.76680  Biso   1.000  H
  C115     1.0000 0.36070  0.82290  0.84050  Biso   1.000  C
  H74      1.0000 0.35860  0.83000  0.86610  Biso   1.000  H
  C116     1.0000 0.40200  0.82880  0.82220  Biso   1.000  C
  H75      1.0000 0.42750  0.84640  0.83610  Biso   1.000  H
  C117     1.0000 0.80260  0.57260  0.61160  Biso   1.000  C
  C118     1.0000 0.77040  0.55510  0.66750  Biso   1.000  C
  C119     1.0000 0.84580  0.55800  0.66150  Biso   1.000  C
  C120     1.0000 0.89250  0.55910  0.67970  Biso   1.000  C
  C121     1.0000 0.92990  0.57240  0.65800  Biso   1.000  C
  H76      1.0000 0.92840  0.56790  0.63230  Biso   1.000  H
  C122     1.0000 0.97110  0.59370  0.67680  Biso   1.000  C
  H77      1.0000 0.99700  0.60570  0.66260  Biso   1.000  H
  C123     1.0000 0.79770  0.58670  0.57070  Biso   1.000  C
  C124     1.0000 0.75580  0.59340  0.55380  Biso   1.000  C
  H78      1.0000 0.72920  0.58850  0.56770  Biso   1.000  H
  C125     1.0000 0.72870  0.54880  0.69180  Biso   1.000  C
  C126     1.0000 0.68510  0.55570  0.67650  Biso   1.000  C
  H79      1.0000 0.68160  0.56300  0.65100  Biso   1.000  H
  C127     1.0000 0.64760  0.55190  0.69870  Biso   1.000  C
  H80      1.0000 0.61880  0.55540  0.68800  Biso   1.000  H
  C128     1.0000 0.93820  0.57530  0.73360  Biso   1.000  C
  H81      1.0000 0.94050  0.57360  0.75930  Biso   1.000  H
  C129     1.0000 0.36930  0.79150  0.76660  Biso   1.000  C
  H82      1.0000 0.37240  0.77870  0.74130  Biso   1.000  H
  C130     1.0000 0.15930  0.80350  0.80550  Biso   1.000  C
  C131     1.0000 0.11580  0.80380  0.82160  Biso   1.000  C
  H83      1.0000 0.11200  0.81860  0.84670  Biso   1.000  H
  C132     1.0000 0.89510  0.55410  0.71720  Biso   1.000  C
  H84      1.0000 0.86980  0.53760  0.73160  Biso   1.000  H
  C133     1.0000 0.07960  0.78220  0.79990  Biso   1.000  C
  H85      1.0000 0.05080  0.78220  0.81060  Biso   1.000  H
  C134     1.0000 0.73280  0.53810  0.72960  Biso   1.000  C
  H86      1.0000 0.76130  0.53310  0.74070  Biso   1.000  H
  C135     1.0000 0.75400  0.60760  0.51630  Biso   1.000  C
  H87      1.0000 0.72540  0.61580  0.50560  Biso   1.000  H
  C136     1.0000 0.16320  0.79110  0.76800  Biso   1.000  C
  H88      1.0000 0.19140  0.79750  0.75640  Biso   1.000  H
  C137     1.0000 0.12480  0.76910  0.74770  Biso   1.000  C
  H89      1.0000 0.12760  0.75970  0.72220  Biso   1.000  H
  C138     1.0000 0.25700  0.85360  0.95020  Biso   1.000  C
  H90      1.0000 0.28530  0.87070  0.94050  Biso   1.000  H
  C139     1.0000 0.24960  0.85700  0.98720  Biso   1.000  C
  H91      1.0000 0.27360  0.87650  0.00240  Biso   1.000  H
  C140     1.0000 0.18090  0.80330  0.94280  Biso   1.000  C
  H92      1.0000 0.15600  0.78630  0.92820  Biso   1.000  H
  C141     1.0000 0.17750  0.80770  0.98010  Biso   1.000  C
  H93      1.0000 0.14960  0.79050  0.99060  Biso   1.000  H
  C142     1.0000 0.83580  0.59210  0.54890  Biso   1.000  C
  H94      1.0000 0.86470  0.58630  0.55930  Biso   1.000  H
  C143     1.0000 0.83020  0.60660  0.51070  Biso   1.000  C
  H95      1.0000 0.85630  0.61410  0.49630  Biso   1.000  H
  C144     1.0000 0.69440  0.53500  0.75040  Biso   1.000  C
  H96      1.0000 0.69760  0.52690  0.77590  Biso   1.000  H
  N37      1.0000 0.97520  0.59740  0.71400  Biso   1.000  N
  N38      1.0000 0.79060  0.61040  0.49390  Biso   1.000  N
  N39      1.0000 0.76400  0.56660  0.63150  Biso   1.000  N
  N40      1.0000 0.84410  0.56650  0.62490  Biso   1.000  N
  N41      1.0000 0.81000  0.54830  0.68420  Biso   1.000  N
  N42      1.0000 0.19330  0.81850  0.86530  Biso   1.000  N
  N43      1.0000 0.24110  0.80590  0.81350  Biso   1.000  N
  N44      1.0000 0.27260  0.81500  0.87350  Biso   1.000  N
  N45      1.0000 0.40780  0.81090  0.78650  Biso   1.000  N
  N46      1.0000 0.65150  0.54290  0.73650  Biso   1.000  N
  N47      1.0000 0.08290  0.76070  0.76370  Biso   1.000  N
  N48      1.0000 0.21070  0.83460  0.00300  Biso   1.000  N
  Co16     1.0000 0.78432  0.60965  0.43477  Biso   1.000  Co
  W37      1.0000 0.45686  0.32659  0.64950  Biso   1.000  W
  W38      1.0000 0.53058  0.29707  0.57603  Biso   1.000  W
  W39      1.0000 0.57824  0.54914  0.58972  Biso   1.000  W
  W40      1.0000 0.50588  0.74767  0.59121  Biso   1.000  W
  W41      1.0000 0.38082  0.54813  0.65186  Biso   1.000  W
  W42      1.0000 0.33904  0.47960  0.56495  Biso   1.000  W
  W43      1.0000 0.41563  0.26408  0.56265  Biso   1.000  W
  W44      1.0000 0.38224  0.71223  0.57640  Biso   1.000  W
  W45      1.0000 0.50544  0.57798  0.66416  Biso   1.000  W
  Co17     1.0000 0.41348  0.57590  0.49528  Biso   1.000  Co
  Co18     1.0000 0.47895  0.38606  0.49294  Biso   1.000  Co
  P5       1.0000 0.45897  0.50830  0.57352  Biso   1.000  P
  O117     1.0000 0.49460  0.56920  0.59470  Biso   1.000  O
  O118     1.0000 0.41100  0.54520  0.58520  Biso   1.000  O
  O119     1.0000 0.46610  0.51990  0.53140  Biso   1.000  O
  O120     1.0000 0.46340  0.39790  0.58560  Biso   1.000  O
  O121     1.0000 0.50550  0.72890  0.54170  Biso   1.000  O
  O122     1.0000 0.56720  0.68580  0.59150  Biso   1.000  O
  O123     1.0000 0.50700  0.70800  0.64410  Biso   1.000  O
  O124     1.0000 0.44060  0.75340  0.59410  Biso   1.000  O
  O125     1.0000 0.56180  0.40910  0.59430  Biso   1.000  O
  O126     1.0000 0.40190  0.69390  0.53020  Biso   1.000  O
  O127     1.0000 0.35120  0.82390  0.57450  Biso   1.000  O
  O128     1.0000 0.37130  0.67360  0.63020  Biso   1.000  O
  O129     1.0000 0.43400  0.46040  0.46010  Biso   1.000  O
  O130     1.0000 0.42810  0.31440  0.51860  Biso   1.000  O
  O131     1.0000 0.36320  0.49330  0.52050  Biso   1.000  O
  O132     1.0000 0.47880  0.21600  0.56440  Biso   1.000  O
  O133     1.0000 0.42070  0.24980  0.61810  Biso   1.000  O
  O134     1.0000 0.36720  0.35230  0.57350  Biso   1.000  O
  O135     1.0000 0.53010  0.34990  0.52920  Biso   1.000  O
  O136     1.0000 0.50970  0.27560  0.62700  Biso   1.000  O
  O137     1.0000 0.40710  0.41630  0.65500  Biso   1.000  O
  O138     1.0000 0.44050  0.59240  0.66490  Biso   1.000  O
  O139     1.0000 0.33640  0.49150  0.62080  Biso   1.000  O
  O140     1.0000 0.45580  0.25500  0.68950  Biso   1.000  O
  O141     1.0000 0.51930  0.60110  0.71020  Biso   1.000  O
  O142     1.0000 0.56280  0.55180  0.64250  Biso   1.000  O
  O143     1.0000 0.33170  0.62390  0.56870  Biso   1.000  O
  O144     1.0000 0.49590  0.44100  0.66290  Biso   1.000  O
  O145     1.0000 0.28230  0.44510  0.55790  Biso   1.000  O
  Co19     1.0000 0.46987  0.17661  0.73851  Biso   1.000  Co
  C145     1.0000 0.29930  0.31090  0.82890  Biso   1.000  C
  C146     1.0000 0.27020  0.32010  0.88610  Biso   1.000  C
  C147     1.0000 0.22420  0.31120  0.83690  Biso   1.000  C
  C148     1.0000 0.27750  0.32470  0.92720  Biso   1.000  C
  C149     1.0000 0.17750  0.30610  0.81890  Biso   1.000  C
  C150     1.0000 0.17350  0.28970  0.78150  Biso   1.000  C
  H97      1.0000 0.19900  0.27780  0.76680  Biso   1.000  H
  C151     1.0000 0.13930  0.32290  0.84050  Biso   1.000  C
  H98      1.0000 0.14140  0.33000  0.86610  Biso   1.000  H
  C152     1.0000 0.09800  0.32880  0.82220  Biso   1.000  C
  H99      1.0000 0.07250  0.34640  0.83610  Biso   1.000  H
  C153     1.0000 0.69740  0.07260  0.61160  Biso   1.000  C
  C154     1.0000 0.72960  0.05510  0.66750  Biso   1.000  C
  C155     1.0000 0.65420  0.05800  0.66150  Biso   1.000  C
  C156     1.0000 0.60750  0.05910  0.67970  Biso   1.000  C
  C157     1.0000 0.57010  0.07240  0.65800  Biso   1.000  C
  H100     1.0000 0.57160  0.06790  0.63230  Biso   1.000  H
  C158     1.0000 0.52890  0.09370  0.67680  Biso   1.000  C
  H101     1.0000 0.50300  0.10570  0.66260  Biso   1.000  H
  C159     1.0000 0.70230  0.08670  0.57070  Biso   1.000  C
  C160     1.0000 0.74420  0.09340  0.55380  Biso   1.000  C
  H102     1.0000 0.77080  0.08850  0.56770  Biso   1.000  H
  C161     1.0000 0.77130  0.04880  0.69180  Biso   1.000  C
  C162     1.0000 0.81490  0.05570  0.67650  Biso   1.000  C
  H103     1.0000 0.81840  0.06300  0.65100  Biso   1.000  H
  C163     1.0000 0.85240  0.05190  0.69870  Biso   1.000  C
  H104     1.0000 0.88120  0.05540  0.68800  Biso   1.000  H
  C164     1.0000 0.56180  0.07530  0.73360  Biso   1.000  C
  H105     1.0000 0.55950  0.07360  0.75930  Biso   1.000  H
  C165     1.0000 0.13070  0.29150  0.76660  Biso   1.000  C
  H106     1.0000 0.12760  0.27870  0.74130  Biso   1.000  H
  C166     1.0000 0.34070  0.30350  0.80550  Biso   1.000  C
  C167     1.0000 0.38420  0.30380  0.82160  Biso   1.000  C
  H107     1.0000 0.38800  0.31860  0.84670  Biso   1.000  H
  C168     1.0000 0.60490  0.05410  0.71720  Biso   1.000  C
  H108     1.0000 0.63020  0.03760  0.73160  Biso   1.000  H
  C169     1.0000 0.42040  0.28220  0.79990  Biso   1.000  C
  H109     1.0000 0.44920  0.28220  0.81060  Biso   1.000  H
  C170     1.0000 0.76720  0.03810  0.72960  Biso   1.000  C
  H110     1.0000 0.73870  0.03310  0.74070  Biso   1.000  H
  C171     1.0000 0.74600  0.10760  0.51630  Biso   1.000  C
  H111     1.0000 0.77460  0.11580  0.50560  Biso   1.000  H
  C172     1.0000 0.33680  0.29110  0.76800  Biso   1.000  C
  H112     1.0000 0.30860  0.29750  0.75640  Biso   1.000  H
  C173     1.0000 0.37520  0.26910  0.74770  Biso   1.000  C
  H113     1.0000 0.37240  0.25970  0.72220  Biso   1.000  H
  C174     1.0000 0.24300  0.35360  0.95020  Biso   1.000  C
  H114     1.0000 0.21470  0.37070  0.94050  Biso   1.000  H
  C175     1.0000 0.25040  0.35700  0.98720  Biso   1.000  C
  H115     1.0000 0.22640  0.37650  0.00240  Biso   1.000  H
  C176     1.0000 0.31910  0.30330  0.94280  Biso   1.000  C
  H116     1.0000 0.34400  0.28630  0.92820  Biso   1.000  H
  C177     1.0000 0.32250  0.30770  0.98010  Biso   1.000  C
  H117     1.0000 0.35040  0.29050  0.99060  Biso   1.000  H
  C178     1.0000 0.66420  0.09210  0.54890  Biso   1.000  C
  H118     1.0000 0.63530  0.08630  0.55930  Biso   1.000  H
  C179     1.0000 0.66980  0.10660  0.51070  Biso   1.000  C
  H119     1.0000 0.64370  0.11410  0.49630  Biso   1.000  H
  C180     1.0000 0.80560  0.03500  0.75040  Biso   1.000  C
  H120     1.0000 0.80240  0.02690  0.77590  Biso   1.000  H
  N49      1.0000 0.52480  0.09740  0.71400  Biso   1.000  N
  N50      1.0000 0.70940  0.11040  0.49390  Biso   1.000  N
  N51      1.0000 0.73600  0.06660  0.63150  Biso   1.000  N
  N52      1.0000 0.65590  0.06650  0.62490  Biso   1.000  N
  N53      1.0000 0.69000  0.04830  0.68420  Biso   1.000  N
  N54      1.0000 0.30670  0.31850  0.86530  Biso   1.000  N
  N55      1.0000 0.25890  0.30590  0.81350  Biso   1.000  N
  N56      1.0000 0.22740  0.31500  0.87350  Biso   1.000  N
  N57      1.0000 0.09220  0.31090  0.78650  Biso   1.000  N
  N58      1.0000 0.84850  0.04290  0.73650  Biso   1.000  N
  N59      1.0000 0.41710  0.26070  0.76370  Biso   1.000  N
  N60      1.0000 0.28930  0.33460  0.00300  Biso   1.000  N
  Co20     1.0000 0.71568  0.10965  0.43477  Biso   1.000  Co
  W46      1.0000 0.04314  0.67341  0.14950  Biso   1.000  W
  W47      1.0000 0.96942  0.70293  0.07603  Biso   1.000  W
  W48      1.0000 0.92176  0.45086  0.08972  Biso   1.000  W
  W49      1.0000 0.99412  0.25233  0.09121  Biso   1.000  W
  W50      1.0000 0.11918  0.45187  0.15186  Biso   1.000  W
  W51      1.0000 0.16096  0.52040  0.06495  Biso   1.000  W
  W52      1.0000 0.08437  0.73592  0.06265  Biso   1.000  W
  W53      1.0000 0.11776  0.28777  0.07640  Biso   1.000  W
  W54      1.0000 0.99456  0.42202  0.16416  Biso   1.000  W
  Co21     1.0000 0.08652  0.42410  0.99528  Biso   1.000  Co
  Co22     1.0000 0.02105  0.61394  0.99294  Biso   1.000  Co
  P6       1.0000 0.04103  0.49170  0.07352  Biso   1.000  P
  O146     1.0000 0.00540  0.43080  0.09470  Biso   1.000  O
  O147     1.0000 0.08900  0.45480  0.08520  Biso   1.000  O
  O148     1.0000 0.03390  0.48010  0.03140  Biso   1.000  O
  O149     1.0000 0.03660  0.60210  0.08560  Biso   1.000  O
  O150     1.0000 0.99450  0.27110  0.04170  Biso   1.000  O
  O151     1.0000 0.93280  0.31420  0.09150  Biso   1.000  O
  O152     1.0000 0.99300  0.29200  0.14410  Biso   1.000  O
  O153     1.0000 0.05940  0.24660  0.09410  Biso   1.000  O
  O154     1.0000 0.93820  0.59090  0.09430  Biso   1.000  O
  O155     1.0000 0.09810  0.30610  0.03020  Biso   1.000  O
  O156     1.0000 0.14880  0.17610  0.07450  Biso   1.000  O
  O157     1.0000 0.12870  0.32640  0.13020  Biso   1.000  O
  O158     1.0000 0.06600  0.53960  0.96010  Biso   1.000  O
  O159     1.0000 0.07190  0.68560  0.01860  Biso   1.000  O
  O160     1.0000 0.13680  0.50670  0.02050  Biso   1.000  O
  O161     1.0000 0.02120  0.78400  0.06440  Biso   1.000  O
  O162     1.0000 0.07930  0.75020  0.11810  Biso   1.000  O
  O163     1.0000 0.13280  0.64770  0.07350  Biso   1.000  O
  O164     1.0000 0.96990  0.65010  0.02920  Biso   1.000  O
  O165     1.0000 0.99030  0.72440  0.12700  Biso   1.000  O
  O166     1.0000 0.09290  0.58370  0.15500  Biso   1.000  O
  O167     1.0000 0.05950  0.40760  0.16490  Biso   1.000  O
  O168     1.0000 0.16360  0.50850  0.12080  Biso   1.000  O
  O169     1.0000 0.04420  0.74500  0.18950  Biso   1.000  O
  O170     1.0000 0.98070  0.39890  0.21020  Biso   1.000  O
  O171     1.0000 0.93720  0.44820  0.14250  Biso   1.000  O
  O172     1.0000 0.16830  0.37610  0.06870  Biso   1.000  O
  O173     1.0000 0.00410  0.55900  0.16290  Biso   1.000  O
  O174     1.0000 0.21770  0.55490  0.05790  Biso   1.000  O
  Co23     1.0000 0.03013  0.82339  0.23851  Biso   1.000  Co
  C181     1.0000 0.20070  0.68910  0.32890  Biso   1.000  C
  C182     1.0000 0.22980  0.67990  0.38610  Biso   1.000  C
  C183     1.0000 0.27580  0.68880  0.33690  Biso   1.000  C
  C184     1.0000 0.22250  0.67530  0.42720  Biso   1.000  C
  C185     1.0000 0.32250  0.69390  0.31890  Biso   1.000  C
  C186     1.0000 0.32650  0.71030  0.28150  Biso   1.000  C
  H121     1.0000 0.30100  0.72220  0.26680  Biso   1.000  H
  C187     1.0000 0.36070  0.67710  0.34050  Biso   1.000  C
  H122     1.0000 0.35860  0.67000  0.36610  Biso   1.000  H
  C188     1.0000 0.40200  0.67120  0.32220  Biso   1.000  C
  H123     1.0000 0.42750  0.65360  0.33610  Biso   1.000  H
  C189     1.0000 0.80260  0.92740  0.11160  Biso   1.000  C
  C190     1.0000 0.77040  0.94490  0.16750  Biso   1.000  C
  C191     1.0000 0.84580  0.94200  0.16150  Biso   1.000  C
  C192     1.0000 0.89250  0.94090  0.17970  Biso   1.000  C
  C193     1.0000 0.92990  0.92760  0.15800  Biso   1.000  C
  H124     1.0000 0.92840  0.93210  0.13230  Biso   1.000  H
  C194     1.0000 0.97110  0.90630  0.17680  Biso   1.000  C
  H125     1.0000 0.99700  0.89430  0.16260  Biso   1.000  H
  C195     1.0000 0.79770  0.91330  0.07070  Biso   1.000  C
  C196     1.0000 0.75580  0.90660  0.05380  Biso   1.000  C
  H126     1.0000 0.72920  0.91150  0.06770  Biso   1.000  H
  C197     1.0000 0.72870  0.95120  0.19180  Biso   1.000  C
  C198     1.0000 0.68510  0.94430  0.17650  Biso   1.000  C
  H127     1.0000 0.68160  0.93700  0.15100  Biso   1.000  H
  C199     1.0000 0.64760  0.94810  0.19870  Biso   1.000  C
  H128     1.0000 0.61880  0.94460  0.18800  Biso   1.000  H
  C200     1.0000 0.93820  0.92470  0.23360  Biso   1.000  C
  H129     1.0000 0.94050  0.92640  0.25930  Biso   1.000  H
  C201     1.0000 0.36930  0.70850  0.26660  Biso   1.000  C
  H130     1.0000 0.37240  0.72130  0.24130  Biso   1.000  H
  C202     1.0000 0.15930  0.69650  0.30550  Biso   1.000  C
  C203     1.0000 0.11580  0.69620  0.32160  Biso   1.000  C
  H131     1.0000 0.11200  0.68140  0.34670  Biso   1.000  H
  C204     1.0000 0.89510  0.94590  0.21720  Biso   1.000  C
  H132     1.0000 0.86980  0.96240  0.23160  Biso   1.000  H
  C205     1.0000 0.07960  0.71780  0.29990  Biso   1.000  C
  H133     1.0000 0.05080  0.71780  0.31060  Biso   1.000  H
  C206     1.0000 0.73280  0.96190  0.22960  Biso   1.000  C
  H134     1.0000 0.76130  0.96690  0.24070  Biso   1.000  H
  C207     1.0000 0.75400  0.89240  0.01630  Biso   1.000  C
  H135     1.0000 0.72540  0.88420  0.00560  Biso   1.000  H
  C208     1.0000 0.16320  0.70890  0.26800  Biso   1.000  C
  H136     1.0000 0.19140  0.70250  0.25640  Biso   1.000  H
  C209     1.0000 0.12480  0.73090  0.24770  Biso   1.000  C
  H137     1.0000 0.12760  0.74030  0.22220  Biso   1.000  H
  C210     1.0000 0.25700  0.64640  0.45020  Biso   1.000  C
  H138     1.0000 0.28530  0.62930  0.44050  Biso   1.000  H
  C211     1.0000 0.24960  0.64300  0.48720  Biso   1.000  C
  H139     1.0000 0.27360  0.62350  0.50240  Biso   1.000  H
  C212     1.0000 0.18090  0.69670  0.44280  Biso   1.000  C
  H140     1.0000 0.15600  0.71370  0.42820  Biso   1.000  H
  C213     1.0000 0.17750  0.69230  0.48010  Biso   1.000  C
  H141     1.0000 0.14960  0.70950  0.49060  Biso   1.000  H
  C214     1.0000 0.83580  0.90790  0.04890  Biso   1.000  C
  H142     1.0000 0.86470  0.91370  0.05930  Biso   1.000  H
  C215     1.0000 0.83020  0.89340  0.01070  Biso   1.000  C
  H143     1.0000 0.85630  0.88590  0.99630  Biso   1.000  H
  C216     1.0000 0.69440  0.96500  0.25040  Biso   1.000  C
  H144     1.0000 0.69760  0.97310  0.27590  Biso   1.000  H
  N61      1.0000 0.97520  0.90260  0.21400  Biso   1.000  N
  N62      1.0000 0.79060  0.88960  0.99390  Biso   1.000  N
  N63      1.0000 0.76400  0.93340  0.13150  Biso   1.000  N
  N64      1.0000 0.84410  0.93350  0.12490  Biso   1.000  N
  N65      1.0000 0.81000  0.95170  0.18420  Biso   1.000  N
  N66      1.0000 0.19330  0.68150  0.36530  Biso   1.000  N
  N67      1.0000 0.24110  0.69410  0.31350  Biso   1.000  N
  N68      1.0000 0.27260  0.68500  0.37350  Biso   1.000  N
  N69      1.0000 0.40780  0.68910  0.28650  Biso   1.000  N
  N70      1.0000 0.65150  0.95710  0.23650  Biso   1.000  N
  N71      1.0000 0.08290  0.73930  0.26370  Biso   1.000  N
  N72      1.0000 0.21070  0.66540  0.50300  Biso   1.000  N
  Co24     1.0000 0.78432  0.89035  0.93477  Biso   1.000  Co
  W55      1.0000 0.54314  0.82659  0.85050  Biso   1.000  W
  W56      1.0000 0.46942  0.79707  0.92397  Biso   1.000  W
  W57      1.0000 0.42176  0.04914  0.91028  Biso   1.000  W
  W58      1.0000 0.49412  0.24767  0.90879  Biso   1.000  W
  W59      1.0000 0.61918  0.04813  0.84814  Biso   1.000  W
  W60      1.0000 0.66096  0.97960  0.93505  Biso   1.000  W
  W61      1.0000 0.58437  0.76408  0.93735  Biso   1.000  W
  W62      1.0000 0.61776  0.21223  0.92360  Biso   1.000  W
  W63      1.0000 0.49456  0.07798  0.83584  Biso   1.000  W
  Co25     1.0000 0.58652  0.07590  0.00472  Biso   1.000  Co
  Co26     1.0000 0.52105  0.88606  0.00706  Biso   1.000  Co
  P7       1.0000 0.54103  0.00830  0.92648  Biso   1.000  P
  O175     1.0000 0.50540  0.06920  0.90530  Biso   1.000  O
  O176     1.0000 0.58900  0.04520  0.91480  Biso   1.000  O
  O177     1.0000 0.53390  0.01990  0.96860  Biso   1.000  O
  O178     1.0000 0.53660  0.89790  0.91440  Biso   1.000  O
  O179     1.0000 0.49450  0.22890  0.95830  Biso   1.000  O
  O180     1.0000 0.43280  0.18580  0.90850  Biso   1.000  O
  O181     1.0000 0.49300  0.20800  0.85590  Biso   1.000  O
  O182     1.0000 0.55940  0.25340  0.90590  Biso   1.000  O
  O183     1.0000 0.43820  0.90910  0.90570  Biso   1.000  O
  O184     1.0000 0.59810  0.19390  0.96980  Biso   1.000  O
  O185     1.0000 0.64880  0.32390  0.92550  Biso   1.000  O
  O186     1.0000 0.62870  0.17360  0.86980  Biso   1.000  O
  O187     1.0000 0.56600  0.96040  0.03990  Biso   1.000  O
  O188     1.0000 0.57190  0.81440  0.98140  Biso   1.000  O
  O189     1.0000 0.63680  0.99330  0.97950  Biso   1.000  O
  O190     1.0000 0.52120  0.71600  0.93560  Biso   1.000  O
  O191     1.0000 0.57930  0.74980  0.88190  Biso   1.000  O
  O192     1.0000 0.63280  0.85230  0.92650  Biso   1.000  O
  O193     1.0000 0.46990  0.84990  0.97080  Biso   1.000  O
  O194     1.0000 0.49030  0.77560  0.87300  Biso   1.000  O
  O195     1.0000 0.59290  0.91630  0.84500  Biso   1.000  O
  O196     1.0000 0.55950  0.09240  0.83510  Biso   1.000  O
  O197     1.0000 0.66360  0.99150  0.87920  Biso   1.000  O
  O198     1.0000 0.54420  0.75500  0.81050  Biso   1.000  O
  O199     1.0000 0.48070  0.10110  0.78980  Biso   1.000  O
  O200     1.0000 0.43720  0.05180  0.85750  Biso   1.000  O
  O201     1.0000 0.66830  0.12390  0.93130  Biso   1.000  O
  O202     1.0000 0.50410  0.94100  0.83710  Biso   1.000  O
  O203     1.0000 0.71770  0.94510  0.94210  Biso   1.000  O
  Co27     1.0000 0.53013  0.67661  0.76149  Biso   1.000  Co
  C217     1.0000 0.70070  0.81090  0.67110  Biso   1.000  C
  C218     1.0000 0.72980  0.82010  0.61390  Biso   1.000  C
  C219     1.0000 0.77580  0.81120  0.66310  Biso   1.000  C
  C220     1.0000 0.72250  0.82470  0.57280  Biso   1.000  C
  C221     1.0000 0.82250  0.80610  0.68110  Biso   1.000  C
  C222     1.0000 0.82650  0.78970  0.71850  Biso   1.000  C
  H145     1.0000 0.80100  0.77780  0.73320  Biso   1.000  H
  C223     1.0000 0.86070  0.82290  0.65950  Biso   1.000  C
  H146     1.0000 0.85860  0.83000  0.63390  Biso   1.000  H
  C224     1.0000 0.90200  0.82880  0.67780  Biso   1.000  C
  H147     1.0000 0.92750  0.84640  0.66390  Biso   1.000  H
  C225     1.0000 0.30260  0.57260  0.88840  Biso   1.000  C
  C226     1.0000 0.27040  0.55510  0.83250  Biso   1.000  C
  C227     1.0000 0.34580  0.55800  0.83850  Biso   1.000  C
  C228     1.0000 0.39250  0.55910  0.82030  Biso   1.000  C
  C229     1.0000 0.42990  0.57240  0.84200  Biso   1.000  C
  H148     1.0000 0.42840  0.56790  0.86770  Biso   1.000  H
  C230     1.0000 0.47110  0.59370  0.82320  Biso   1.000  C
  H149     1.0000 0.49700  0.60570  0.83740  Biso   1.000  H
  C231     1.0000 0.29770  0.58670  0.92930  Biso   1.000  C
  C232     1.0000 0.25580  0.59340  0.94620  Biso   1.000  C
  H150     1.0000 0.22920  0.58850  0.93230  Biso   1.000  H
  C233     1.0000 0.22870  0.54880  0.80820  Biso   1.000  C
  C234     1.0000 0.18510  0.55570  0.82350  Biso   1.000  C
  H151     1.0000 0.18160  0.56300  0.84900  Biso   1.000  H
  C235     1.0000 0.14760  0.55190  0.80130  Biso   1.000  C
  H152     1.0000 0.11880  0.55540  0.81200  Biso   1.000  H
  C236     1.0000 0.43820  0.57530  0.76640  Biso   1.000  C
  H153     1.0000 0.44050  0.57360  0.74070  Biso   1.000  H
  C237     1.0000 0.86930  0.79150  0.73340  Biso   1.000  C
  H154     1.0000 0.87240  0.77870  0.75870  Biso   1.000  H
  C238     1.0000 0.65930  0.80350  0.69450  Biso   1.000  C
  C239     1.0000 0.61580  0.80380  0.67840  Biso   1.000  C
  H155     1.0000 0.61200  0.81860  0.65330  Biso   1.000  H
  C240     1.0000 0.39510  0.55410  0.78280  Biso   1.000  C
  H156     1.0000 0.36980  0.53760  0.76840  Biso   1.000  H
  C241     1.0000 0.57960  0.78220  0.70010  Biso   1.000  C
  H157     1.0000 0.55080  0.78220  0.68940  Biso   1.000  H
  C242     1.0000 0.23280  0.53810  0.77040  Biso   1.000  C
  H158     1.0000 0.26130  0.53310  0.75930  Biso   1.000  H
  C243     1.0000 0.25400  0.60760  0.98370  Biso   1.000  C
  H159     1.0000 0.22540  0.61580  0.99440  Biso   1.000  H
  C244     1.0000 0.66320  0.79110  0.73200  Biso   1.000  C
  H160     1.0000 0.69140  0.79750  0.74360  Biso   1.000  H
  C245     1.0000 0.62480  0.76910  0.75230  Biso   1.000  C
  H161     1.0000 0.62760  0.75970  0.77780  Biso   1.000  H
  C246     1.0000 0.75700  0.85360  0.54980  Biso   1.000  C
  H162     1.0000 0.78530  0.87070  0.55950  Biso   1.000  H
  C247     1.0000 0.74960  0.85700  0.51280  Biso   1.000  C
  H163     1.0000 0.77360  0.87650  0.49760  Biso   1.000  H
  C248     1.0000 0.68090  0.80330  0.55720  Biso   1.000  C
  H164     1.0000 0.65600  0.78630  0.57180  Biso   1.000  H
  C249     1.0000 0.67750  0.80770  0.51990  Biso   1.000  C
  H165     1.0000 0.64960  0.79050  0.50940  Biso   1.000  H
  C250     1.0000 0.33580  0.59210  0.95110  Biso   1.000  C
  H166     1.0000 0.36470  0.58630  0.94070  Biso   1.000  H
  C251     1.0000 0.33020  0.60660  0.98930  Biso   1.000  C
  H167     1.0000 0.35630  0.61410  0.00370  Biso   1.000  H
  C252     1.0000 0.19440  0.53500  0.74960  Biso   1.000  C
  H168     1.0000 0.19760  0.52690  0.72410  Biso   1.000  H
  N73      1.0000 0.47520  0.59740  0.78600  Biso   1.000  N
  N74      1.0000 0.29060  0.61040  0.00610  Biso   1.000  N
  N75      1.0000 0.26400  0.56660  0.86850  Biso   1.000  N
  N76      1.0000 0.34410  0.56650  0.87510  Biso   1.000  N
  N77      1.0000 0.31000  0.54830  0.81580  Biso   1.000  N
  N78      1.0000 0.69330  0.81850  0.63470  Biso   1.000  N
  N79      1.0000 0.74110  0.80590  0.68650  Biso   1.000  N
  N80      1.0000 0.77260  0.81500  0.62650  Biso   1.000  N
  N81      1.0000 0.90780  0.81090  0.71350  Biso   1.000  N
  N82      1.0000 0.15150  0.54290  0.76350  Biso   1.000  N
  N83      1.0000 0.58290  0.76070  0.73630  Biso   1.000  N
  N84      1.0000 0.71070  0.83460  0.49700  Biso   1.000  N
  Co28     1.0000 0.28432  0.60965  0.06523  Biso   1.000  Co
  W64      1.0000 0.95686  0.17341  0.35050  Biso   1.000  W
  W65      1.0000 0.03058  0.20293  0.42397  Biso   1.000  W
  W66      1.0000 0.07824  0.95086  0.41028  Biso   1.000  W
  W67      1.0000 0.00588  0.75233  0.40879  Biso   1.000  W
  W68      1.0000 0.88082  0.95187  0.34814  Biso   1.000  W
  W69      1.0000 0.83904  0.02040  0.43505  Biso   1.000  W
  W70      1.0000 0.91563  0.23592  0.43735  Biso   1.000  W
  W71      1.0000 0.88224  0.78777  0.42360  Biso   1.000  W
  W72      1.0000 0.00544  0.92202  0.33584  Biso   1.000  W
  Co29     1.0000 0.91348  0.92410  0.50472  Biso   1.000  Co
  Co30     1.0000 0.97895  0.11394  0.50706  Biso   1.000  Co
  P8       1.0000 0.95897  0.99170  0.42648  Biso   1.000  P
  O204     1.0000 0.99460  0.93080  0.40530  Biso   1.000  O
  O205     1.0000 0.91100  0.95480  0.41480  Biso   1.000  O
  O206     1.0000 0.96610  0.98010  0.46860  Biso   1.000  O
  O207     1.0000 0.96340  0.10210  0.41440  Biso   1.000  O
  O208     1.0000 0.00550  0.77110  0.45830  Biso   1.000  O
  O209     1.0000 0.06720  0.81420  0.40850  Biso   1.000  O
  O210     1.0000 0.00700  0.79200  0.35590  Biso   1.000  O
  O211     1.0000 0.94060  0.74660  0.40590  Biso   1.000  O
  O212     1.0000 0.06180  0.09090  0.40570  Biso   1.000  O
  O213     1.0000 0.90190  0.80610  0.46980  Biso   1.000  O
  O214     1.0000 0.85120  0.67610  0.42550  Biso   1.000  O
  O215     1.0000 0.87130  0.82640  0.36980  Biso   1.000  O
  O216     1.0000 0.93400  0.03960  0.53990  Biso   1.000  O
  O217     1.0000 0.92810  0.18560  0.48140  Biso   1.000  O
  O218     1.0000 0.86320  0.00670  0.47950  Biso   1.000  O
  O219     1.0000 0.97880  0.28400  0.43560  Biso   1.000  O
  O220     1.0000 0.92070  0.25020  0.38190  Biso   1.000  O
  O221     1.0000 0.86720  0.14770  0.42650  Biso   1.000  O
  O222     1.0000 0.03010  0.15010  0.47080  Biso   1.000  O
  O223     1.0000 0.00970  0.22440  0.37300  Biso   1.000  O
  O224     1.0000 0.90710  0.08370  0.34500  Biso   1.000  O
  O225     1.0000 0.94050  0.90760  0.33510  Biso   1.000  O
  O226     1.0000 0.83640  0.00850  0.37920  Biso   1.000  O
  O227     1.0000 0.95580  0.24500  0.31050  Biso   1.000  O
  O228     1.0000 0.01930  0.89890  0.28980  Biso   1.000  O
  O229     1.0000 0.06280  0.94820  0.35750  Biso   1.000  O
  O230     1.0000 0.83170  0.87610  0.43130  Biso   1.000  O
  O231     1.0000 0.99590  0.05900  0.33710  Biso   1.000  O
  O232     1.0000 0.78230  0.05490  0.44210  Biso   1.000  O
  Co31     1.0000 0.96987  0.32339  0.26149  Biso   1.000  Co
  C253     1.0000 0.79930  0.18910  0.17110  Biso   1.000  C
  C254     1.0000 0.77020  0.17990  0.11390  Biso   1.000  C
  C255     1.0000 0.72420  0.18880  0.16310  Biso   1.000  C
  C256     1.0000 0.77750  0.17530  0.07280  Biso   1.000  C
  C257     1.0000 0.67750  0.19390  0.18110  Biso   1.000  C
  C258     1.0000 0.67350  0.21030  0.21850  Biso   1.000  C
  H169     1.0000 0.69900  0.22220  0.23320  Biso   1.000  H
  C259     1.0000 0.63930  0.17710  0.15950  Biso   1.000  C
  H170     1.0000 0.64140  0.17000  0.13390  Biso   1.000  H
  C260     1.0000 0.59800  0.17120  0.17780  Biso   1.000  C
  H171     1.0000 0.57250  0.15360  0.16390  Biso   1.000  H
  C261     1.0000 0.19740  0.42740  0.38840  Biso   1.000  C
  C262     1.0000 0.22960  0.44490  0.33250  Biso   1.000  C
  C263     1.0000 0.15420  0.44200  0.33850  Biso   1.000  C
  C264     1.0000 0.10750  0.44090  0.32030  Biso   1.000  C
  C265     1.0000 0.07010  0.42760  0.34200  Biso   1.000  C
  H172     1.0000 0.07160  0.43210  0.36770  Biso   1.000  H
  C266     1.0000 0.02890  0.40630  0.32320  Biso   1.000  C
  H173     1.0000 0.00300  0.39430  0.33740  Biso   1.000  H
  C267     1.0000 0.20230  0.41330  0.42930  Biso   1.000  C
  C268     1.0000 0.24420  0.40660  0.44620  Biso   1.000  C
  H174     1.0000 0.27080  0.41150  0.43230  Biso   1.000  H
  C269     1.0000 0.27130  0.45120  0.30820  Biso   1.000  C
  C270     1.0000 0.31490  0.44430  0.32350  Biso   1.000  C
  H175     1.0000 0.31840  0.43700  0.34900  Biso   1.000  H
  C271     1.0000 0.35240  0.44810  0.30130  Biso   1.000  C
  H176     1.0000 0.38120  0.44460  0.31200  Biso   1.000  H
  C272     1.0000 0.06180  0.42470  0.26640  Biso   1.000  C
  H177     1.0000 0.05950  0.42640  0.24070  Biso   1.000  H
  C273     1.0000 0.63070  0.20850  0.23340  Biso   1.000  C
  H178     1.0000 0.62760  0.22130  0.25870  Biso   1.000  H
  C274     1.0000 0.84070  0.19650  0.19450  Biso   1.000  C
  C275     1.0000 0.88420  0.19620  0.17840  Biso   1.000  C
  H179     1.0000 0.88800  0.18140  0.15330  Biso   1.000  H
  C276     1.0000 0.10490  0.44590  0.28280  Biso   1.000  C
  H180     1.0000 0.13020  0.46240  0.26840  Biso   1.000  H
  C277     1.0000 0.92040  0.21780  0.20010  Biso   1.000  C
  H181     1.0000 0.94920  0.21780  0.18940  Biso   1.000  H
  C278     1.0000 0.26720  0.46190  0.27040  Biso   1.000  C
  H182     1.0000 0.23870  0.46690  0.25930  Biso   1.000  H
  C279     1.0000 0.24600  0.39240  0.48370  Biso   1.000  C
  H183     1.0000 0.27460  0.38420  0.49440  Biso   1.000  H
  C280     1.0000 0.83680  0.20890  0.23200  Biso   1.000  C
  H184     1.0000 0.80860  0.20250  0.24360  Biso   1.000  H
  C281     1.0000 0.87520  0.23090  0.25230  Biso   1.000  C
  H185     1.0000 0.87240  0.24030  0.27780  Biso   1.000  H
  C282     1.0000 0.74300  0.14640  0.04980  Biso   1.000  C
  H186     1.0000 0.71470  0.12930  0.05950  Biso   1.000  H
  C283     1.0000 0.75040  0.14300  0.01280  Biso   1.000  C
  H187     1.0000 0.72640  0.12350  0.99760  Biso   1.000  H
  C284     1.0000 0.81910  0.19670  0.05720  Biso   1.000  C
  H188     1.0000 0.84400  0.21370  0.07180  Biso   1.000  H
  C285     1.0000 0.82250  0.19230  0.01990  Biso   1.000  C
  H189     1.0000 0.85040  0.20950  0.00940  Biso   1.000  H
  C286     1.0000 0.16420  0.40790  0.45110  Biso   1.000  C
  H190     1.0000 0.13530  0.41370  0.44070  Biso   1.000  H
  C287     1.0000 0.16980  0.39340  0.48930  Biso   1.000  C
  H191     1.0000 0.14370  0.38590  0.50370  Biso   1.000  H
  C288     1.0000 0.30560  0.46500  0.24960  Biso   1.000  C
  H192     1.0000 0.30240  0.47310  0.22410  Biso   1.000  H
  N85      1.0000 0.02480  0.40260  0.28600  Biso   1.000  N
  N86      1.0000 0.20940  0.38960  0.50610  Biso   1.000  N
  N87      1.0000 0.23600  0.43340  0.36850  Biso   1.000  N
  N88      1.0000 0.15590  0.43350  0.37510  Biso   1.000  N
  N89      1.0000 0.19000  0.45170  0.31580  Biso   1.000  N
  N90      1.0000 0.80670  0.18150  0.13470  Biso   1.000  N
  N91      1.0000 0.75890  0.19410  0.18650  Biso   1.000  N
  N92      1.0000 0.72740  0.18500  0.12650  Biso   1.000  N
  N93      1.0000 0.59220  0.18910  0.21350  Biso   1.000  N
  N94      1.0000 0.34850  0.45710  0.26350  Biso   1.000  N
  N95      1.0000 0.91710  0.23930  0.23630  Biso   1.000  N
  N96      1.0000 0.78930  0.16540  0.99700  Biso   1.000  N
  Co32     1.0000 0.21568  0.39035  0.56523  Biso   1.000  Co
