data_image0
_cell_length_a       20.7471
_cell_length_b       26.2764
_cell_length_c       36.8943
_cell_angle_alpha    90
_cell_angle_beta     90
_cell_angle_gamma    90

_symmetry_space_group_name_H-M    "P 1"
_symmetry_int_tables_number       1

loop_
  _symmetry_equiv_pos_as_xyz
  'x, y, z'

loop_
  _atom_site_label
  _atom_site_occupancy
  _atom_site_fract_x
  _atom_site_fract_y
  _atom_site_fract_z
  _atom_site_thermal_displace_type
  _atom_site_B_iso_or_equiv
  _atom_site_type_symbol
  Cd1      1.0000 0.20251  0.93940  0.15126  Biso   1.000  Cd
  Cd2      1.0000 0.07923  0.16344  0.15047  Biso   1.000  Cd
  O1       1.0000 0.09830  0.19111  0.21922  Biso   1.000  O
  O2       1.0000 0.26800  0.42155  0.27900  Biso   1.000  O
  N1       1.0000 0.12690  0.09310  0.16985  Biso   1.000  N
  O3       1.0000 0.22650  0.38210  0.32668  Biso   1.000  O
  N2       1.0000 0.88210  0.11220  0.16836  Biso   1.000  N
  N3       1.0000 0.16210  0.01240  0.17207  Biso   1.000  N
  O4       1.0000 0.33270  0.01200  0.22122  Biso   1.000  O
  C1       1.0000 0.13360  0.04750  0.15237  Biso   1.000  C
  H1       1.0000 0.11930  0.04190  0.12880  Biso   1.000  H
  O5       1.0000 0.14670  0.96100  0.09523  Biso   1.000  O
  N4       1.0000 0.17530  0.03570  0.20465  Biso   1.000  N
  C2       1.0000 0.15340  0.26970  0.22714  Biso   1.000  C
  N5       1.0000 0.97910  0.14760  0.16843  Biso   1.000  N
  C3       1.0000 0.46660  0.99980  0.21750  Biso   1.000  C
  H2       1.0000 0.44420  0.99940  0.19570  Biso   1.000  H
  C4       1.0000 0.15350  0.08260  0.20192  Biso   1.000  C
  H3       1.0000 0.15640  0.10630  0.22060  Biso   1.000  H
  O6       1.0000 0.05250  0.11790  0.09460  Biso   1.000  O
  O7       1.0000 0.13090  0.23170  0.17069  Biso   1.000  O
  C5       1.0000 0.93640  0.12040  0.15060  Biso   1.000  C
  H4       1.0000 0.94390  0.10800  0.12740  Biso   1.000  H
  O8       1.0000 0.22890  0.90990  0.09450  Biso   1.000  O
  C6       1.0000 0.18680  0.93460  0.07849  Biso   1.000  C
  O9       1.0000 0.09700  0.18890  0.09480  Biso   1.000  O
  C7       1.0000 0.18350  0.93200  0.03800  Biso   1.000  C
  C8       1.0000 0.12600  0.22870  0.20470  Biso   1.000  C
  N6       1.0000 0.95010  0.15870  0.20103  Biso   1.000  N
  C9       1.0000 0.19970  0.35260  0.23270  Biso   1.000  C
  H5       1.0000 0.21410  0.38250  0.22190  Biso   1.000  H
  C10      1.0000 0.18400  0.30290  0.28500  Biso   1.000  C
  H6       1.0000 0.18630  0.29910  0.31010  Biso   1.000  H
  C11      1.0000 0.17310  0.31460  0.21150  Biso   1.000  C
  H7       1.0000 0.16860  0.31940  0.18660  Biso   1.000  H
  C12      1.0000 0.15920  0.26400  0.26390  Biso   1.000  C
  H8       1.0000 0.14630  0.23370  0.27480  Biso   1.000  H
  C13      1.0000 0.20490  0.34660  0.26933  Biso   1.000  C
  C14      1.0000 0.04750  0.11210  0.01893  Biso   1.000  C
  H9       1.0000 0.02830  0.08530  0.03140  Biso   1.000  H
  C15      1.0000 0.13430  0.95830  0.01890  Biso   1.000  C
  H10      1.0000 0.10220  0.97540  0.03150  Biso   1.000  H
  C16      1.0000 0.22760  0.90380  0.01910  Biso   1.000  C
  H11      1.0000 0.25790  0.88450  0.03160  Biso   1.000  H
  C17      1.0000 0.07550  0.15110  0.03780  Biso   1.000  C
  C18      1.0000 0.23390  0.38650  0.29311  Biso   1.000  C
  C19      1.0000 0.89340  0.13720  0.19970  Biso   1.000  C
  H12      1.0000 0.86360  0.13900  0.21860  Biso   1.000  H
  C20      1.0000 0.07750  0.15120  0.07860  Biso   1.000  C
  C21      1.0000 0.10630  0.18820  0.01990  Biso   1.000  C
  H13      1.0000 0.12760  0.21380  0.03250  Biso   1.000  H
  Cd3      1.0000 0.70251  0.43940  0.15126  Biso   1.000  Cd
  Cd4      1.0000 0.57923  0.66344  0.15047  Biso   1.000  Cd
  O10      1.0000 0.59830  0.69111  0.21922  Biso   1.000  O
  O11      1.0000 0.76800  0.92155  0.27900  Biso   1.000  O
  N7       1.0000 0.62690  0.59310  0.16985  Biso   1.000  N
  O12      1.0000 0.72650  0.88210  0.32668  Biso   1.000  O
  N8       1.0000 0.38210  0.61220  0.16836  Biso   1.000  N
  N9       1.0000 0.66210  0.51240  0.17207  Biso   1.000  N
  O13      1.0000 0.83270  0.51200  0.22122  Biso   1.000  O
  C22      1.0000 0.63360  0.54750  0.15237  Biso   1.000  C
  H14      1.0000 0.61930  0.54190  0.12880  Biso   1.000  H
  O14      1.0000 0.64670  0.46100  0.09523  Biso   1.000  O
  N10      1.0000 0.67530  0.53570  0.20465  Biso   1.000  N
  C23      1.0000 0.65340  0.76970  0.22714  Biso   1.000  C
  N11      1.0000 0.47910  0.64760  0.16843  Biso   1.000  N
  C24      1.0000 0.96660  0.49980  0.21750  Biso   1.000  C
  H15      1.0000 0.94420  0.49940  0.19570  Biso   1.000  H
  C25      1.0000 0.65350  0.58260  0.20192  Biso   1.000  C
  H16      1.0000 0.65640  0.60630  0.22060  Biso   1.000  H
  O15      1.0000 0.55250  0.61790  0.09460  Biso   1.000  O
  O16      1.0000 0.63090  0.73170  0.17069  Biso   1.000  O
  C26      1.0000 0.43640  0.62040  0.15060  Biso   1.000  C
  H17      1.0000 0.44390  0.60800  0.12740  Biso   1.000  H
  O17      1.0000 0.72890  0.40990  0.09450  Biso   1.000  O
  C27      1.0000 0.68680  0.43460  0.07849  Biso   1.000  C
  O18      1.0000 0.59700  0.68890  0.09480  Biso   1.000  O
  C28      1.0000 0.68350  0.43200  0.03800  Biso   1.000  C
  C29      1.0000 0.62600  0.72870  0.20470  Biso   1.000  C
  N12      1.0000 0.45010  0.65870  0.20103  Biso   1.000  N
  C30      1.0000 0.69970  0.85260  0.23270  Biso   1.000  C
  H18      1.0000 0.71410  0.88250  0.22190  Biso   1.000  H
  C31      1.0000 0.68400  0.80290  0.28500  Biso   1.000  C
  H19      1.0000 0.68630  0.79910  0.31010  Biso   1.000  H
  C32      1.0000 0.67310  0.81460  0.21150  Biso   1.000  C
  H20      1.0000 0.66860  0.81940  0.18660  Biso   1.000  H
  C33      1.0000 0.65920  0.76400  0.26390  Biso   1.000  C
  H21      1.0000 0.64630  0.73370  0.27480  Biso   1.000  H
  C34      1.0000 0.70490  0.84660  0.26933  Biso   1.000  C
  C35      1.0000 0.54750  0.61210  0.01893  Biso   1.000  C
  H22      1.0000 0.52830  0.58530  0.03140  Biso   1.000  H
  C36      1.0000 0.63430  0.45830  0.01890  Biso   1.000  C
  H23      1.0000 0.60220  0.47540  0.03150  Biso   1.000  H
  C37      1.0000 0.72760  0.40380  0.01910  Biso   1.000  C
  H24      1.0000 0.75790  0.38450  0.03160  Biso   1.000  H
  C38      1.0000 0.57550  0.65110  0.03780  Biso   1.000  C
  C39      1.0000 0.73390  0.88650  0.29311  Biso   1.000  C
  C40      1.0000 0.39340  0.63720  0.19970  Biso   1.000  C
  H25      1.0000 0.36360  0.63900  0.21860  Biso   1.000  H
  C41      1.0000 0.57750  0.65120  0.07860  Biso   1.000  C
  C42      1.0000 0.60630  0.68820  0.01990  Biso   1.000  C
  H26      1.0000 0.62760  0.71380  0.03250  Biso   1.000  H
  Cd5      1.0000 0.79749  0.06060  0.15126  Biso   1.000  Cd
  Cd6      1.0000 0.92077  0.83656  0.15047  Biso   1.000  Cd
  O19      1.0000 0.90170  0.80889  0.21922  Biso   1.000  O
  O20      1.0000 0.73200  0.57845  0.27900  Biso   1.000  O
  N13      1.0000 0.87310  0.90690  0.16985  Biso   1.000  N
  O21      1.0000 0.77350  0.61790  0.32668  Biso   1.000  O
  N14      1.0000 0.11790  0.88780  0.16836  Biso   1.000  N
  N15      1.0000 0.83790  0.98760  0.17207  Biso   1.000  N
  O22      1.0000 0.66730  0.98800  0.22122  Biso   1.000  O
  C43      1.0000 0.86640  0.95250  0.15237  Biso   1.000  C
  H27      1.0000 0.88070  0.95810  0.12880  Biso   1.000  H
  O23      1.0000 0.85330  0.03900  0.09523  Biso   1.000  O
  N16      1.0000 0.82470  0.96430  0.20465  Biso   1.000  N
  C44      1.0000 0.84660  0.73030  0.22714  Biso   1.000  C
  N17      1.0000 0.02090  0.85240  0.16843  Biso   1.000  N
  C45      1.0000 0.53340  0.00020  0.21750  Biso   1.000  C
  H28      1.0000 0.55580  0.00060  0.19570  Biso   1.000  H
  C46      1.0000 0.84650  0.91740  0.20192  Biso   1.000  C
  H29      1.0000 0.84360  0.89370  0.22060  Biso   1.000  H
  O24      1.0000 0.94750  0.88210  0.09460  Biso   1.000  O
  O25      1.0000 0.86910  0.76830  0.17069  Biso   1.000  O
  C47      1.0000 0.06360  0.87960  0.15060  Biso   1.000  C
  H30      1.0000 0.05610  0.89200  0.12740  Biso   1.000  H
  O26      1.0000 0.77110  0.09010  0.09450  Biso   1.000  O
  C48      1.0000 0.81320  0.06540  0.07849  Biso   1.000  C
  O27      1.0000 0.90300  0.81110  0.09480  Biso   1.000  O
  C49      1.0000 0.81650  0.06800  0.03800  Biso   1.000  C
  C50      1.0000 0.87400  0.77130  0.20470  Biso   1.000  C
  N18      1.0000 0.04990  0.84130  0.20103  Biso   1.000  N
  C51      1.0000 0.80030  0.64740  0.23270  Biso   1.000  C
  H31      1.0000 0.78590  0.61750  0.22190  Biso   1.000  H
  C52      1.0000 0.81600  0.69710  0.28500  Biso   1.000  C
  H32      1.0000 0.81370  0.70090  0.31010  Biso   1.000  H
  C53      1.0000 0.82690  0.68540  0.21150  Biso   1.000  C
  H33      1.0000 0.83140  0.68060  0.18660  Biso   1.000  H
  C54      1.0000 0.84080  0.73600  0.26390  Biso   1.000  C
  H34      1.0000 0.85370  0.76630  0.27480  Biso   1.000  H
  C55      1.0000 0.79510  0.65340  0.26933  Biso   1.000  C
  C56      1.0000 0.95250  0.88790  0.01893  Biso   1.000  C
  H35      1.0000 0.97170  0.91470  0.03140  Biso   1.000  H
  C57      1.0000 0.86570  0.04170  0.01890  Biso   1.000  C
  H36      1.0000 0.89780  0.02460  0.03150  Biso   1.000  H
  C58      1.0000 0.77240  0.09620  0.01910  Biso   1.000  C
  H37      1.0000 0.74210  0.11550  0.03160  Biso   1.000  H
  C59      1.0000 0.92450  0.84890  0.03780  Biso   1.000  C
  C60      1.0000 0.76610  0.61350  0.29311  Biso   1.000  C
  C61      1.0000 0.10660  0.86280  0.19970  Biso   1.000  C
  H38      1.0000 0.13640  0.86100  0.21860  Biso   1.000  H
  C62      1.0000 0.92250  0.84880  0.07860  Biso   1.000  C
  C63      1.0000 0.89370  0.81180  0.01990  Biso   1.000  C
  H39      1.0000 0.87240  0.78620  0.03250  Biso   1.000  H
  Cd7      1.0000 0.29749  0.56060  0.15126  Biso   1.000  Cd
  Cd8      1.0000 0.42077  0.33656  0.15047  Biso   1.000  Cd
  O28      1.0000 0.40170  0.30889  0.21922  Biso   1.000  O
  O29      1.0000 0.23200  0.07845  0.27900  Biso   1.000  O
  N19      1.0000 0.37310  0.40690  0.16985  Biso   1.000  N
  O30      1.0000 0.27350  0.11790  0.32668  Biso   1.000  O
  N20      1.0000 0.61790  0.38780  0.16836  Biso   1.000  N
  N21      1.0000 0.33790  0.48760  0.17207  Biso   1.000  N
  O31      1.0000 0.16730  0.48800  0.22122  Biso   1.000  O
  C64      1.0000 0.36640  0.45250  0.15237  Biso   1.000  C
  H40      1.0000 0.38070  0.45810  0.12880  Biso   1.000  H
  O32      1.0000 0.35330  0.53900  0.09523  Biso   1.000  O
  N22      1.0000 0.32470  0.46430  0.20465  Biso   1.000  N
  C65      1.0000 0.34660  0.23030  0.22714  Biso   1.000  C
  N23      1.0000 0.52090  0.35240  0.16843  Biso   1.000  N
  C66      1.0000 0.03340  0.50020  0.21750  Biso   1.000  C
  H41      1.0000 0.05580  0.50060  0.19570  Biso   1.000  H
  C67      1.0000 0.34650  0.41740  0.20192  Biso   1.000  C
  H42      1.0000 0.34360  0.39370  0.22060  Biso   1.000  H
  O33      1.0000 0.44750  0.38210  0.09460  Biso   1.000  O
  O34      1.0000 0.36910  0.26830  0.17069  Biso   1.000  O
  C68      1.0000 0.56360  0.37960  0.15060  Biso   1.000  C
  H43      1.0000 0.55610  0.39200  0.12740  Biso   1.000  H
  O35      1.0000 0.27110  0.59010  0.09450  Biso   1.000  O
  C69      1.0000 0.31320  0.56540  0.07849  Biso   1.000  C
  O36      1.0000 0.40300  0.31110  0.09480  Biso   1.000  O
  C70      1.0000 0.31650  0.56800  0.03800  Biso   1.000  C
  C71      1.0000 0.37400  0.27130  0.20470  Biso   1.000  C
  N24      1.0000 0.54990  0.34130  0.20103  Biso   1.000  N
  C72      1.0000 0.30030  0.14740  0.23270  Biso   1.000  C
  H44      1.0000 0.28590  0.11750  0.22190  Biso   1.000  H
  C73      1.0000 0.31600  0.19710  0.28500  Biso   1.000  C
  H45      1.0000 0.31370  0.20090  0.31010  Biso   1.000  H
  C74      1.0000 0.32690  0.18540  0.21150  Biso   1.000  C
  H46      1.0000 0.33140  0.18060  0.18660  Biso   1.000  H
  C75      1.0000 0.34080  0.23600  0.26390  Biso   1.000  C
  H47      1.0000 0.35370  0.26630  0.27480  Biso   1.000  H
  C76      1.0000 0.29510  0.15340  0.26933  Biso   1.000  C
  C77      1.0000 0.45250  0.38790  0.01893  Biso   1.000  C
  H48      1.0000 0.47170  0.41470  0.03140  Biso   1.000  H
  C78      1.0000 0.36570  0.54170  0.01890  Biso   1.000  C
  H49      1.0000 0.39780  0.52460  0.03150  Biso   1.000  H
  C79      1.0000 0.27240  0.59620  0.01910  Biso   1.000  C
  H50      1.0000 0.24210  0.61550  0.03160  Biso   1.000  H
  C80      1.0000 0.42450  0.34890  0.03780  Biso   1.000  C
  C81      1.0000 0.26610  0.11350  0.29311  Biso   1.000  C
  C82      1.0000 0.60660  0.36280  0.19970  Biso   1.000  C
  H51      1.0000 0.63640  0.36100  0.21860  Biso   1.000  H
  C83      1.0000 0.42250  0.34880  0.07860  Biso   1.000  C
  C84      1.0000 0.39370  0.31180  0.01990  Biso   1.000  C
  H52      1.0000 0.37240  0.28620  0.03250  Biso   1.000  H
  Cd9      1.0000 0.79749  0.93940  0.34874  Biso   1.000  Cd
  Cd10     1.0000 0.92077  0.16344  0.34953  Biso   1.000  Cd
  O37      1.0000 0.90170  0.19111  0.28078  Biso   1.000  O
  O38      1.0000 0.73200  0.42155  0.22100  Biso   1.000  O
  N25      1.0000 0.87310  0.09310  0.33015  Biso   1.000  N
  O39      1.0000 0.77350  0.38210  0.17332  Biso   1.000  O
  N26      1.0000 0.11790  0.11220  0.33164  Biso   1.000  N
  N27      1.0000 0.83790  0.01240  0.32793  Biso   1.000  N
  O40      1.0000 0.66730  0.01200  0.27878  Biso   1.000  O
  C85      1.0000 0.86640  0.04750  0.34763  Biso   1.000  C
  H53      1.0000 0.88070  0.04190  0.37120  Biso   1.000  H
  O41      1.0000 0.85330  0.96100  0.40477  Biso   1.000  O
  N28      1.0000 0.82470  0.03570  0.29535  Biso   1.000  N
  C86      1.0000 0.84660  0.26970  0.27286  Biso   1.000  C
  N29      1.0000 0.02090  0.14760  0.33157  Biso   1.000  N
  C87      1.0000 0.53340  0.99980  0.28250  Biso   1.000  C
  H54      1.0000 0.55580  0.99940  0.30430  Biso   1.000  H
  C88      1.0000 0.84650  0.08260  0.29808  Biso   1.000  C
  H55      1.0000 0.84360  0.10630  0.27940  Biso   1.000  H
  O42      1.0000 0.94750  0.11790  0.40540  Biso   1.000  O
  O43      1.0000 0.86910  0.23170  0.32931  Biso   1.000  O
  C89      1.0000 0.06360  0.12040  0.34940  Biso   1.000  C
  H56      1.0000 0.05610  0.10800  0.37260  Biso   1.000  H
  O44      1.0000 0.77110  0.90990  0.40550  Biso   1.000  O
  C90      1.0000 0.81320  0.93460  0.42151  Biso   1.000  C
  O45      1.0000 0.90300  0.18890  0.40520  Biso   1.000  O
  C91      1.0000 0.81650  0.93200  0.46200  Biso   1.000  C
  C92      1.0000 0.87400  0.22870  0.29530  Biso   1.000  C
  N30      1.0000 0.04990  0.15870  0.29897  Biso   1.000  N
  C93      1.0000 0.80030  0.35260  0.26730  Biso   1.000  C
  H57      1.0000 0.78590  0.38250  0.27810  Biso   1.000  H
  C94      1.0000 0.81600  0.30290  0.21500  Biso   1.000  C
  H58      1.0000 0.81370  0.29910  0.18990  Biso   1.000  H
  C95      1.0000 0.82690  0.31460  0.28850  Biso   1.000  C
  H59      1.0000 0.83140  0.31940  0.31340  Biso   1.000  H
  C96      1.0000 0.84080  0.26400  0.23610  Biso   1.000  C
  H60      1.0000 0.85370  0.23370  0.22520  Biso   1.000  H
  C97      1.0000 0.79510  0.34660  0.23067  Biso   1.000  C
  C98      1.0000 0.95250  0.11210  0.48107  Biso   1.000  C
  H61      1.0000 0.97170  0.08530  0.46860  Biso   1.000  H
  C99      1.0000 0.86570  0.95830  0.48110  Biso   1.000  C
  H62      1.0000 0.89780  0.97540  0.46850  Biso   1.000  H
  C100     1.0000 0.77240  0.90380  0.48090  Biso   1.000  C
  H63      1.0000 0.74210  0.88450  0.46840  Biso   1.000  H
  C101     1.0000 0.92450  0.15110  0.46220  Biso   1.000  C
  C102     1.0000 0.76610  0.38650  0.20689  Biso   1.000  C
  C103     1.0000 0.10660  0.13720  0.30030  Biso   1.000  C
  H64      1.0000 0.13640  0.13900  0.28140  Biso   1.000  H
  C104     1.0000 0.92250  0.15120  0.42140  Biso   1.000  C
  C105     1.0000 0.89370  0.18820  0.48010  Biso   1.000  C
  H65      1.0000 0.87240  0.21380  0.46750  Biso   1.000  H
  Cd11     1.0000 0.29749  0.43940  0.34874  Biso   1.000  Cd
  Cd12     1.0000 0.42077  0.66344  0.34953  Biso   1.000  Cd
  O46      1.0000 0.40170  0.69111  0.28078  Biso   1.000  O
  O47      1.0000 0.23200  0.92155  0.22100  Biso   1.000  O
  N31      1.0000 0.37310  0.59310  0.33015  Biso   1.000  N
  O48      1.0000 0.27350  0.88210  0.17332  Biso   1.000  O
  N32      1.0000 0.61790  0.61220  0.33164  Biso   1.000  N
  N33      1.0000 0.33790  0.51240  0.32793  Biso   1.000  N
  O49      1.0000 0.16730  0.51200  0.27878  Biso   1.000  O
  C106     1.0000 0.36640  0.54750  0.34763  Biso   1.000  C
  H66      1.0000 0.38070  0.54190  0.37120  Biso   1.000  H
  O50      1.0000 0.35330  0.46100  0.40477  Biso   1.000  O
  N34      1.0000 0.32470  0.53570  0.29535  Biso   1.000  N
  C107     1.0000 0.34660  0.76970  0.27286  Biso   1.000  C
  N35      1.0000 0.52090  0.64760  0.33157  Biso   1.000  N
  C108     1.0000 0.03340  0.49980  0.28250  Biso   1.000  C
  H67      1.0000 0.05580  0.49940  0.30430  Biso   1.000  H
  C109     1.0000 0.34650  0.58260  0.29808  Biso   1.000  C
  H68      1.0000 0.34360  0.60630  0.27940  Biso   1.000  H
  O51      1.0000 0.44750  0.61790  0.40540  Biso   1.000  O
  O52      1.0000 0.36910  0.73170  0.32931  Biso   1.000  O
  C110     1.0000 0.56360  0.62040  0.34940  Biso   1.000  C
  H69      1.0000 0.55610  0.60800  0.37260  Biso   1.000  H
  O53      1.0000 0.27110  0.40990  0.40550  Biso   1.000  O
  C111     1.0000 0.31320  0.43460  0.42151  Biso   1.000  C
  O54      1.0000 0.40300  0.68890  0.40520  Biso   1.000  O
  C112     1.0000 0.31650  0.43200  0.46200  Biso   1.000  C
  C113     1.0000 0.37400  0.72870  0.29530  Biso   1.000  C
  N36      1.0000 0.54990  0.65870  0.29897  Biso   1.000  N
  C114     1.0000 0.30030  0.85260  0.26730  Biso   1.000  C
  H70      1.0000 0.28590  0.88250  0.27810  Biso   1.000  H
  C115     1.0000 0.31600  0.80290  0.21500  Biso   1.000  C
  H71      1.0000 0.31370  0.79910  0.18990  Biso   1.000  H
  C116     1.0000 0.32690  0.81460  0.28850  Biso   1.000  C
  H72      1.0000 0.33140  0.81940  0.31340  Biso   1.000  H
  C117     1.0000 0.34080  0.76400  0.23610  Biso   1.000  C
  H73      1.0000 0.35370  0.73370  0.22520  Biso   1.000  H
  C118     1.0000 0.29510  0.84660  0.23067  Biso   1.000  C
  C119     1.0000 0.45250  0.61210  0.48107  Biso   1.000  C
  H74      1.0000 0.47170  0.58530  0.46860  Biso   1.000  H
  C120     1.0000 0.36570  0.45830  0.48110  Biso   1.000  C
  H75      1.0000 0.39780  0.47540  0.46850  Biso   1.000  H
  C121     1.0000 0.27240  0.40380  0.48090  Biso   1.000  C
  H76      1.0000 0.24210  0.38450  0.46840  Biso   1.000  H
  C122     1.0000 0.42450  0.65110  0.46220  Biso   1.000  C
  C123     1.0000 0.26610  0.88650  0.20689  Biso   1.000  C
  C124     1.0000 0.60660  0.63720  0.30030  Biso   1.000  C
  H77      1.0000 0.63640  0.63900  0.28140  Biso   1.000  H
  C125     1.0000 0.42250  0.65120  0.42140  Biso   1.000  C
  C126     1.0000 0.39370  0.68820  0.48010  Biso   1.000  C
  H78      1.0000 0.37240  0.71380  0.46750  Biso   1.000  H
  Cd13     1.0000 0.20251  0.06060  0.34874  Biso   1.000  Cd
  Cd14     1.0000 0.07923  0.83656  0.34953  Biso   1.000  Cd
  O55      1.0000 0.09830  0.80889  0.28078  Biso   1.000  O
  O56      1.0000 0.26800  0.57845  0.22100  Biso   1.000  O
  N37      1.0000 0.12690  0.90690  0.33015  Biso   1.000  N
  O57      1.0000 0.22650  0.61790  0.17332  Biso   1.000  O
  N38      1.0000 0.88210  0.88780  0.33164  Biso   1.000  N
  N39      1.0000 0.16210  0.98760  0.32793  Biso   1.000  N
  O58      1.0000 0.33270  0.98800  0.27878  Biso   1.000  O
  C127     1.0000 0.13360  0.95250  0.34763  Biso   1.000  C
  H79      1.0000 0.11930  0.95810  0.37120  Biso   1.000  H
  O59      1.0000 0.14670  0.03900  0.40477  Biso   1.000  O
  N40      1.0000 0.17530  0.96430  0.29535  Biso   1.000  N
  C128     1.0000 0.15340  0.73030  0.27286  Biso   1.000  C
  N41      1.0000 0.97910  0.85240  0.33157  Biso   1.000  N
  C129     1.0000 0.46660  0.00020  0.28250  Biso   1.000  C
  H80      1.0000 0.44420  0.00060  0.30430  Biso   1.000  H
  C130     1.0000 0.15350  0.91740  0.29808  Biso   1.000  C
  H81      1.0000 0.15640  0.89370  0.27940  Biso   1.000  H
  O60      1.0000 0.05250  0.88210  0.40540  Biso   1.000  O
  O61      1.0000 0.13090  0.76830  0.32931  Biso   1.000  O
  C131     1.0000 0.93640  0.87960  0.34940  Biso   1.000  C
  H82      1.0000 0.94390  0.89200  0.37260  Biso   1.000  H
  O62      1.0000 0.22890  0.09010  0.40550  Biso   1.000  O
  C132     1.0000 0.18680  0.06540  0.42151  Biso   1.000  C
  O63      1.0000 0.09700  0.81110  0.40520  Biso   1.000  O
  C133     1.0000 0.18350  0.06800  0.46200  Biso   1.000  C
  C134     1.0000 0.12600  0.77130  0.29530  Biso   1.000  C
  N42      1.0000 0.95010  0.84130  0.29897  Biso   1.000  N
  C135     1.0000 0.19970  0.64740  0.26730  Biso   1.000  C
  H83      1.0000 0.21410  0.61750  0.27810  Biso   1.000  H
  C136     1.0000 0.18400  0.69710  0.21500  Biso   1.000  C
  H84      1.0000 0.18630  0.70090  0.18990  Biso   1.000  H
  C137     1.0000 0.17310  0.68540  0.28850  Biso   1.000  C
  H85      1.0000 0.16860  0.68060  0.31340  Biso   1.000  H
  C138     1.0000 0.15920  0.73600  0.23610  Biso   1.000  C
  H86      1.0000 0.14630  0.76630  0.22520  Biso   1.000  H
  C139     1.0000 0.20490  0.65340  0.23067  Biso   1.000  C
  C140     1.0000 0.04750  0.88790  0.48107  Biso   1.000  C
  H87      1.0000 0.02830  0.91470  0.46860  Biso   1.000  H
  C141     1.0000 0.13430  0.04170  0.48110  Biso   1.000  C
  H88      1.0000 0.10220  0.02460  0.46850  Biso   1.000  H
  C142     1.0000 0.22760  0.09620  0.48090  Biso   1.000  C
  H89      1.0000 0.25790  0.11550  0.46840  Biso   1.000  H
  C143     1.0000 0.07550  0.84890  0.46220  Biso   1.000  C
  C144     1.0000 0.23390  0.61350  0.20689  Biso   1.000  C
  C145     1.0000 0.89340  0.86280  0.30030  Biso   1.000  C
  H90      1.0000 0.86360  0.86100  0.28140  Biso   1.000  H
  C146     1.0000 0.07750  0.84880  0.42140  Biso   1.000  C
  C147     1.0000 0.10630  0.81180  0.48010  Biso   1.000  C
  H91      1.0000 0.12760  0.78620  0.46750  Biso   1.000  H
  Cd15     1.0000 0.70251  0.56060  0.34874  Biso   1.000  Cd
  Cd16     1.0000 0.57923  0.33656  0.34953  Biso   1.000  Cd
  O64      1.0000 0.59830  0.30889  0.28078  Biso   1.000  O
  O65      1.0000 0.76800  0.07845  0.22100  Biso   1.000  O
  N43      1.0000 0.62690  0.40690  0.33015  Biso   1.000  N
  O66      1.0000 0.72650  0.11790  0.17332  Biso   1.000  O
  N44      1.0000 0.38210  0.38780  0.33164  Biso   1.000  N
  N45      1.0000 0.66210  0.48760  0.32793  Biso   1.000  N
  O67      1.0000 0.83270  0.48800  0.27878  Biso   1.000  O
  C148     1.0000 0.63360  0.45250  0.34763  Biso   1.000  C
  H92      1.0000 0.61930  0.45810  0.37120  Biso   1.000  H
  O68      1.0000 0.64670  0.53900  0.40477  Biso   1.000  O
  N46      1.0000 0.67530  0.46430  0.29535  Biso   1.000  N
  C149     1.0000 0.65340  0.23030  0.27286  Biso   1.000  C
  N47      1.0000 0.47910  0.35240  0.33157  Biso   1.000  N
  C150     1.0000 0.96660  0.50020  0.28250  Biso   1.000  C
  H93      1.0000 0.94420  0.50060  0.30430  Biso   1.000  H
  C151     1.0000 0.65350  0.41740  0.29808  Biso   1.000  C
  H94      1.0000 0.65640  0.39370  0.27940  Biso   1.000  H
  O69      1.0000 0.55250  0.38210  0.40540  Biso   1.000  O
  O70      1.0000 0.63090  0.26830  0.32931  Biso   1.000  O
  C152     1.0000 0.43640  0.37960  0.34940  Biso   1.000  C
  H95      1.0000 0.44390  0.39200  0.37260  Biso   1.000  H
  O71      1.0000 0.72890  0.59010  0.40550  Biso   1.000  O
  C153     1.0000 0.68680  0.56540  0.42151  Biso   1.000  C
  O72      1.0000 0.59700  0.31110  0.40520  Biso   1.000  O
  C154     1.0000 0.68350  0.56800  0.46200  Biso   1.000  C
  C155     1.0000 0.62600  0.27130  0.29530  Biso   1.000  C
  N48      1.0000 0.45010  0.34130  0.29897  Biso   1.000  N
  C156     1.0000 0.69970  0.14740  0.26730  Biso   1.000  C
  H96      1.0000 0.71410  0.11750  0.27810  Biso   1.000  H
  C157     1.0000 0.68400  0.19710  0.21500  Biso   1.000  C
  H97      1.0000 0.68630  0.20090  0.18990  Biso   1.000  H
  C158     1.0000 0.67310  0.18540  0.28850  Biso   1.000  C
  H98      1.0000 0.66860  0.18060  0.31340  Biso   1.000  H
  C159     1.0000 0.65920  0.23600  0.23610  Biso   1.000  C
  H99      1.0000 0.64630  0.26630  0.22520  Biso   1.000  H
  C160     1.0000 0.70490  0.15340  0.23067  Biso   1.000  C
  C161     1.0000 0.54750  0.38790  0.48107  Biso   1.000  C
  H100     1.0000 0.52830  0.41470  0.46860  Biso   1.000  H
  C162     1.0000 0.63430  0.54170  0.48110  Biso   1.000  C
  H101     1.0000 0.60220  0.52460  0.46850  Biso   1.000  H
  C163     1.0000 0.72760  0.59620  0.48090  Biso   1.000  C
  H102     1.0000 0.75790  0.61550  0.46840  Biso   1.000  H
  C164     1.0000 0.57550  0.34890  0.46220  Biso   1.000  C
  C165     1.0000 0.73390  0.11350  0.20689  Biso   1.000  C
  C166     1.0000 0.39340  0.36280  0.30030  Biso   1.000  C
  H103     1.0000 0.36360  0.36100  0.28140  Biso   1.000  H
  C167     1.0000 0.57750  0.34880  0.42140  Biso   1.000  C
  C168     1.0000 0.60630  0.31180  0.48010  Biso   1.000  C
  H104     1.0000 0.62760  0.28620  0.46750  Biso   1.000  H
  Cd17     1.0000 0.79749  0.06060  0.84874  Biso   1.000  Cd
  Cd18     1.0000 0.92077  0.83656  0.84953  Biso   1.000  Cd
  O73      1.0000 0.90170  0.80889  0.78078  Biso   1.000  O
  O74      1.0000 0.73200  0.57845  0.72100  Biso   1.000  O
  N49      1.0000 0.87310  0.90690  0.83015  Biso   1.000  N
  O75      1.0000 0.77350  0.61790  0.67332  Biso   1.000  O
  N50      1.0000 0.11790  0.88780  0.83164  Biso   1.000  N
  N51      1.0000 0.83790  0.98760  0.82793  Biso   1.000  N
  O76      1.0000 0.66730  0.98800  0.77878  Biso   1.000  O
  C169     1.0000 0.86640  0.95250  0.84763  Biso   1.000  C
  H105     1.0000 0.88070  0.95810  0.87120  Biso   1.000  H
  O77      1.0000 0.85330  0.03900  0.90477  Biso   1.000  O
  N52      1.0000 0.82470  0.96430  0.79535  Biso   1.000  N
  C170     1.0000 0.84660  0.73030  0.77286  Biso   1.000  C
  N53      1.0000 0.02090  0.85240  0.83157  Biso   1.000  N
  C171     1.0000 0.53340  0.00020  0.78250  Biso   1.000  C
  H106     1.0000 0.55580  0.00060  0.80430  Biso   1.000  H
  C172     1.0000 0.84650  0.91740  0.79808  Biso   1.000  C
  H107     1.0000 0.84360  0.89370  0.77940  Biso   1.000  H
  O78      1.0000 0.94750  0.88210  0.90540  Biso   1.000  O
  O79      1.0000 0.86910  0.76830  0.82931  Biso   1.000  O
  C173     1.0000 0.06360  0.87960  0.84940  Biso   1.000  C
  H108     1.0000 0.05610  0.89200  0.87260  Biso   1.000  H
  O80      1.0000 0.77110  0.09010  0.90550  Biso   1.000  O
  C174     1.0000 0.81320  0.06540  0.92151  Biso   1.000  C
  O81      1.0000 0.90300  0.81110  0.90520  Biso   1.000  O
  C175     1.0000 0.81650  0.06800  0.96200  Biso   1.000  C
  C176     1.0000 0.87400  0.77130  0.79530  Biso   1.000  C
  N54      1.0000 0.04990  0.84130  0.79897  Biso   1.000  N
  C177     1.0000 0.80030  0.64740  0.76730  Biso   1.000  C
  H109     1.0000 0.78590  0.61750  0.77810  Biso   1.000  H
  C178     1.0000 0.81600  0.69710  0.71500  Biso   1.000  C
  H110     1.0000 0.81370  0.70090  0.68990  Biso   1.000  H
  C179     1.0000 0.82690  0.68540  0.78850  Biso   1.000  C
  H111     1.0000 0.83140  0.68060  0.81340  Biso   1.000  H
  C180     1.0000 0.84080  0.73600  0.73610  Biso   1.000  C
  H112     1.0000 0.85370  0.76630  0.72520  Biso   1.000  H
  C181     1.0000 0.79510  0.65340  0.73067  Biso   1.000  C
  C182     1.0000 0.95250  0.88790  0.98107  Biso   1.000  C
  H113     1.0000 0.97170  0.91470  0.96860  Biso   1.000  H
  C183     1.0000 0.86570  0.04170  0.98110  Biso   1.000  C
  H114     1.0000 0.89780  0.02460  0.96850  Biso   1.000  H
  C184     1.0000 0.77240  0.09620  0.98090  Biso   1.000  C
  H115     1.0000 0.74210  0.11550  0.96840  Biso   1.000  H
  C185     1.0000 0.92450  0.84890  0.96220  Biso   1.000  C
  C186     1.0000 0.76610  0.61350  0.70689  Biso   1.000  C
  C187     1.0000 0.10660  0.86280  0.80030  Biso   1.000  C
  H116     1.0000 0.13640  0.86100  0.78140  Biso   1.000  H
  C188     1.0000 0.92250  0.84880  0.92140  Biso   1.000  C
  C189     1.0000 0.89370  0.81180  0.98010  Biso   1.000  C
  H117     1.0000 0.87240  0.78620  0.96750  Biso   1.000  H
  Cd19     1.0000 0.29749  0.56060  0.84874  Biso   1.000  Cd
  Cd20     1.0000 0.42077  0.33656  0.84953  Biso   1.000  Cd
  O82      1.0000 0.40170  0.30889  0.78078  Biso   1.000  O
  O83      1.0000 0.23200  0.07845  0.72100  Biso   1.000  O
  N55      1.0000 0.37310  0.40690  0.83015  Biso   1.000  N
  O84      1.0000 0.27350  0.11790  0.67332  Biso   1.000  O
  N56      1.0000 0.61790  0.38780  0.83164  Biso   1.000  N
  N57      1.0000 0.33790  0.48760  0.82793  Biso   1.000  N
  O85      1.0000 0.16730  0.48800  0.77878  Biso   1.000  O
  C190     1.0000 0.36640  0.45250  0.84763  Biso   1.000  C
  H118     1.0000 0.38070  0.45810  0.87120  Biso   1.000  H
  O86      1.0000 0.35330  0.53900  0.90477  Biso   1.000  O
  N58      1.0000 0.32470  0.46430  0.79535  Biso   1.000  N
  C191     1.0000 0.34660  0.23030  0.77286  Biso   1.000  C
  N59      1.0000 0.52090  0.35240  0.83157  Biso   1.000  N
  C192     1.0000 0.03340  0.50020  0.78250  Biso   1.000  C
  H119     1.0000 0.05580  0.50060  0.80430  Biso   1.000  H
  C193     1.0000 0.34650  0.41740  0.79808  Biso   1.000  C
  H120     1.0000 0.34360  0.39370  0.77940  Biso   1.000  H
  O87      1.0000 0.44750  0.38210  0.90540  Biso   1.000  O
  O88      1.0000 0.36910  0.26830  0.82931  Biso   1.000  O
  C194     1.0000 0.56360  0.37960  0.84940  Biso   1.000  C
  H121     1.0000 0.55610  0.39200  0.87260  Biso   1.000  H
  O89      1.0000 0.27110  0.59010  0.90550  Biso   1.000  O
  C195     1.0000 0.31320  0.56540  0.92151  Biso   1.000  C
  O90      1.0000 0.40300  0.31110  0.90520  Biso   1.000  O
  C196     1.0000 0.31650  0.56800  0.96200  Biso   1.000  C
  C197     1.0000 0.37400  0.27130  0.79530  Biso   1.000  C
  N60      1.0000 0.54990  0.34130  0.79897  Biso   1.000  N
  C198     1.0000 0.30030  0.14740  0.76730  Biso   1.000  C
  H122     1.0000 0.28590  0.11750  0.77810  Biso   1.000  H
  C199     1.0000 0.31600  0.19710  0.71500  Biso   1.000  C
  H123     1.0000 0.31370  0.20090  0.68990  Biso   1.000  H
  C200     1.0000 0.32690  0.18540  0.78850  Biso   1.000  C
  H124     1.0000 0.33140  0.18060  0.81340  Biso   1.000  H
  C201     1.0000 0.34080  0.23600  0.73610  Biso   1.000  C
  H125     1.0000 0.35370  0.26630  0.72520  Biso   1.000  H
  C202     1.0000 0.29510  0.15340  0.73067  Biso   1.000  C
  C203     1.0000 0.45250  0.38790  0.98107  Biso   1.000  C
  H126     1.0000 0.47170  0.41470  0.96860  Biso   1.000  H
  C204     1.0000 0.36570  0.54170  0.98110  Biso   1.000  C
  H127     1.0000 0.39780  0.52460  0.96850  Biso   1.000  H
  C205     1.0000 0.27240  0.59620  0.98090  Biso   1.000  C
  H128     1.0000 0.24210  0.61550  0.96840  Biso   1.000  H
  C206     1.0000 0.42450  0.34890  0.96220  Biso   1.000  C
  C207     1.0000 0.26610  0.11350  0.70689  Biso   1.000  C
  C208     1.0000 0.60660  0.36280  0.80030  Biso   1.000  C
  H129     1.0000 0.63640  0.36100  0.78140  Biso   1.000  H
  C209     1.0000 0.42250  0.34880  0.92140  Biso   1.000  C
  C210     1.0000 0.39370  0.31180  0.98010  Biso   1.000  C
  H130     1.0000 0.37240  0.28620  0.96750  Biso   1.000  H
  Cd21     1.0000 0.20251  0.93940  0.84874  Biso   1.000  Cd
  Cd22     1.0000 0.07923  0.16344  0.84953  Biso   1.000  Cd
  O91      1.0000 0.09830  0.19111  0.78078  Biso   1.000  O
  O92      1.0000 0.26800  0.42155  0.72100  Biso   1.000  O
  N61      1.0000 0.12690  0.09310  0.83015  Biso   1.000  N
  O93      1.0000 0.22650  0.38210  0.67332  Biso   1.000  O
  N62      1.0000 0.88210  0.11220  0.83164  Biso   1.000  N
  N63      1.0000 0.16210  0.01240  0.82793  Biso   1.000  N
  O94      1.0000 0.33270  0.01200  0.77878  Biso   1.000  O
  C211     1.0000 0.13360  0.04750  0.84763  Biso   1.000  C
  H131     1.0000 0.11930  0.04190  0.87120  Biso   1.000  H
  O95      1.0000 0.14670  0.96100  0.90477  Biso   1.000  O
  N64      1.0000 0.17530  0.03570  0.79535  Biso   1.000  N
  C212     1.0000 0.15340  0.26970  0.77286  Biso   1.000  C
  N65      1.0000 0.97910  0.14760  0.83157  Biso   1.000  N
  C213     1.0000 0.46660  0.99980  0.78250  Biso   1.000  C
  H132     1.0000 0.44420  0.99940  0.80430  Biso   1.000  H
  C214     1.0000 0.15350  0.08260  0.79808  Biso   1.000  C
  H133     1.0000 0.15640  0.10630  0.77940  Biso   1.000  H
  O96      1.0000 0.05250  0.11790  0.90540  Biso   1.000  O
  O97      1.0000 0.13090  0.23170  0.82931  Biso   1.000  O
  C215     1.0000 0.93640  0.12040  0.84940  Biso   1.000  C
  H134     1.0000 0.94390  0.10800  0.87260  Biso   1.000  H
  O98      1.0000 0.22890  0.90990  0.90550  Biso   1.000  O
  C216     1.0000 0.18680  0.93460  0.92151  Biso   1.000  C
  O99      1.0000 0.09700  0.18890  0.90520  Biso   1.000  O
  C217     1.0000 0.18350  0.93200  0.96200  Biso   1.000  C
  C218     1.0000 0.12600  0.22870  0.79530  Biso   1.000  C
  N66      1.0000 0.95010  0.15870  0.79897  Biso   1.000  N
  C219     1.0000 0.19970  0.35260  0.76730  Biso   1.000  C
  H135     1.0000 0.21410  0.38250  0.77810  Biso   1.000  H
  C220     1.0000 0.18400  0.30290  0.71500  Biso   1.000  C
  H136     1.0000 0.18630  0.29910  0.68990  Biso   1.000  H
  C221     1.0000 0.17310  0.31460  0.78850  Biso   1.000  C
  H137     1.0000 0.16860  0.31940  0.81340  Biso   1.000  H
  C222     1.0000 0.15920  0.26400  0.73610  Biso   1.000  C
  H138     1.0000 0.14630  0.23370  0.72520  Biso   1.000  H
  C223     1.0000 0.20490  0.34660  0.73067  Biso   1.000  C
  C224     1.0000 0.04750  0.11210  0.98107  Biso   1.000  C
  H139     1.0000 0.02830  0.08530  0.96860  Biso   1.000  H
  C225     1.0000 0.13430  0.95830  0.98110  Biso   1.000  C
  H140     1.0000 0.10220  0.97540  0.96850  Biso   1.000  H
  C226     1.0000 0.22760  0.90380  0.98090  Biso   1.000  C
  H141     1.0000 0.25790  0.88450  0.96840  Biso   1.000  H
  C227     1.0000 0.07550  0.15110  0.96220  Biso   1.000  C
  C228     1.0000 0.23390  0.38650  0.70689  Biso   1.000  C
  C229     1.0000 0.89340  0.13720  0.80030  Biso   1.000  C
  H142     1.0000 0.86360  0.13900  0.78140  Biso   1.000  H
  C230     1.0000 0.07750  0.15120  0.92140  Biso   1.000  C
  C231     1.0000 0.10630  0.18820  0.98010  Biso   1.000  C
  H143     1.0000 0.12760  0.21380  0.96750  Biso   1.000  H
  Cd23     1.0000 0.70251  0.43940  0.84874  Biso   1.000  Cd
  Cd24     1.0000 0.57923  0.66344  0.84953  Biso   1.000  Cd
  O100     1.0000 0.59830  0.69111  0.78078  Biso   1.000  O
  O101     1.0000 0.76800  0.92155  0.72100  Biso   1.000  O
  N67      1.0000 0.62690  0.59310  0.83015  Biso   1.000  N
  O102     1.0000 0.72650  0.88210  0.67332  Biso   1.000  O
  N68      1.0000 0.38210  0.61220  0.83164  Biso   1.000  N
  N69      1.0000 0.66210  0.51240  0.82793  Biso   1.000  N
  O103     1.0000 0.83270  0.51200  0.77878  Biso   1.000  O
  C232     1.0000 0.63360  0.54750  0.84763  Biso   1.000  C
  H144     1.0000 0.61930  0.54190  0.87120  Biso   1.000  H
  O104     1.0000 0.64670  0.46100  0.90477  Biso   1.000  O
  N70      1.0000 0.67530  0.53570  0.79535  Biso   1.000  N
  C233     1.0000 0.65340  0.76970  0.77286  Biso   1.000  C
  N71      1.0000 0.47910  0.64760  0.83157  Biso   1.000  N
  C234     1.0000 0.96660  0.49980  0.78250  Biso   1.000  C
  H145     1.0000 0.94420  0.49940  0.80430  Biso   1.000  H
  C235     1.0000 0.65350  0.58260  0.79808  Biso   1.000  C
  H146     1.0000 0.65640  0.60630  0.77940  Biso   1.000  H
  O105     1.0000 0.55250  0.61790  0.90540  Biso   1.000  O
  O106     1.0000 0.63090  0.73170  0.82931  Biso   1.000  O
  C236     1.0000 0.43640  0.62040  0.84940  Biso   1.000  C
  H147     1.0000 0.44390  0.60800  0.87260  Biso   1.000  H
  O107     1.0000 0.72890  0.40990  0.90550  Biso   1.000  O
  C237     1.0000 0.68680  0.43460  0.92151  Biso   1.000  C
  O108     1.0000 0.59700  0.68890  0.90520  Biso   1.000  O
  C238     1.0000 0.68350  0.43200  0.96200  Biso   1.000  C
  C239     1.0000 0.62600  0.72870  0.79530  Biso   1.000  C
  N72      1.0000 0.45010  0.65870  0.79897  Biso   1.000  N
  C240     1.0000 0.69970  0.85260  0.76730  Biso   1.000  C
  H148     1.0000 0.71410  0.88250  0.77810  Biso   1.000  H
  C241     1.0000 0.68400  0.80290  0.71500  Biso   1.000  C
  H149     1.0000 0.68630  0.79910  0.68990  Biso   1.000  H
  C242     1.0000 0.67310  0.81460  0.78850  Biso   1.000  C
  H150     1.0000 0.66860  0.81940  0.81340  Biso   1.000  H
  C243     1.0000 0.65920  0.76400  0.73610  Biso   1.000  C
  H151     1.0000 0.64630  0.73370  0.72520  Biso   1.000  H
  C244     1.0000 0.70490  0.84660  0.73067  Biso   1.000  C
  C245     1.0000 0.54750  0.61210  0.98107  Biso   1.000  C
  H152     1.0000 0.52830  0.58530  0.96860  Biso   1.000  H
  C246     1.0000 0.63430  0.45830  0.98110  Biso   1.000  C
  H153     1.0000 0.60220  0.47540  0.96850  Biso   1.000  H
  C247     1.0000 0.72760  0.40380  0.98090  Biso   1.000  C
  H154     1.0000 0.75790  0.38450  0.96840  Biso   1.000  H
  C248     1.0000 0.57550  0.65110  0.96220  Biso   1.000  C
  C249     1.0000 0.73390  0.88650  0.70689  Biso   1.000  C
  C250     1.0000 0.39340  0.63720  0.80030  Biso   1.000  C
  H155     1.0000 0.36360  0.63900  0.78140  Biso   1.000  H
  C251     1.0000 0.57750  0.65120  0.92140  Biso   1.000  C
  C252     1.0000 0.60630  0.68820  0.98010  Biso   1.000  C
  H156     1.0000 0.62760  0.71380  0.96750  Biso   1.000  H
  Cd25     1.0000 0.20251  0.06060  0.65126  Biso   1.000  Cd
  Cd26     1.0000 0.07923  0.83656  0.65047  Biso   1.000  Cd
  O109     1.0000 0.09830  0.80889  0.71922  Biso   1.000  O
  O110     1.0000 0.26800  0.57845  0.77900  Biso   1.000  O
  N73      1.0000 0.12690  0.90690  0.66985  Biso   1.000  N
  O111     1.0000 0.22650  0.61790  0.82668  Biso   1.000  O
  N74      1.0000 0.88210  0.88780  0.66836  Biso   1.000  N
  N75      1.0000 0.16210  0.98760  0.67207  Biso   1.000  N
  O112     1.0000 0.33270  0.98800  0.72122  Biso   1.000  O
  C253     1.0000 0.13360  0.95250  0.65237  Biso   1.000  C
  H157     1.0000 0.11930  0.95810  0.62880  Biso   1.000  H
  O113     1.0000 0.14670  0.03900  0.59523  Biso   1.000  O
  N76      1.0000 0.17530  0.96430  0.70465  Biso   1.000  N
  C254     1.0000 0.15340  0.73030  0.72714  Biso   1.000  C
  N77      1.0000 0.97910  0.85240  0.66843  Biso   1.000  N
  C255     1.0000 0.46660  0.00020  0.71750  Biso   1.000  C
  H158     1.0000 0.44420  0.00060  0.69570  Biso   1.000  H
  C256     1.0000 0.15350  0.91740  0.70192  Biso   1.000  C
  H159     1.0000 0.15640  0.89370  0.72060  Biso   1.000  H
  O114     1.0000 0.05250  0.88210  0.59460  Biso   1.000  O
  O115     1.0000 0.13090  0.76830  0.67069  Biso   1.000  O
  C257     1.0000 0.93640  0.87960  0.65060  Biso   1.000  C
  H160     1.0000 0.94390  0.89200  0.62740  Biso   1.000  H
  O116     1.0000 0.22890  0.09010  0.59450  Biso   1.000  O
  C258     1.0000 0.18680  0.06540  0.57849  Biso   1.000  C
  O117     1.0000 0.09700  0.81110  0.59480  Biso   1.000  O
  C259     1.0000 0.18350  0.06800  0.53800  Biso   1.000  C
  C260     1.0000 0.12600  0.77130  0.70470  Biso   1.000  C
  N78      1.0000 0.95010  0.84130  0.70103  Biso   1.000  N
  C261     1.0000 0.19970  0.64740  0.73270  Biso   1.000  C
  H161     1.0000 0.21410  0.61750  0.72190  Biso   1.000  H
  C262     1.0000 0.18400  0.69710  0.78500  Biso   1.000  C
  H162     1.0000 0.18630  0.70090  0.81010  Biso   1.000  H
  C263     1.0000 0.17310  0.68540  0.71150  Biso   1.000  C
  H163     1.0000 0.16860  0.68060  0.68660  Biso   1.000  H
  C264     1.0000 0.15920  0.73600  0.76390  Biso   1.000  C
  H164     1.0000 0.14630  0.76630  0.77480  Biso   1.000  H
  C265     1.0000 0.20490  0.65340  0.76933  Biso   1.000  C
  C266     1.0000 0.04750  0.88790  0.51893  Biso   1.000  C
  H165     1.0000 0.02830  0.91470  0.53140  Biso   1.000  H
  C267     1.0000 0.13430  0.04170  0.51890  Biso   1.000  C
  H166     1.0000 0.10220  0.02460  0.53150  Biso   1.000  H
  C268     1.0000 0.22760  0.09620  0.51910  Biso   1.000  C
  H167     1.0000 0.25790  0.11550  0.53160  Biso   1.000  H
  C269     1.0000 0.07550  0.84890  0.53780  Biso   1.000  C
  C270     1.0000 0.23390  0.61350  0.79311  Biso   1.000  C
  C271     1.0000 0.89340  0.86280  0.69970  Biso   1.000  C
  H168     1.0000 0.86360  0.86100  0.71860  Biso   1.000  H
  C272     1.0000 0.07750  0.84880  0.57860  Biso   1.000  C
  C273     1.0000 0.10630  0.81180  0.51990  Biso   1.000  C
  H169     1.0000 0.12760  0.78620  0.53250  Biso   1.000  H
  Cd27     1.0000 0.70251  0.56060  0.65126  Biso   1.000  Cd
  Cd28     1.0000 0.57923  0.33656  0.65047  Biso   1.000  Cd
  O118     1.0000 0.59830  0.30889  0.71922  Biso   1.000  O
  O119     1.0000 0.76800  0.07845  0.77900  Biso   1.000  O
  N79      1.0000 0.62690  0.40690  0.66985  Biso   1.000  N
  O120     1.0000 0.72650  0.11790  0.82668  Biso   1.000  O
  N80      1.0000 0.38210  0.38780  0.66836  Biso   1.000  N
  N81      1.0000 0.66210  0.48760  0.67207  Biso   1.000  N
  O121     1.0000 0.83270  0.48800  0.72122  Biso   1.000  O
  C274     1.0000 0.63360  0.45250  0.65237  Biso   1.000  C
  H170     1.0000 0.61930  0.45810  0.62880  Biso   1.000  H
  O122     1.0000 0.64670  0.53900  0.59523  Biso   1.000  O
  N82      1.0000 0.67530  0.46430  0.70465  Biso   1.000  N
  C275     1.0000 0.65340  0.23030  0.72714  Biso   1.000  C
  N83      1.0000 0.47910  0.35240  0.66843  Biso   1.000  N
  C276     1.0000 0.96660  0.50020  0.71750  Biso   1.000  C
  H171     1.0000 0.94420  0.50060  0.69570  Biso   1.000  H
  C277     1.0000 0.65350  0.41740  0.70192  Biso   1.000  C
  H172     1.0000 0.65640  0.39370  0.72060  Biso   1.000  H
  O123     1.0000 0.55250  0.38210  0.59460  Biso   1.000  O
  O124     1.0000 0.63090  0.26830  0.67069  Biso   1.000  O
  C278     1.0000 0.43640  0.37960  0.65060  Biso   1.000  C
  H173     1.0000 0.44390  0.39200  0.62740  Biso   1.000  H
  O125     1.0000 0.72890  0.59010  0.59450  Biso   1.000  O
  C279     1.0000 0.68680  0.56540  0.57849  Biso   1.000  C
  O126     1.0000 0.59700  0.31110  0.59480  Biso   1.000  O
  C280     1.0000 0.68350  0.56800  0.53800  Biso   1.000  C
  C281     1.0000 0.62600  0.27130  0.70470  Biso   1.000  C
  N84      1.0000 0.45010  0.34130  0.70103  Biso   1.000  N
  C282     1.0000 0.69970  0.14740  0.73270  Biso   1.000  C
  H174     1.0000 0.71410  0.11750  0.72190  Biso   1.000  H
  C283     1.0000 0.68400  0.19710  0.78500  Biso   1.000  C
  H175     1.0000 0.68630  0.20090  0.81010  Biso   1.000  H
  C284     1.0000 0.67310  0.18540  0.71150  Biso   1.000  C
  H176     1.0000 0.66860  0.18060  0.68660  Biso   1.000  H
  C285     1.0000 0.65920  0.23600  0.76390  Biso   1.000  C
  H177     1.0000 0.64630  0.26630  0.77480  Biso   1.000  H
  C286     1.0000 0.70490  0.15340  0.76933  Biso   1.000  C
  C287     1.0000 0.54750  0.38790  0.51893  Biso   1.000  C
  H178     1.0000 0.52830  0.41470  0.53140  Biso   1.000  H
  C288     1.0000 0.63430  0.54170  0.51890  Biso   1.000  C
  H179     1.0000 0.60220  0.52460  0.53150  Biso   1.000  H
  C289     1.0000 0.72760  0.59620  0.51910  Biso   1.000  C
  H180     1.0000 0.75790  0.61550  0.53160  Biso   1.000  H
  C290     1.0000 0.57550  0.34890  0.53780  Biso   1.000  C
  C291     1.0000 0.73390  0.11350  0.79311  Biso   1.000  C
  C292     1.0000 0.39340  0.36280  0.69970  Biso   1.000  C
  H181     1.0000 0.36360  0.36100  0.71860  Biso   1.000  H
  C293     1.0000 0.57750  0.34880  0.57860  Biso   1.000  C
  C294     1.0000 0.60630  0.31180  0.51990  Biso   1.000  C
  H182     1.0000 0.62760  0.28620  0.53250  Biso   1.000  H
  Cd29     1.0000 0.79749  0.93940  0.65126  Biso   1.000  Cd
  Cd30     1.0000 0.92077  0.16344  0.65047  Biso   1.000  Cd
  O127     1.0000 0.90170  0.19111  0.71922  Biso   1.000  O
  O128     1.0000 0.73200  0.42155  0.77900  Biso   1.000  O
  N85      1.0000 0.87310  0.09310  0.66985  Biso   1.000  N
  O129     1.0000 0.77350  0.38210  0.82668  Biso   1.000  O
  N86      1.0000 0.11790  0.11220  0.66836  Biso   1.000  N
  N87      1.0000 0.83790  0.01240  0.67207  Biso   1.000  N
  O130     1.0000 0.66730  0.01200  0.72122  Biso   1.000  O
  C295     1.0000 0.86640  0.04750  0.65237  Biso   1.000  C
  H183     1.0000 0.88070  0.04190  0.62880  Biso   1.000  H
  O131     1.0000 0.85330  0.96100  0.59523  Biso   1.000  O
  N88      1.0000 0.82470  0.03570  0.70465  Biso   1.000  N
  C296     1.0000 0.84660  0.26970  0.72714  Biso   1.000  C
  N89      1.0000 0.02090  0.14760  0.66843  Biso   1.000  N
  C297     1.0000 0.53340  0.99980  0.71750  Biso   1.000  C
  H184     1.0000 0.55580  0.99940  0.69570  Biso   1.000  H
  C298     1.0000 0.84650  0.08260  0.70192  Biso   1.000  C
  H185     1.0000 0.84360  0.10630  0.72060  Biso   1.000  H
  O132     1.0000 0.94750  0.11790  0.59460  Biso   1.000  O
  O133     1.0000 0.86910  0.23170  0.67069  Biso   1.000  O
  C299     1.0000 0.06360  0.12040  0.65060  Biso   1.000  C
  H186     1.0000 0.05610  0.10800  0.62740  Biso   1.000  H
  O134     1.0000 0.77110  0.90990  0.59450  Biso   1.000  O
  C300     1.0000 0.81320  0.93460  0.57849  Biso   1.000  C
  O135     1.0000 0.90300  0.18890  0.59480  Biso   1.000  O
  C301     1.0000 0.81650  0.93200  0.53800  Biso   1.000  C
  C302     1.0000 0.87400  0.22870  0.70470  Biso   1.000  C
  N90      1.0000 0.04990  0.15870  0.70103  Biso   1.000  N
  C303     1.0000 0.80030  0.35260  0.73270  Biso   1.000  C
  H187     1.0000 0.78590  0.38250  0.72190  Biso   1.000  H
  C304     1.0000 0.81600  0.30290  0.78500  Biso   1.000  C
  H188     1.0000 0.81370  0.29910  0.81010  Biso   1.000  H
  C305     1.0000 0.82690  0.31460  0.71150  Biso   1.000  C
  H189     1.0000 0.83140  0.31940  0.68660  Biso   1.000  H
  C306     1.0000 0.84080  0.26400  0.76390  Biso   1.000  C
  H190     1.0000 0.85370  0.23370  0.77480  Biso   1.000  H
  C307     1.0000 0.79510  0.34660  0.76933  Biso   1.000  C
  C308     1.0000 0.95250  0.11210  0.51893  Biso   1.000  C
  H191     1.0000 0.97170  0.08530  0.53140  Biso   1.000  H
  C309     1.0000 0.86570  0.95830  0.51890  Biso   1.000  C
  H192     1.0000 0.89780  0.97540  0.53150  Biso   1.000  H
  C310     1.0000 0.77240  0.90380  0.51910  Biso   1.000  C
  H193     1.0000 0.74210  0.88450  0.53160  Biso   1.000  H
  C311     1.0000 0.92450  0.15110  0.53780  Biso   1.000  C
  C312     1.0000 0.76610  0.38650  0.79311  Biso   1.000  C
  C313     1.0000 0.10660  0.13720  0.69970  Biso   1.000  C
  H194     1.0000 0.13640  0.13900  0.71860  Biso   1.000  H
  C314     1.0000 0.92250  0.15120  0.57860  Biso   1.000  C
  C315     1.0000 0.89370  0.18820  0.51990  Biso   1.000  C
  H195     1.0000 0.87240  0.21380  0.53250  Biso   1.000  H
  Cd31     1.0000 0.29749  0.43940  0.65126  Biso   1.000  Cd
  Cd32     1.0000 0.42077  0.66344  0.65047  Biso   1.000  Cd
  O136     1.0000 0.40170  0.69111  0.71922  Biso   1.000  O
  O137     1.0000 0.23200  0.92155  0.77900  Biso   1.000  O
  N91      1.0000 0.37310  0.59310  0.66985  Biso   1.000  N
  O138     1.0000 0.27350  0.88210  0.82668  Biso   1.000  O
  N92      1.0000 0.61790  0.61220  0.66836  Biso   1.000  N
  N93      1.0000 0.33790  0.51240  0.67207  Biso   1.000  N
  O139     1.0000 0.16730  0.51200  0.72122  Biso   1.000  O
  C316     1.0000 0.36640  0.54750  0.65237  Biso   1.000  C
  H196     1.0000 0.38070  0.54190  0.62880  Biso   1.000  H
  O140     1.0000 0.35330  0.46100  0.59523  Biso   1.000  O
  N94      1.0000 0.32470  0.53570  0.70465  Biso   1.000  N
  C317     1.0000 0.34660  0.76970  0.72714  Biso   1.000  C
  N95      1.0000 0.52090  0.64760  0.66843  Biso   1.000  N
  C318     1.0000 0.03340  0.49980  0.71750  Biso   1.000  C
  H197     1.0000 0.05580  0.49940  0.69570  Biso   1.000  H
  C319     1.0000 0.34650  0.58260  0.70192  Biso   1.000  C
  H198     1.0000 0.34360  0.60630  0.72060  Biso   1.000  H
  O141     1.0000 0.44750  0.61790  0.59460  Biso   1.000  O
  O142     1.0000 0.36910  0.73170  0.67069  Biso   1.000  O
  C320     1.0000 0.56360  0.62040  0.65060  Biso   1.000  C
  H199     1.0000 0.55610  0.60800  0.62740  Biso   1.000  H
  O143     1.0000 0.27110  0.40990  0.59450  Biso   1.000  O
  C321     1.0000 0.31320  0.43460  0.57849  Biso   1.000  C
  O144     1.0000 0.40300  0.68890  0.59480  Biso   1.000  O
  C322     1.0000 0.31650  0.43200  0.53800  Biso   1.000  C
  C323     1.0000 0.37400  0.72870  0.70470  Biso   1.000  C
  N96      1.0000 0.54990  0.65870  0.70103  Biso   1.000  N
  C324     1.0000 0.30030  0.85260  0.73270  Biso   1.000  C
  H200     1.0000 0.28590  0.88250  0.72190  Biso   1.000  H
  C325     1.0000 0.31600  0.80290  0.78500  Biso   1.000  C
  H201     1.0000 0.31370  0.79910  0.81010  Biso   1.000  H
  C326     1.0000 0.32690  0.81460  0.71150  Biso   1.000  C
  H202     1.0000 0.33140  0.81940  0.68660  Biso   1.000  H
  C327     1.0000 0.34080  0.76400  0.76390  Biso   1.000  C
  H203     1.0000 0.35370  0.73370  0.77480  Biso   1.000  H
  C328     1.0000 0.29510  0.84660  0.76933  Biso   1.000  C
  C329     1.0000 0.45250  0.61210  0.51893  Biso   1.000  C
  H204     1.0000 0.47170  0.58530  0.53140  Biso   1.000  H
  C330     1.0000 0.36570  0.45830  0.51890  Biso   1.000  C
  H205     1.0000 0.39780  0.47540  0.53150  Biso   1.000  H
  C331     1.0000 0.27240  0.40380  0.51910  Biso   1.000  C
  H206     1.0000 0.24210  0.38450  0.53160  Biso   1.000  H
  C332     1.0000 0.42450  0.65110  0.53780  Biso   1.000  C
  C333     1.0000 0.26610  0.88650  0.79311  Biso   1.000  C
  C334     1.0000 0.60660  0.63720  0.69970  Biso   1.000  C
  H207     1.0000 0.63640  0.63900  0.71860  Biso   1.000  H
  C335     1.0000 0.42250  0.65120  0.57860  Biso   1.000  C
  C336     1.0000 0.39370  0.68820  0.51990  Biso   1.000  C
  H208     1.0000 0.37240  0.71380  0.53250  Biso   1.000  H
  Cd33     1.0000 0.23151  0.00000  0.25000  Biso   1.000  Cd
  C337     1.0000 0.35870  0.00000  0.25000  Biso   1.000  C
  C338     1.0000 0.43310  0.00000  0.25000  Biso   1.000  C
  Cd34     1.0000 0.73151  0.50000  0.25000  Biso   1.000  Cd
  C339     1.0000 0.85870  0.50000  0.25000  Biso   1.000  C
  C340     1.0000 0.93310  0.50000  0.25000  Biso   1.000  C
  Cd35     1.0000 0.76849  0.00000  0.25000  Biso   1.000  Cd
  C341     1.0000 0.64130  0.00000  0.25000  Biso   1.000  C
  C342     1.0000 0.56690  0.00000  0.25000  Biso   1.000  C
  Cd36     1.0000 0.26849  0.50000  0.25000  Biso   1.000  Cd
  C343     1.0000 0.14130  0.50000  0.25000  Biso   1.000  C
  C344     1.0000 0.06690  0.50000  0.25000  Biso   1.000  C
  Cd37     1.0000 0.76849  0.00000  0.75000  Biso   1.000  Cd
  C345     1.0000 0.64130  0.00000  0.75000  Biso   1.000  C
  C346     1.0000 0.56690  0.00000  0.75000  Biso   1.000  C
  Cd38     1.0000 0.26849  0.50000  0.75000  Biso   1.000  Cd
  C347     1.0000 0.14130  0.50000  0.75000  Biso   1.000  C
  C348     1.0000 0.06690  0.50000  0.75000  Biso   1.000  C
  Cd39     1.0000 0.23151  0.00000  0.75000  Biso   1.000  Cd
  C349     1.0000 0.35870  0.00000  0.75000  Biso   1.000  C
  C350     1.0000 0.43310  0.00000  0.75000  Biso   1.000  C
  Cd40     1.0000 0.73151  0.50000  0.75000  Biso   1.000  Cd
  C351     1.0000 0.85870  0.50000  0.75000  Biso   1.000  C
  C352     1.0000 0.93310  0.50000  0.75000  Biso   1.000  C
  Cd41     1.0000 0.00000  0.19109  0.25000  Biso   1.000  Cd
  Cd42     1.0000 0.50000  0.69109  0.25000  Biso   1.000  Cd
  Cd43     1.0000 0.00000  0.80891  0.25000  Biso   1.000  Cd
  Cd44     1.0000 0.50000  0.30891  0.25000  Biso   1.000  Cd
  Cd45     1.0000 0.00000  0.80891  0.75000  Biso   1.000  Cd
  Cd46     1.0000 0.50000  0.30891  0.75000  Biso   1.000  Cd
  Cd47     1.0000 0.00000  0.19109  0.75000  Biso   1.000  Cd
  Cd48     1.0000 0.50000  0.69109  0.75000  Biso   1.000  Cd
