data_image0
_cell_length_a       23.452
_cell_length_b       23.452
_cell_length_c       79.27
_cell_angle_alpha    90
_cell_angle_beta     90
_cell_angle_gamma    120

_symmetry_space_group_name_H-M    "P 1"
_symmetry_int_tables_number       1

loop_
  _symmetry_equiv_pos_as_xyz
  'x, y, z'

loop_
  _atom_site_label
  _atom_site_occupancy
  _atom_site_fract_x
  _atom_site_fract_y
  _atom_site_fract_z
  _atom_site_thermal_displace_type
  _atom_site_B_iso_or_equiv
  _atom_site_type_symbol
  Zn1      1.0000 0.08258  0.07007  0.14830  Biso   1.000  Zn
  O1       1.0000 0.14249  0.13046  0.16362  Biso   1.000  O
  O2       1.0000 0.13348  0.04127  0.13449  Biso   1.000  O
  O3       1.0000 0.06305  0.11645  0.13048  Biso   1.000  O
  C1       1.0000 0.13160  0.12360  0.18000  Biso   1.000  C
  C2       1.0000 0.11080  0.98650  0.12833  Biso   1.000  C
  C3       1.0000 0.18930  0.17700  0.19070  Biso   1.000  C
  O4       1.0000 0.08000  0.08560  0.18651  Biso   1.000  O
  C4       1.0000 0.15440  0.97730  0.11512  Biso   1.000  C
  C5       1.0000 0.24650  0.21800  0.18463  Biso   1.000  C
  C6       1.0000 0.18320  0.17930  0.20767  Biso   1.000  C
  C7       1.0000 0.21910  0.02470  0.11284  Biso   1.000  C
  C8       1.0000 0.12720  0.91830  0.10539  Biso   1.000  C
  H1       1.0000 0.25360  0.21500  0.17320  Biso   1.000  H
  C9       1.0000 0.29620  0.26420  0.19359  Biso   1.000  C
  C10      1.0000 0.23330  0.22490  0.21814  Biso   1.000  C
  H2       1.0000 0.14360  0.14880  0.21260  Biso   1.000  H
  H3       1.0000 0.23950  0.06290  0.11930  Biso   1.000  H
  C11      1.0000 0.25220  0.01130  0.10013  Biso   1.000  C
  C12      1.0000 0.15990  0.91120  0.09252  Biso   1.000  C
  H4       1.0000 0.08550  0.88380  0.10810  Biso   1.000  H
  H5       1.0000 0.33550  0.29170  0.18800  Biso   1.000  H
  C13      1.0000 0.29300  0.27320  0.21017  Biso   1.000  C
  H6       1.0000 0.22810  0.22390  0.22980  Biso   1.000  H
  C14      1.0000 0.22080  0.95760  0.08934  Biso   1.000  C
  H7       1.0000 0.29720  0.03960  0.09880  Biso   1.000  H
  H8       1.0000 0.13970  0.87370  0.08580  Biso   1.000  H
  C15      1.0000 0.34640  0.32070  0.22053  Biso   1.000  C
  C16      1.0000 0.26030  0.94570  0.07615  Biso   1.000  C
  C17      1.0000 0.41110  0.33610  0.21752  Biso   1.000  C
  C18      1.0000 0.33550  0.35530  0.23356  Biso   1.000  C
  C19      1.0000 0.23880  0.88070  0.07078  Biso   1.000  C
  H9       1.0000 0.42010  0.31010  0.21030  Biso   1.000  H
  C20      1.0000 0.45820  0.38660  0.22480  Biso   1.000  C
  H10      1.0000 0.29240  0.34400  0.23620  Biso   1.000  H
  H11      1.0000 0.20110  0.84450  0.07500  Biso   1.000  H
  H12      1.0000 0.50070  0.39790  0.22160  Biso   1.000  H
  Zn2      1.0000 0.74924  0.40340  0.48163  Biso   1.000  Zn
  O5       1.0000 0.80916  0.46379  0.49695  Biso   1.000  O
  O6       1.0000 0.80015  0.37460  0.46782  Biso   1.000  O
  O7       1.0000 0.72972  0.44978  0.46381  Biso   1.000  O
  C21      1.0000 0.79827  0.45693  0.51333  Biso   1.000  C
  C22      1.0000 0.77747  0.31983  0.46166  Biso   1.000  C
  C23      1.0000 0.85597  0.51033  0.52403  Biso   1.000  C
  O8       1.0000 0.74667  0.41893  0.51984  Biso   1.000  O
  C24      1.0000 0.82107  0.31063  0.44845  Biso   1.000  C
  C25      1.0000 0.91317  0.55133  0.51796  Biso   1.000  C
  C26      1.0000 0.84987  0.51263  0.54100  Biso   1.000  C
  C27      1.0000 0.88577  0.35803  0.44617  Biso   1.000  C
  C28      1.0000 0.79387  0.25163  0.43872  Biso   1.000  C
  H13      1.0000 0.92027  0.54833  0.50653  Biso   1.000  H
  C29      1.0000 0.96287  0.59753  0.52692  Biso   1.000  C
  C30      1.0000 0.89997  0.55823  0.55147  Biso   1.000  C
  H14      1.0000 0.81027  0.48213  0.54593  Biso   1.000  H
  H15      1.0000 0.90617  0.39623  0.45263  Biso   1.000  H
  C31      1.0000 0.91887  0.34463  0.43346  Biso   1.000  C
  C32      1.0000 0.82657  0.24453  0.42585  Biso   1.000  C
  H16      1.0000 0.75217  0.21713  0.44143  Biso   1.000  H
  H17      1.0000 0.00217  0.62503  0.52133  Biso   1.000  H
  C33      1.0000 0.95967  0.60653  0.54350  Biso   1.000  C
  H18      1.0000 0.89477  0.55723  0.56313  Biso   1.000  H
  C34      1.0000 0.88747  0.29093  0.42267  Biso   1.000  C
  H19      1.0000 0.96387  0.37293  0.43213  Biso   1.000  H
  H20      1.0000 0.80637  0.20703  0.41913  Biso   1.000  H
  C35      1.0000 0.01307  0.65403  0.55386  Biso   1.000  C
  C36      1.0000 0.92697  0.27903  0.40948  Biso   1.000  C
  C37      1.0000 0.07777  0.66943  0.55085  Biso   1.000  C
  C38      1.0000 0.00217  0.68863  0.56689  Biso   1.000  C
  C39      1.0000 0.90547  0.21403  0.40411  Biso   1.000  C
  H21      1.0000 0.08677  0.64343  0.54363  Biso   1.000  H
  C40      1.0000 0.12487  0.71993  0.55813  Biso   1.000  C
  H22      1.0000 0.95907  0.67733  0.56953  Biso   1.000  H
  H23      1.0000 0.86777  0.17783  0.40833  Biso   1.000  H
  H24      1.0000 0.16737  0.73123  0.55493  Biso   1.000  H
  Zn3      1.0000 0.41591  0.73674  0.81497  Biso   1.000  Zn
  O9       1.0000 0.47582  0.79713  0.83029  Biso   1.000  O
  O10      1.0000 0.46681  0.70794  0.80116  Biso   1.000  O
  O11      1.0000 0.39638  0.78312  0.79715  Biso   1.000  O
  C41      1.0000 0.46493  0.79027  0.84667  Biso   1.000  C
  C42      1.0000 0.44413  0.65317  0.79500  Biso   1.000  C
  C43      1.0000 0.52263  0.84367  0.85737  Biso   1.000  C
  O12      1.0000 0.41333  0.75227  0.85318  Biso   1.000  O
  C44      1.0000 0.48773  0.64397  0.78179  Biso   1.000  C
  C45      1.0000 0.57983  0.88467  0.85130  Biso   1.000  C
  C46      1.0000 0.51653  0.84597  0.87434  Biso   1.000  C
  C47      1.0000 0.55243  0.69137  0.77951  Biso   1.000  C
  C48      1.0000 0.46053  0.58497  0.77206  Biso   1.000  C
  H25      1.0000 0.58693  0.88167  0.83987  Biso   1.000  H
  C49      1.0000 0.62953  0.93087  0.86026  Biso   1.000  C
  C50      1.0000 0.56663  0.89157  0.88481  Biso   1.000  C
  H26      1.0000 0.47693  0.81547  0.87927  Biso   1.000  H
  H27      1.0000 0.57283  0.72957  0.78597  Biso   1.000  H
  C51      1.0000 0.58553  0.67797  0.76680  Biso   1.000  C
  C52      1.0000 0.49323  0.57787  0.75919  Biso   1.000  C
  H28      1.0000 0.41883  0.55047  0.77477  Biso   1.000  H
  H29      1.0000 0.66883  0.95837  0.85467  Biso   1.000  H
  C53      1.0000 0.62633  0.93987  0.87684  Biso   1.000  C
  H30      1.0000 0.56143  0.89057  0.89647  Biso   1.000  H
  C54      1.0000 0.55413  0.62427  0.75601  Biso   1.000  C
  H31      1.0000 0.63053  0.70627  0.76547  Biso   1.000  H
  H32      1.0000 0.47303  0.54037  0.75247  Biso   1.000  H
  C55      1.0000 0.67973  0.98737  0.88720  Biso   1.000  C
  C56      1.0000 0.59363  0.61237  0.74282  Biso   1.000  C
  C57      1.0000 0.74443  0.00277  0.88419  Biso   1.000  C
  C58      1.0000 0.66883  0.02197  0.90023  Biso   1.000  C
  C59      1.0000 0.57213  0.54737  0.73745  Biso   1.000  C
  H33      1.0000 0.75343  0.97677  0.87697  Biso   1.000  H
  C60      1.0000 0.79153  0.05327  0.89147  Biso   1.000  C
  H34      1.0000 0.62573  0.01067  0.90287  Biso   1.000  H
  H35      1.0000 0.53443  0.51117  0.74167  Biso   1.000  H
  H36      1.0000 0.83403  0.06457  0.88827  Biso   1.000  H
  Zn4      1.0000 0.92993  0.01251  0.14830  Biso   1.000  Zn
  O13      1.0000 0.86954  0.01203  0.16362  Biso   1.000  O
  O14      1.0000 0.95873  0.09221  0.13449  Biso   1.000  O
  O15      1.0000 0.88355  0.94660  0.13048  Biso   1.000  O
  C61      1.0000 0.87640  0.00800  0.18000  Biso   1.000  C
  C62      1.0000 0.01350  0.12430  0.12833  Biso   1.000  C
  C63      1.0000 0.82300  0.01230  0.19070  Biso   1.000  C
  O16      1.0000 0.91440  0.99440  0.18651  Biso   1.000  O
  C64      1.0000 0.02270  0.17710  0.11512  Biso   1.000  C
  C65      1.0000 0.78200  0.02850  0.18463  Biso   1.000  C
  C66      1.0000 0.82070  0.00390  0.20767  Biso   1.000  C
  C67      1.0000 0.97530  0.19440  0.11284  Biso   1.000  C
  C68      1.0000 0.08170  0.20890  0.10539  Biso   1.000  C
  H37      1.0000 0.78500  0.03860  0.17320  Biso   1.000  H
  C69      1.0000 0.73580  0.03200  0.19359  Biso   1.000  C
  C70      1.0000 0.77510  0.00840  0.21814  Biso   1.000  C
  H38      1.0000 0.85120  0.99480  0.21260  Biso   1.000  H
  H39      1.0000 0.93710  0.17660  0.11930  Biso   1.000  H
  C71      1.0000 0.98870  0.24090  0.10013  Biso   1.000  C
  C72      1.0000 0.08880  0.24870  0.09252  Biso   1.000  C
  H40      1.0000 0.11620  0.20170  0.10810  Biso   1.000  H
  H41      1.0000 0.70830  0.04380  0.18800  Biso   1.000  H
  C73      1.0000 0.72680  0.01980  0.21017  Biso   1.000  C
  H42      1.0000 0.77610  0.00420  0.22980  Biso   1.000  H
  C74      1.0000 0.04240  0.26320  0.08934  Biso   1.000  C
  H43      1.0000 0.96040  0.25760  0.09880  Biso   1.000  H
  H44      1.0000 0.12630  0.26600  0.08580  Biso   1.000  H
  C75      1.0000 0.67930  0.02570  0.22053  Biso   1.000  C
  C76      1.0000 0.05430  0.31460  0.07615  Biso   1.000  C
  C77      1.0000 0.66390  0.07500  0.21752  Biso   1.000  C
  C78      1.0000 0.64470  0.98020  0.23356  Biso   1.000  C
  C79      1.0000 0.11930  0.35810  0.07078  Biso   1.000  C
  H45      1.0000 0.68990  0.11000  0.21030  Biso   1.000  H
  C80      1.0000 0.61340  0.07160  0.22480  Biso   1.000  C
  H46      1.0000 0.65600  0.94840  0.23620  Biso   1.000  H
  H47      1.0000 0.15550  0.35660  0.07500  Biso   1.000  H
  H48      1.0000 0.60210  0.10280  0.22160  Biso   1.000  H
  Zn5      1.0000 0.59660  0.34584  0.48163  Biso   1.000  Zn
  O17      1.0000 0.53621  0.34536  0.49695  Biso   1.000  O
  O18      1.0000 0.62540  0.42554  0.46782  Biso   1.000  O
  O19      1.0000 0.55022  0.27993  0.46381  Biso   1.000  O
  C81      1.0000 0.54307  0.34133  0.51333  Biso   1.000  C
  C82      1.0000 0.68017  0.45763  0.46166  Biso   1.000  C
  C83      1.0000 0.48967  0.34563  0.52403  Biso   1.000  C
  O20      1.0000 0.58107  0.32773  0.51984  Biso   1.000  O
  C84      1.0000 0.68937  0.51043  0.44845  Biso   1.000  C
  C85      1.0000 0.44867  0.36183  0.51796  Biso   1.000  C
  C86      1.0000 0.48737  0.33723  0.54100  Biso   1.000  C
  C87      1.0000 0.64197  0.52773  0.44617  Biso   1.000  C
  C88      1.0000 0.74837  0.54223  0.43872  Biso   1.000  C
  H49      1.0000 0.45167  0.37193  0.50653  Biso   1.000  H
  C89      1.0000 0.40247  0.36533  0.52692  Biso   1.000  C
  C90      1.0000 0.44177  0.34173  0.55147  Biso   1.000  C
  H50      1.0000 0.51787  0.32813  0.54593  Biso   1.000  H
  H51      1.0000 0.60377  0.50993  0.45263  Biso   1.000  H
  C91      1.0000 0.65537  0.57423  0.43346  Biso   1.000  C
  C92      1.0000 0.75547  0.58203  0.42585  Biso   1.000  C
  H52      1.0000 0.78287  0.53503  0.44143  Biso   1.000  H
  H53      1.0000 0.37497  0.37713  0.52133  Biso   1.000  H
  C93      1.0000 0.39347  0.35313  0.54350  Biso   1.000  C
  H54      1.0000 0.44277  0.33753  0.56313  Biso   1.000  H
  C94      1.0000 0.70907  0.59653  0.42267  Biso   1.000  C
  H55      1.0000 0.62707  0.59093  0.43213  Biso   1.000  H
  H56      1.0000 0.79297  0.59933  0.41913  Biso   1.000  H
  C95      1.0000 0.34597  0.35903  0.55386  Biso   1.000  C
  C96      1.0000 0.72097  0.64793  0.40948  Biso   1.000  C
  C97      1.0000 0.33057  0.40833  0.55085  Biso   1.000  C
  C98      1.0000 0.31137  0.31353  0.56689  Biso   1.000  C
  C99      1.0000 0.78597  0.69143  0.40411  Biso   1.000  C
  H57      1.0000 0.35657  0.44333  0.54363  Biso   1.000  H
  C100     1.0000 0.28007  0.40493  0.55813  Biso   1.000  C
  H58      1.0000 0.32267  0.28173  0.56953  Biso   1.000  H
  H59      1.0000 0.82217  0.68993  0.40833  Biso   1.000  H
  H60      1.0000 0.26877  0.43613  0.55493  Biso   1.000  H
  Zn6      1.0000 0.26326  0.67917  0.81497  Biso   1.000  Zn
  O21      1.0000 0.20287  0.67870  0.83029  Biso   1.000  O
  O22      1.0000 0.29206  0.75888  0.80116  Biso   1.000  O
  O23      1.0000 0.21688  0.61327  0.79715  Biso   1.000  O
  C101     1.0000 0.20973  0.67467  0.84667  Biso   1.000  C
  C102     1.0000 0.34683  0.79097  0.79500  Biso   1.000  C
  C103     1.0000 0.15633  0.67897  0.85737  Biso   1.000  C
  O24      1.0000 0.24773  0.66107  0.85318  Biso   1.000  O
  C104     1.0000 0.35603  0.84377  0.78179  Biso   1.000  C
  C105     1.0000 0.11533  0.69517  0.85130  Biso   1.000  C
  C106     1.0000 0.15403  0.67057  0.87434  Biso   1.000  C
  C107     1.0000 0.30863  0.86107  0.77951  Biso   1.000  C
  C108     1.0000 0.41503  0.87557  0.77206  Biso   1.000  C
  H61      1.0000 0.11833  0.70527  0.83987  Biso   1.000  H
  C109     1.0000 0.06913  0.69867  0.86026  Biso   1.000  C
  C110     1.0000 0.10843  0.67507  0.88481  Biso   1.000  C
  H62      1.0000 0.18453  0.66147  0.87927  Biso   1.000  H
  H63      1.0000 0.27043  0.84327  0.78597  Biso   1.000  H
  C111     1.0000 0.32203  0.90757  0.76680  Biso   1.000  C
  C112     1.0000 0.42213  0.91537  0.75919  Biso   1.000  C
  H64      1.0000 0.44953  0.86837  0.77477  Biso   1.000  H
  H65      1.0000 0.04163  0.71047  0.85467  Biso   1.000  H
  C113     1.0000 0.06013  0.68647  0.87684  Biso   1.000  C
  H66      1.0000 0.10943  0.67087  0.89647  Biso   1.000  H
  C114     1.0000 0.37573  0.92987  0.75601  Biso   1.000  C
  H67      1.0000 0.29373  0.92427  0.76547  Biso   1.000  H
  H68      1.0000 0.45963  0.93267  0.75247  Biso   1.000  H
  C115     1.0000 0.01263  0.69237  0.88720  Biso   1.000  C
  C116     1.0000 0.38763  0.98127  0.74282  Biso   1.000  C
  C117     1.0000 0.99723  0.74167  0.88419  Biso   1.000  C
  C118     1.0000 0.97803  0.64687  0.90023  Biso   1.000  C
  C119     1.0000 0.45263  0.02477  0.73745  Biso   1.000  C
  H69      1.0000 0.02323  0.77667  0.87697  Biso   1.000  H
  C120     1.0000 0.94673  0.73827  0.89147  Biso   1.000  C
  H70      1.0000 0.98933  0.61507  0.90287  Biso   1.000  H
  H71      1.0000 0.48883  0.02327  0.74167  Biso   1.000  H
  H72      1.0000 0.93543  0.76947  0.88827  Biso   1.000  H
  Zn7      1.0000 0.98749  0.91742  0.14830  Biso   1.000  Zn
  O25      1.0000 0.98797  0.85751  0.16362  Biso   1.000  O
  O26      1.0000 0.90779  0.86652  0.13449  Biso   1.000  O
  O27      1.0000 0.05340  0.93695  0.13048  Biso   1.000  O
  C121     1.0000 0.99200  0.86840  0.18000  Biso   1.000  C
  C122     1.0000 0.87570  0.88920  0.12833  Biso   1.000  C
  C123     1.0000 0.98770  0.81070  0.19070  Biso   1.000  C
  O28      1.0000 0.00560  0.92000  0.18651  Biso   1.000  O
  C124     1.0000 0.82290  0.84560  0.11512  Biso   1.000  C
  C125     1.0000 0.97150  0.75350  0.18463  Biso   1.000  C
  C126     1.0000 0.99610  0.81680  0.20767  Biso   1.000  C
  C127     1.0000 0.80560  0.78090  0.11284  Biso   1.000  C
  C128     1.0000 0.79110  0.87280  0.10539  Biso   1.000  C
  H73      1.0000 0.96140  0.74640  0.17320  Biso   1.000  H
  C129     1.0000 0.96800  0.70380  0.19359  Biso   1.000  C
  C130     1.0000 0.99160  0.76670  0.21814  Biso   1.000  C
  H74      1.0000 0.00520  0.85640  0.21260  Biso   1.000  H
  H75      1.0000 0.82340  0.76050  0.11930  Biso   1.000  H
  C131     1.0000 0.75910  0.74780  0.10013  Biso   1.000  C
  C132     1.0000 0.75130  0.84010  0.09252  Biso   1.000  C
  H76      1.0000 0.79830  0.91450  0.10810  Biso   1.000  H
  H77      1.0000 0.95620  0.66450  0.18800  Biso   1.000  H
  C133     1.0000 0.98020  0.70700  0.21017  Biso   1.000  C
  H78      1.0000 0.99580  0.77190  0.22980  Biso   1.000  H
  C134     1.0000 0.73680  0.77920  0.08934  Biso   1.000  C
  H79      1.0000 0.74240  0.70280  0.09880  Biso   1.000  H
  H80      1.0000 0.73400  0.86030  0.08580  Biso   1.000  H
  C135     1.0000 0.97430  0.65360  0.22053  Biso   1.000  C
  C136     1.0000 0.68540  0.73970  0.07615  Biso   1.000  C
  C137     1.0000 0.92500  0.58890  0.21752  Biso   1.000  C
  C138     1.0000 0.01980  0.66450  0.23356  Biso   1.000  C
  C139     1.0000 0.64190  0.76120  0.07078  Biso   1.000  C
  H81      1.0000 0.89000  0.57990  0.21030  Biso   1.000  H
  C140     1.0000 0.92840  0.54180  0.22480  Biso   1.000  C
  H82      1.0000 0.05160  0.70760  0.23620  Biso   1.000  H
  H83      1.0000 0.64340  0.79890  0.07500  Biso   1.000  H
  H84      1.0000 0.89720  0.49930  0.22160  Biso   1.000  H
  Zn8      1.0000 0.65416  0.25076  0.48163  Biso   1.000  Zn
  O29      1.0000 0.65464  0.19084  0.49695  Biso   1.000  O
  O30      1.0000 0.57446  0.19985  0.46782  Biso   1.000  O
  O31      1.0000 0.72007  0.27028  0.46381  Biso   1.000  O
  C141     1.0000 0.65867  0.20173  0.51333  Biso   1.000  C
  C142     1.0000 0.54237  0.22253  0.46166  Biso   1.000  C
  C143     1.0000 0.65437  0.14403  0.52403  Biso   1.000  C
  O32      1.0000 0.67227  0.25333  0.51984  Biso   1.000  O
  C144     1.0000 0.48957  0.17893  0.44845  Biso   1.000  C
  C145     1.0000 0.63817  0.08683  0.51796  Biso   1.000  C
  C146     1.0000 0.66277  0.15013  0.54100  Biso   1.000  C
  C147     1.0000 0.47227  0.11423  0.44617  Biso   1.000  C
  C148     1.0000 0.45777  0.20613  0.43872  Biso   1.000  C
  H85      1.0000 0.62807  0.07973  0.50653  Biso   1.000  H
  C149     1.0000 0.63467  0.03713  0.52692  Biso   1.000  C
  C150     1.0000 0.65827  0.10003  0.55147  Biso   1.000  C
  H86      1.0000 0.67187  0.18973  0.54593  Biso   1.000  H
  H87      1.0000 0.49007  0.09383  0.45263  Biso   1.000  H
  C151     1.0000 0.42577  0.08113  0.43346  Biso   1.000  C
  C152     1.0000 0.41797  0.17343  0.42585  Biso   1.000  C
  H88      1.0000 0.46497  0.24783  0.44143  Biso   1.000  H
  H89      1.0000 0.62287  0.99783  0.52133  Biso   1.000  H
  C153     1.0000 0.64687  0.04033  0.54350  Biso   1.000  C
  H90      1.0000 0.66247  0.10523  0.56313  Biso   1.000  H
  C154     1.0000 0.40347  0.11253  0.42267  Biso   1.000  C
  H91      1.0000 0.40907  0.03613  0.43213  Biso   1.000  H
  H92      1.0000 0.40067  0.19363  0.41913  Biso   1.000  H
  C155     1.0000 0.64097  0.98693  0.55386  Biso   1.000  C
  C156     1.0000 0.35207  0.07303  0.40948  Biso   1.000  C
  C157     1.0000 0.59167  0.92223  0.55085  Biso   1.000  C
  C158     1.0000 0.68647  0.99783  0.56689  Biso   1.000  C
  C159     1.0000 0.30857  0.09453  0.40411  Biso   1.000  C
  H93      1.0000 0.55667  0.91323  0.54363  Biso   1.000  H
  C160     1.0000 0.59507  0.87513  0.55813  Biso   1.000  C
  H94      1.0000 0.71827  0.04093  0.56953  Biso   1.000  H
  H95      1.0000 0.31007  0.13223  0.40833  Biso   1.000  H
  H96      1.0000 0.56387  0.83263  0.55493  Biso   1.000  H
  Zn9      1.0000 0.32083  0.58409  0.81497  Biso   1.000  Zn
  O33      1.0000 0.32130  0.52418  0.83029  Biso   1.000  O
  O34      1.0000 0.24112  0.53319  0.80116  Biso   1.000  O
  O35      1.0000 0.38673  0.60362  0.79715  Biso   1.000  O
  C161     1.0000 0.32533  0.53507  0.84667  Biso   1.000  C
  C162     1.0000 0.20903  0.55587  0.79500  Biso   1.000  C
  C163     1.0000 0.32103  0.47737  0.85737  Biso   1.000  C
  O36      1.0000 0.33893  0.58667  0.85318  Biso   1.000  O
  C164     1.0000 0.15623  0.51227  0.78179  Biso   1.000  C
  C165     1.0000 0.30483  0.42017  0.85130  Biso   1.000  C
  C166     1.0000 0.32943  0.48347  0.87434  Biso   1.000  C
  C167     1.0000 0.13893  0.44757  0.77951  Biso   1.000  C
  C168     1.0000 0.12443  0.53947  0.77206  Biso   1.000  C
  H97      1.0000 0.29473  0.41307  0.83987  Biso   1.000  H
  C169     1.0000 0.30133  0.37047  0.86026  Biso   1.000  C
  C170     1.0000 0.32493  0.43337  0.88481  Biso   1.000  C
  H98      1.0000 0.33853  0.52307  0.87927  Biso   1.000  H
  H99      1.0000 0.15673  0.42717  0.78597  Biso   1.000  H
  C171     1.0000 0.09243  0.41447  0.76680  Biso   1.000  C
  C172     1.0000 0.08463  0.50677  0.75919  Biso   1.000  C
  H100     1.0000 0.13163  0.58117  0.77477  Biso   1.000  H
  H101     1.0000 0.28953  0.33117  0.85467  Biso   1.000  H
  C173     1.0000 0.31353  0.37367  0.87684  Biso   1.000  C
  H102     1.0000 0.32913  0.43857  0.89647  Biso   1.000  H
  C174     1.0000 0.07013  0.44587  0.75601  Biso   1.000  C
  H103     1.0000 0.07573  0.36947  0.76547  Biso   1.000  H
  H104     1.0000 0.06733  0.52697  0.75247  Biso   1.000  H
  C175     1.0000 0.30763  0.32027  0.88720  Biso   1.000  C
  C176     1.0000 0.01873  0.40637  0.74282  Biso   1.000  C
  C177     1.0000 0.25833  0.25557  0.88419  Biso   1.000  C
  C178     1.0000 0.35313  0.33117  0.90023  Biso   1.000  C
  C179     1.0000 0.97523  0.42787  0.73745  Biso   1.000  C
  H105     1.0000 0.22333  0.24657  0.87697  Biso   1.000  H
  C180     1.0000 0.26173  0.20847  0.89147  Biso   1.000  C
  H106     1.0000 0.38493  0.37427  0.90287  Biso   1.000  H
  H107     1.0000 0.97673  0.46557  0.74167  Biso   1.000  H
  H108     1.0000 0.23053  0.16597  0.88827  Biso   1.000  H
  Zn10     1.0000 0.92993  0.91742  0.64830  Biso   1.000  Zn
  O37      1.0000 0.86954  0.85751  0.66362  Biso   1.000  O
  O38      1.0000 0.95873  0.86652  0.63449  Biso   1.000  O
  O39      1.0000 0.88355  0.93695  0.63048  Biso   1.000  O
  C181     1.0000 0.87640  0.86840  0.68000  Biso   1.000  C
  C182     1.0000 0.01350  0.88920  0.62833  Biso   1.000  C
  C183     1.0000 0.82300  0.81070  0.69070  Biso   1.000  C
  O40      1.0000 0.91440  0.92000  0.68651  Biso   1.000  O
  C184     1.0000 0.02270  0.84560  0.61512  Biso   1.000  C
  C185     1.0000 0.78200  0.75350  0.68463  Biso   1.000  C
  C186     1.0000 0.82070  0.81680  0.70767  Biso   1.000  C
  C187     1.0000 0.97530  0.78090  0.61284  Biso   1.000  C
  C188     1.0000 0.08170  0.87280  0.60539  Biso   1.000  C
  H109     1.0000 0.78500  0.74640  0.67320  Biso   1.000  H
  C189     1.0000 0.73580  0.70380  0.69359  Biso   1.000  C
  C190     1.0000 0.77510  0.76670  0.71814  Biso   1.000  C
  H110     1.0000 0.85120  0.85640  0.71260  Biso   1.000  H
  H111     1.0000 0.93710  0.76050  0.61930  Biso   1.000  H
  C191     1.0000 0.98870  0.74780  0.60013  Biso   1.000  C
  C192     1.0000 0.08880  0.84010  0.59252  Biso   1.000  C
  H112     1.0000 0.11620  0.91450  0.60810  Biso   1.000  H
  H113     1.0000 0.70830  0.66450  0.68800  Biso   1.000  H
  C193     1.0000 0.72680  0.70700  0.71017  Biso   1.000  C
  H114     1.0000 0.77610  0.77190  0.72980  Biso   1.000  H
  C194     1.0000 0.04240  0.77920  0.58934  Biso   1.000  C
  H115     1.0000 0.96040  0.70280  0.59880  Biso   1.000  H
  H116     1.0000 0.12630  0.86030  0.58580  Biso   1.000  H
  C195     1.0000 0.67930  0.65360  0.72053  Biso   1.000  C
  C196     1.0000 0.05430  0.73970  0.57615  Biso   1.000  C
  C197     1.0000 0.66390  0.58890  0.71752  Biso   1.000  C
  C198     1.0000 0.64470  0.66450  0.73356  Biso   1.000  C
  C199     1.0000 0.11930  0.76120  0.57078  Biso   1.000  C
  H117     1.0000 0.68990  0.57990  0.71030  Biso   1.000  H
  C200     1.0000 0.61340  0.54180  0.72480  Biso   1.000  C
  H118     1.0000 0.65600  0.70760  0.73620  Biso   1.000  H
  H119     1.0000 0.15550  0.79890  0.57500  Biso   1.000  H
  H120     1.0000 0.60210  0.49930  0.72160  Biso   1.000  H
  Zn11     1.0000 0.59660  0.25076  0.98163  Biso   1.000  Zn
  O41      1.0000 0.53621  0.19084  0.99695  Biso   1.000  O
  O42      1.0000 0.62540  0.19985  0.96782  Biso   1.000  O
  O43      1.0000 0.55022  0.27028  0.96381  Biso   1.000  O
  C201     1.0000 0.54307  0.20173  0.01333  Biso   1.000  C
  C202     1.0000 0.68017  0.22253  0.96166  Biso   1.000  C
  C203     1.0000 0.48967  0.14403  0.02403  Biso   1.000  C
  O44      1.0000 0.58107  0.25333  0.01984  Biso   1.000  O
  C204     1.0000 0.68937  0.17893  0.94845  Biso   1.000  C
  C205     1.0000 0.44867  0.08683  0.01796  Biso   1.000  C
  C206     1.0000 0.48737  0.15013  0.04100  Biso   1.000  C
  C207     1.0000 0.64197  0.11423  0.94617  Biso   1.000  C
  C208     1.0000 0.74837  0.20613  0.93872  Biso   1.000  C
  H121     1.0000 0.45167  0.07973  0.00653  Biso   1.000  H
  C209     1.0000 0.40247  0.03713  0.02692  Biso   1.000  C
  C210     1.0000 0.44177  0.10003  0.05147  Biso   1.000  C
  H122     1.0000 0.51787  0.18973  0.04593  Biso   1.000  H
  H123     1.0000 0.60377  0.09383  0.95263  Biso   1.000  H
  C211     1.0000 0.65537  0.08113  0.93346  Biso   1.000  C
  C212     1.0000 0.75547  0.17343  0.92585  Biso   1.000  C
  H124     1.0000 0.78287  0.24783  0.94143  Biso   1.000  H
  H125     1.0000 0.37497  0.99783  0.02133  Biso   1.000  H
  C213     1.0000 0.39347  0.04033  0.04350  Biso   1.000  C
  H126     1.0000 0.44277  0.10523  0.06313  Biso   1.000  H
  C214     1.0000 0.70907  0.11253  0.92267  Biso   1.000  C
  H127     1.0000 0.62707  0.03613  0.93213  Biso   1.000  H
  H128     1.0000 0.79297  0.19363  0.91913  Biso   1.000  H
  C215     1.0000 0.34597  0.98693  0.05386  Biso   1.000  C
  C216     1.0000 0.72097  0.07303  0.90948  Biso   1.000  C
  C217     1.0000 0.33057  0.92223  0.05085  Biso   1.000  C
  C218     1.0000 0.31137  0.99783  0.06689  Biso   1.000  C
  C219     1.0000 0.78597  0.09453  0.90411  Biso   1.000  C
  H129     1.0000 0.35657  0.91323  0.04363  Biso   1.000  H
  C220     1.0000 0.28007  0.87513  0.05813  Biso   1.000  C
  H130     1.0000 0.32267  0.04093  0.06953  Biso   1.000  H
  H131     1.0000 0.82217  0.13223  0.90833  Biso   1.000  H
  H132     1.0000 0.26877  0.83263  0.05493  Biso   1.000  H
  Zn12     1.0000 0.26326  0.58409  0.31497  Biso   1.000  Zn
  O45      1.0000 0.20287  0.52418  0.33029  Biso   1.000  O
  O46      1.0000 0.29206  0.53319  0.30116  Biso   1.000  O
  O47      1.0000 0.21688  0.60362  0.29715  Biso   1.000  O
  C221     1.0000 0.20973  0.53507  0.34667  Biso   1.000  C
  C222     1.0000 0.34683  0.55587  0.29500  Biso   1.000  C
  C223     1.0000 0.15633  0.47737  0.35737  Biso   1.000  C
  O48      1.0000 0.24773  0.58667  0.35318  Biso   1.000  O
  C224     1.0000 0.35603  0.51227  0.28179  Biso   1.000  C
  C225     1.0000 0.11533  0.42017  0.35130  Biso   1.000  C
  C226     1.0000 0.15403  0.48347  0.37434  Biso   1.000  C
  C227     1.0000 0.30863  0.44757  0.27951  Biso   1.000  C
  C228     1.0000 0.41503  0.53947  0.27206  Biso   1.000  C
  H133     1.0000 0.11833  0.41307  0.33987  Biso   1.000  H
  C229     1.0000 0.06913  0.37047  0.36026  Biso   1.000  C
  C230     1.0000 0.10843  0.43337  0.38481  Biso   1.000  C
  H134     1.0000 0.18453  0.52307  0.37927  Biso   1.000  H
  H135     1.0000 0.27043  0.42717  0.28597  Biso   1.000  H
  C231     1.0000 0.32203  0.41447  0.26680  Biso   1.000  C
  C232     1.0000 0.42213  0.50677  0.25919  Biso   1.000  C
  H136     1.0000 0.44953  0.58117  0.27477  Biso   1.000  H
  H137     1.0000 0.04163  0.33117  0.35467  Biso   1.000  H
  C233     1.0000 0.06013  0.37367  0.37684  Biso   1.000  C
  H138     1.0000 0.10943  0.43857  0.39647  Biso   1.000  H
  C234     1.0000 0.37573  0.44587  0.25601  Biso   1.000  C
  H139     1.0000 0.29373  0.36947  0.26547  Biso   1.000  H
  H140     1.0000 0.45963  0.52697  0.25247  Biso   1.000  H
  C235     1.0000 0.01263  0.32027  0.38720  Biso   1.000  C
  C236     1.0000 0.38763  0.40637  0.24282  Biso   1.000  C
  C237     1.0000 0.99723  0.25557  0.38419  Biso   1.000  C
  C238     1.0000 0.97803  0.33117  0.40023  Biso   1.000  C
  C239     1.0000 0.45263  0.42787  0.23745  Biso   1.000  C
  H141     1.0000 0.02323  0.24657  0.37697  Biso   1.000  H
  C240     1.0000 0.94673  0.20847  0.39147  Biso   1.000  C
  H142     1.0000 0.98933  0.37427  0.40287  Biso   1.000  H
  H143     1.0000 0.48883  0.46557  0.24167  Biso   1.000  H
  H144     1.0000 0.93543  0.16597  0.38827  Biso   1.000  H
  Zn13     1.0000 0.98749  0.07007  0.64830  Biso   1.000  Zn
  O49      1.0000 0.98797  0.13046  0.66362  Biso   1.000  O
  O50      1.0000 0.90779  0.04127  0.63449  Biso   1.000  O
  O51      1.0000 0.05340  0.11645  0.63048  Biso   1.000  O
  C241     1.0000 0.99200  0.12360  0.68000  Biso   1.000  C
  C242     1.0000 0.87570  0.98650  0.62833  Biso   1.000  C
  C243     1.0000 0.98770  0.17700  0.69070  Biso   1.000  C
  O52      1.0000 0.00560  0.08560  0.68651  Biso   1.000  O
  C244     1.0000 0.82290  0.97730  0.61512  Biso   1.000  C
  C245     1.0000 0.97150  0.21800  0.68463  Biso   1.000  C
  C246     1.0000 0.99610  0.17930  0.70767  Biso   1.000  C
  C247     1.0000 0.80560  0.02470  0.61284  Biso   1.000  C
  C248     1.0000 0.79110  0.91830  0.60539  Biso   1.000  C
  H145     1.0000 0.96140  0.21500  0.67320  Biso   1.000  H
  C249     1.0000 0.96800  0.26420  0.69359  Biso   1.000  C
  C250     1.0000 0.99160  0.22490  0.71814  Biso   1.000  C
  H146     1.0000 0.00520  0.14880  0.71260  Biso   1.000  H
  H147     1.0000 0.82340  0.06290  0.61930  Biso   1.000  H
  C251     1.0000 0.75910  0.01130  0.60013  Biso   1.000  C
  C252     1.0000 0.75130  0.91120  0.59252  Biso   1.000  C
  H148     1.0000 0.79830  0.88380  0.60810  Biso   1.000  H
  H149     1.0000 0.95620  0.29170  0.68800  Biso   1.000  H
  C253     1.0000 0.98020  0.27320  0.71017  Biso   1.000  C
  H150     1.0000 0.99580  0.22390  0.72980  Biso   1.000  H
  C254     1.0000 0.73680  0.95760  0.58934  Biso   1.000  C
  H151     1.0000 0.74240  0.03960  0.59880  Biso   1.000  H
  H152     1.0000 0.73400  0.87370  0.58580  Biso   1.000  H
  C255     1.0000 0.97430  0.32070  0.72053  Biso   1.000  C
  C256     1.0000 0.68540  0.94570  0.57615  Biso   1.000  C
  C257     1.0000 0.92500  0.33610  0.71752  Biso   1.000  C
  C258     1.0000 0.01980  0.35530  0.73356  Biso   1.000  C
  C259     1.0000 0.64190  0.88070  0.57078  Biso   1.000  C
  H153     1.0000 0.89000  0.31010  0.71030  Biso   1.000  H
  C260     1.0000 0.92840  0.38660  0.72480  Biso   1.000  C
  H154     1.0000 0.05160  0.34400  0.73620  Biso   1.000  H
  H155     1.0000 0.64340  0.84450  0.57500  Biso   1.000  H
  H156     1.0000 0.89720  0.39790  0.72160  Biso   1.000  H
  Zn14     1.0000 0.65416  0.40340  0.98163  Biso   1.000  Zn
  O53      1.0000 0.65464  0.46379  0.99695  Biso   1.000  O
  O54      1.0000 0.57446  0.37460  0.96782  Biso   1.000  O
  O55      1.0000 0.72007  0.44978  0.96381  Biso   1.000  O
  C261     1.0000 0.65867  0.45693  0.01333  Biso   1.000  C
  C262     1.0000 0.54237  0.31983  0.96166  Biso   1.000  C
  C263     1.0000 0.65437  0.51033  0.02403  Biso   1.000  C
  O56      1.0000 0.67227  0.41893  0.01984  Biso   1.000  O
  C264     1.0000 0.48957  0.31063  0.94845  Biso   1.000  C
  C265     1.0000 0.63817  0.55133  0.01796  Biso   1.000  C
  C266     1.0000 0.66277  0.51263  0.04100  Biso   1.000  C
  C267     1.0000 0.47227  0.35803  0.94617  Biso   1.000  C
  C268     1.0000 0.45777  0.25163  0.93872  Biso   1.000  C
  H157     1.0000 0.62807  0.54833  0.00653  Biso   1.000  H
  C269     1.0000 0.63467  0.59753  0.02692  Biso   1.000  C
  C270     1.0000 0.65827  0.55823  0.05147  Biso   1.000  C
  H158     1.0000 0.67187  0.48213  0.04593  Biso   1.000  H
  H159     1.0000 0.49007  0.39623  0.95263  Biso   1.000  H
  C271     1.0000 0.42577  0.34463  0.93346  Biso   1.000  C
  C272     1.0000 0.41797  0.24453  0.92585  Biso   1.000  C
  H160     1.0000 0.46497  0.21713  0.94143  Biso   1.000  H
  H161     1.0000 0.62287  0.62503  0.02133  Biso   1.000  H
  C273     1.0000 0.64687  0.60653  0.04350  Biso   1.000  C
  H162     1.0000 0.66247  0.55723  0.06313  Biso   1.000  H
  C274     1.0000 0.40347  0.29093  0.92267  Biso   1.000  C
  H163     1.0000 0.40907  0.37293  0.93213  Biso   1.000  H
  H164     1.0000 0.40067  0.20703  0.91913  Biso   1.000  H
  C275     1.0000 0.64097  0.65403  0.05386  Biso   1.000  C
  C276     1.0000 0.35207  0.27903  0.90948  Biso   1.000  C
  C277     1.0000 0.59167  0.66943  0.05085  Biso   1.000  C
  C278     1.0000 0.68647  0.68863  0.06689  Biso   1.000  C
  C279     1.0000 0.30857  0.21403  0.90411  Biso   1.000  C
  H165     1.0000 0.55667  0.64343  0.04363  Biso   1.000  H
  C280     1.0000 0.59507  0.71993  0.05813  Biso   1.000  C
  H166     1.0000 0.71827  0.67733  0.06953  Biso   1.000  H
  H167     1.0000 0.31007  0.17783  0.90833  Biso   1.000  H
  H168     1.0000 0.56387  0.73123  0.05493  Biso   1.000  H
  Zn15     1.0000 0.32083  0.73674  0.31497  Biso   1.000  Zn
  O57      1.0000 0.32130  0.79713  0.33029  Biso   1.000  O
  O58      1.0000 0.24112  0.70794  0.30116  Biso   1.000  O
  O59      1.0000 0.38673  0.78312  0.29715  Biso   1.000  O
  C281     1.0000 0.32533  0.79027  0.34667  Biso   1.000  C
  C282     1.0000 0.20903  0.65317  0.29500  Biso   1.000  C
  C283     1.0000 0.32103  0.84367  0.35737  Biso   1.000  C
  O60      1.0000 0.33893  0.75227  0.35318  Biso   1.000  O
  C284     1.0000 0.15623  0.64397  0.28179  Biso   1.000  C
  C285     1.0000 0.30483  0.88467  0.35130  Biso   1.000  C
  C286     1.0000 0.32943  0.84597  0.37434  Biso   1.000  C
  C287     1.0000 0.13893  0.69137  0.27951  Biso   1.000  C
  C288     1.0000 0.12443  0.58497  0.27206  Biso   1.000  C
  H169     1.0000 0.29473  0.88167  0.33987  Biso   1.000  H
  C289     1.0000 0.30133  0.93087  0.36026  Biso   1.000  C
  C290     1.0000 0.32493  0.89157  0.38481  Biso   1.000  C
  H170     1.0000 0.33853  0.81547  0.37927  Biso   1.000  H
  H171     1.0000 0.15673  0.72957  0.28597  Biso   1.000  H
  C291     1.0000 0.09243  0.67797  0.26680  Biso   1.000  C
  C292     1.0000 0.08463  0.57787  0.25919  Biso   1.000  C
  H172     1.0000 0.13163  0.55047  0.27477  Biso   1.000  H
  H173     1.0000 0.28953  0.95837  0.35467  Biso   1.000  H
  C293     1.0000 0.31353  0.93987  0.37684  Biso   1.000  C
  H174     1.0000 0.32913  0.89057  0.39647  Biso   1.000  H
  C294     1.0000 0.07013  0.62427  0.25601  Biso   1.000  C
  H175     1.0000 0.07573  0.70627  0.26547  Biso   1.000  H
  H176     1.0000 0.06733  0.54037  0.25247  Biso   1.000  H
  C295     1.0000 0.30763  0.98737  0.38720  Biso   1.000  C
  C296     1.0000 0.01873  0.61237  0.24282  Biso   1.000  C
  C297     1.0000 0.25833  0.00277  0.38419  Biso   1.000  C
  C298     1.0000 0.35313  0.02197  0.40023  Biso   1.000  C
  C299     1.0000 0.97523  0.54737  0.23745  Biso   1.000  C
  H177     1.0000 0.22333  0.97677  0.37697  Biso   1.000  H
  C300     1.0000 0.26173  0.05327  0.39147  Biso   1.000  C
  H178     1.0000 0.38493  0.01067  0.40287  Biso   1.000  H
  H179     1.0000 0.97673  0.51117  0.24167  Biso   1.000  H
  H180     1.0000 0.23053  0.06457  0.38827  Biso   1.000  H
  Zn16     1.0000 0.08258  0.01251  0.64830  Biso   1.000  Zn
  O61      1.0000 0.14249  0.01203  0.66362  Biso   1.000  O
  O62      1.0000 0.13348  0.09221  0.63449  Biso   1.000  O
  O63      1.0000 0.06305  0.94660  0.63048  Biso   1.000  O
  C301     1.0000 0.13160  0.00800  0.68000  Biso   1.000  C
  C302     1.0000 0.11080  0.12430  0.62833  Biso   1.000  C
  C303     1.0000 0.18930  0.01230  0.69070  Biso   1.000  C
  O64      1.0000 0.08000  0.99440  0.68651  Biso   1.000  O
  C304     1.0000 0.15440  0.17710  0.61512  Biso   1.000  C
  C305     1.0000 0.24650  0.02850  0.68463  Biso   1.000  C
  C306     1.0000 0.18320  0.00390  0.70767  Biso   1.000  C
  C307     1.0000 0.21910  0.19440  0.61284  Biso   1.000  C
  C308     1.0000 0.12720  0.20890  0.60539  Biso   1.000  C
  H181     1.0000 0.25360  0.03860  0.67320  Biso   1.000  H
  C309     1.0000 0.29620  0.03200  0.69359  Biso   1.000  C
  C310     1.0000 0.23330  0.00840  0.71814  Biso   1.000  C
  H182     1.0000 0.14360  0.99480  0.71260  Biso   1.000  H
  H183     1.0000 0.23950  0.17660  0.61930  Biso   1.000  H
  C311     1.0000 0.25220  0.24090  0.60013  Biso   1.000  C
  C312     1.0000 0.15990  0.24870  0.59252  Biso   1.000  C
  H184     1.0000 0.08550  0.20170  0.60810  Biso   1.000  H
  H185     1.0000 0.33550  0.04380  0.68800  Biso   1.000  H
  C313     1.0000 0.29300  0.01980  0.71017  Biso   1.000  C
  H186     1.0000 0.22810  0.00420  0.72980  Biso   1.000  H
  C314     1.0000 0.22080  0.26320  0.58934  Biso   1.000  C
  H187     1.0000 0.29720  0.25760  0.59880  Biso   1.000  H
  H188     1.0000 0.13970  0.26600  0.58580  Biso   1.000  H
  C315     1.0000 0.34640  0.02570  0.72053  Biso   1.000  C
  C316     1.0000 0.26030  0.31460  0.57615  Biso   1.000  C
  C317     1.0000 0.41110  0.07500  0.71752  Biso   1.000  C
  C318     1.0000 0.33550  0.98020  0.73356  Biso   1.000  C
  C319     1.0000 0.23880  0.35810  0.57078  Biso   1.000  C
  H189     1.0000 0.42010  0.11000  0.71030  Biso   1.000  H
  C320     1.0000 0.45820  0.07160  0.72480  Biso   1.000  C
  H190     1.0000 0.29240  0.94840  0.73620  Biso   1.000  H
  H191     1.0000 0.20110  0.35660  0.57500  Biso   1.000  H
  H192     1.0000 0.50070  0.10280  0.72160  Biso   1.000  H
  Zn17     1.0000 0.74924  0.34584  0.98163  Biso   1.000  Zn
  O65      1.0000 0.80916  0.34536  0.99695  Biso   1.000  O
  O66      1.0000 0.80015  0.42554  0.96782  Biso   1.000  O
  O67      1.0000 0.72972  0.27993  0.96381  Biso   1.000  O
  C321     1.0000 0.79827  0.34133  0.01333  Biso   1.000  C
  C322     1.0000 0.77747  0.45763  0.96166  Biso   1.000  C
  C323     1.0000 0.85597  0.34563  0.02403  Biso   1.000  C
  O68      1.0000 0.74667  0.32773  0.01984  Biso   1.000  O
  C324     1.0000 0.82107  0.51043  0.94845  Biso   1.000  C
  C325     1.0000 0.91317  0.36183  0.01796  Biso   1.000  C
  C326     1.0000 0.84987  0.33723  0.04100  Biso   1.000  C
  C327     1.0000 0.88577  0.52773  0.94617  Biso   1.000  C
  C328     1.0000 0.79387  0.54223  0.93872  Biso   1.000  C
  H193     1.0000 0.92027  0.37193  0.00653  Biso   1.000  H
  C329     1.0000 0.96287  0.36533  0.02692  Biso   1.000  C
  C330     1.0000 0.89997  0.34173  0.05147  Biso   1.000  C
  H194     1.0000 0.81027  0.32813  0.04593  Biso   1.000  H
  H195     1.0000 0.90617  0.50993  0.95263  Biso   1.000  H
  C331     1.0000 0.91887  0.57423  0.93346  Biso   1.000  C
  C332     1.0000 0.82657  0.58203  0.92585  Biso   1.000  C
  H196     1.0000 0.75217  0.53503  0.94143  Biso   1.000  H
  H197     1.0000 0.00217  0.37713  0.02133  Biso   1.000  H
  C333     1.0000 0.95967  0.35313  0.04350  Biso   1.000  C
  H198     1.0000 0.89477  0.33753  0.06313  Biso   1.000  H
  C334     1.0000 0.88747  0.59653  0.92267  Biso   1.000  C
  H199     1.0000 0.96387  0.59093  0.93213  Biso   1.000  H
  H200     1.0000 0.80637  0.59933  0.91913  Biso   1.000  H
  C335     1.0000 0.01307  0.35903  0.05386  Biso   1.000  C
  C336     1.0000 0.92697  0.64793  0.90948  Biso   1.000  C
  C337     1.0000 0.07777  0.40833  0.05085  Biso   1.000  C
  C338     1.0000 0.00217  0.31353  0.06689  Biso   1.000  C
  C339     1.0000 0.90547  0.69143  0.90411  Biso   1.000  C
  H201     1.0000 0.08677  0.44333  0.04363  Biso   1.000  H
  C340     1.0000 0.12487  0.40493  0.05813  Biso   1.000  C
  H202     1.0000 0.95907  0.28173  0.06953  Biso   1.000  H
  H203     1.0000 0.86777  0.68993  0.90833  Biso   1.000  H
  H204     1.0000 0.16737  0.43613  0.05493  Biso   1.000  H
  Zn18     1.0000 0.41591  0.67917  0.31497  Biso   1.000  Zn
  O69      1.0000 0.47582  0.67870  0.33029  Biso   1.000  O
  O70      1.0000 0.46681  0.75888  0.30116  Biso   1.000  O
  O71      1.0000 0.39638  0.61327  0.29715  Biso   1.000  O
  C341     1.0000 0.46493  0.67467  0.34667  Biso   1.000  C
  C342     1.0000 0.44413  0.79097  0.29500  Biso   1.000  C
  C343     1.0000 0.52263  0.67897  0.35737  Biso   1.000  C
  O72      1.0000 0.41333  0.66107  0.35318  Biso   1.000  O
  C344     1.0000 0.48773  0.84377  0.28179  Biso   1.000  C
  C345     1.0000 0.57983  0.69517  0.35130  Biso   1.000  C
  C346     1.0000 0.51653  0.67057  0.37434  Biso   1.000  C
  C347     1.0000 0.55243  0.86107  0.27951  Biso   1.000  C
  C348     1.0000 0.46053  0.87557  0.27206  Biso   1.000  C
  H205     1.0000 0.58693  0.70527  0.33987  Biso   1.000  H
  C349     1.0000 0.62953  0.69867  0.36026  Biso   1.000  C
  C350     1.0000 0.56663  0.67507  0.38481  Biso   1.000  C
  H206     1.0000 0.47693  0.66147  0.37927  Biso   1.000  H
  H207     1.0000 0.57283  0.84327  0.28597  Biso   1.000  H
  C351     1.0000 0.58553  0.90757  0.26680  Biso   1.000  C
  C352     1.0000 0.49323  0.91537  0.25919  Biso   1.000  C
  H208     1.0000 0.41883  0.86837  0.27477  Biso   1.000  H
  H209     1.0000 0.66883  0.71047  0.35467  Biso   1.000  H
  C353     1.0000 0.62633  0.68647  0.37684  Biso   1.000  C
  H210     1.0000 0.56143  0.67087  0.39647  Biso   1.000  H
  C354     1.0000 0.55413  0.92987  0.25601  Biso   1.000  C
  H211     1.0000 0.63053  0.92427  0.26547  Biso   1.000  H
  H212     1.0000 0.47303  0.93267  0.25247  Biso   1.000  H
  C355     1.0000 0.67973  0.69237  0.38720  Biso   1.000  C
  C356     1.0000 0.59363  0.98127  0.24282  Biso   1.000  C
  C357     1.0000 0.74443  0.74167  0.38419  Biso   1.000  C
  C358     1.0000 0.66883  0.64687  0.40023  Biso   1.000  C
  C359     1.0000 0.57213  0.02477  0.23745  Biso   1.000  C
  H213     1.0000 0.75343  0.77667  0.37697  Biso   1.000  H
  C360     1.0000 0.79153  0.73827  0.39147  Biso   1.000  C
  H214     1.0000 0.62573  0.61507  0.40287  Biso   1.000  H
  H215     1.0000 0.53443  0.02327  0.24167  Biso   1.000  H
  H216     1.0000 0.83403  0.76947  0.38827  Biso   1.000  H
  O73      1.0000 0.00000  0.00000  0.15756  Biso   1.000  O
  Zn19     1.0000 0.00000  0.00000  0.18239  Biso   1.000  Zn
  O74      1.0000 0.66667  0.33333  0.49089  Biso   1.000  O
  Zn20     1.0000 0.66667  0.33333  0.51573  Biso   1.000  Zn
  O75      1.0000 0.33333  0.66667  0.82423  Biso   1.000  O
  Zn21     1.0000 0.33333  0.66667  0.84906  Biso   1.000  Zn
  O76      1.0000 0.00000  0.00000  0.65756  Biso   1.000  O
  Zn22     1.0000 0.00000  0.00000  0.68239  Biso   1.000  Zn
  O77      1.0000 0.66667  0.33333  0.99089  Biso   1.000  O
  Zn23     1.0000 0.66667  0.33333  0.01573  Biso   1.000  Zn
  O78      1.0000 0.33333  0.66667  0.32423  Biso   1.000  O
  Zn24     1.0000 0.33333  0.66667  0.34906  Biso   1.000  Zn
  C361     1.0000 0.53905  0.31353  0.18857  Biso   1.000  C
  C362     1.0000 0.48913  0.30522  0.17589  Biso   1.000  C
  C363     1.0000 0.44770  0.24578  0.16883  Biso   1.000  C
  H217     1.0000 0.45090  0.20960  0.17240  Biso   1.000  H
  C364     1.0000 0.40090  0.23566  0.15665  Biso   1.000  C
  H218     1.0000 0.37560  0.19430  0.15180  Biso   1.000  H
  C365     1.0000 0.39228  0.28716  0.15174  Biso   1.000  C
  C366     1.0000 0.42875  0.34539  0.15968  Biso   1.000  C
  H219     1.0000 0.42110  0.37990  0.15750  Biso   1.000  H
  C367     1.0000 0.47734  0.35454  0.17106  Biso   1.000  C
  H220     1.0000 0.50330  0.39620  0.17570  Biso   1.000  H
  C368     1.0000 0.34151  0.27625  0.13889  Biso   1.000  C
  C369     1.0000 0.28751  0.21447  0.13590  Biso   1.000  C
  H221     1.0000 0.28090  0.17880  0.14250  Biso   1.000  H
  C370     1.0000 0.24319  0.20574  0.12311  Biso   1.000  C
  H222     1.0000 0.20700  0.16410  0.12140  Biso   1.000  H
  C371     1.0000 0.25126  0.25681  0.11295  Biso   1.000  C
  H223     1.0000 0.22260  0.24870  0.10400  Biso   1.000  H
  C372     1.0000 0.30206  0.32041  0.11606  Biso   1.000  C
  C373     1.0000 0.34655  0.32929  0.12920  Biso   1.000  C
  H224     1.0000 0.38050  0.37170  0.13160  Biso   1.000  H
  C374     1.0000 0.30875  0.37660  0.10572  Biso   1.000  C
  C375     1.0000 0.29352  0.36950  0.08861  Biso   1.000  C
  H225     1.0000 0.28300  0.33030  0.08310  Biso   1.000  H
  C376     1.0000 0.29400  0.41930  0.07992  Biso   1.000  C
  H226     1.0000 0.28090  0.41250  0.06870  Biso   1.000  H
  C377     1.0000 0.31300  0.47940  0.08703  Biso   1.000  C
  C378     1.0000 0.33070  0.49010  0.10457  Biso   1.000  C
  H227     1.0000 0.34160  0.52980  0.10980  Biso   1.000  H
  C379     1.0000 0.33110  0.43870  0.11351  Biso   1.000  C
  H228     1.0000 0.34600  0.44530  0.12460  Biso   1.000  H
  C380     1.0000 0.31500  0.53450  0.07752  Biso   1.000  C
  O79      1.0000 0.57342  0.37173  0.19486  Biso   1.000  O
  O80      1.0000 0.54074  0.26420  0.19308  Biso   1.000  O
  O81      1.0000 0.33154  0.58954  0.08515  Biso   1.000  O
  O82      1.0000 0.30648  0.52547  0.06119  Biso   1.000  O
  Zn25     1.0000 0.65356  0.40439  0.20909  Biso   1.000  Zn
  C381     1.0000 0.20572  0.64686  0.52190  Biso   1.000  C
  C382     1.0000 0.15580  0.63855  0.50922  Biso   1.000  C
  C383     1.0000 0.11437  0.57911  0.50216  Biso   1.000  C
  H229     1.0000 0.11757  0.54293  0.50573  Biso   1.000  H
  C384     1.0000 0.06757  0.56899  0.48998  Biso   1.000  C
  H230     1.0000 0.04227  0.52763  0.48513  Biso   1.000  H
  C385     1.0000 0.05895  0.62049  0.48507  Biso   1.000  C
  C386     1.0000 0.09542  0.67872  0.49301  Biso   1.000  C
  H231     1.0000 0.08777  0.71323  0.49083  Biso   1.000  H
  C387     1.0000 0.14401  0.68787  0.50439  Biso   1.000  C
  H232     1.0000 0.16997  0.72953  0.50903  Biso   1.000  H
  C388     1.0000 0.00818  0.60958  0.47222  Biso   1.000  C
  C389     1.0000 0.95418  0.54780  0.46923  Biso   1.000  C
  H233     1.0000 0.94757  0.51213  0.47583  Biso   1.000  H
  C390     1.0000 0.90986  0.53907  0.45644  Biso   1.000  C
  H234     1.0000 0.87367  0.49743  0.45473  Biso   1.000  H
  C391     1.0000 0.91793  0.59014  0.44628  Biso   1.000  C
  H235     1.0000 0.88927  0.58203  0.43733  Biso   1.000  H
  C392     1.0000 0.96873  0.65374  0.44939  Biso   1.000  C
  C393     1.0000 0.01322  0.66262  0.46253  Biso   1.000  C
  H236     1.0000 0.04717  0.70503  0.46493  Biso   1.000  H
  C394     1.0000 0.97542  0.70993  0.43905  Biso   1.000  C
  C395     1.0000 0.96019  0.70283  0.42194  Biso   1.000  C
  H237     1.0000 0.94967  0.66363  0.41643  Biso   1.000  H
  C396     1.0000 0.96067  0.75263  0.41325  Biso   1.000  C
  H238     1.0000 0.94757  0.74583  0.40203  Biso   1.000  H
  C397     1.0000 0.97967  0.81273  0.42036  Biso   1.000  C
  C398     1.0000 0.99737  0.82343  0.43790  Biso   1.000  C
  H239     1.0000 0.00827  0.86313  0.44313  Biso   1.000  H
  C399     1.0000 0.99777  0.77203  0.44684  Biso   1.000  C
  H240     1.0000 0.01267  0.77863  0.45793  Biso   1.000  H
  C400     1.0000 0.98167  0.86783  0.41085  Biso   1.000  C
  O83      1.0000 0.24009  0.70506  0.52819  Biso   1.000  O
  O84      1.0000 0.20741  0.59753  0.52641  Biso   1.000  O
  O85      1.0000 0.99821  0.92287  0.41848  Biso   1.000  O
  O86      1.0000 0.97315  0.85880  0.39452  Biso   1.000  O
  Zn26     1.0000 0.32023  0.73772  0.54243  Biso   1.000  Zn
  C401     1.0000 0.87238  0.98020  0.85524  Biso   1.000  C
  C402     1.0000 0.82246  0.97189  0.84256  Biso   1.000  C
  C403     1.0000 0.78103  0.91245  0.83550  Biso   1.000  C
  H241     1.0000 0.78423  0.87627  0.83907  Biso   1.000  H
  C404     1.0000 0.73423  0.90233  0.82332  Biso   1.000  C
  H242     1.0000 0.70893  0.86097  0.81847  Biso   1.000  H
  C405     1.0000 0.72561  0.95383  0.81841  Biso   1.000  C
  C406     1.0000 0.76208  0.01206  0.82635  Biso   1.000  C
  H243     1.0000 0.75443  0.04657  0.82417  Biso   1.000  H
  C407     1.0000 0.81067  0.02121  0.83773  Biso   1.000  C
  H244     1.0000 0.83663  0.06287  0.84237  Biso   1.000  H
  C408     1.0000 0.67484  0.94292  0.80556  Biso   1.000  C
  C409     1.0000 0.62084  0.88114  0.80257  Biso   1.000  C
  H245     1.0000 0.61423  0.84547  0.80917  Biso   1.000  H
  C410     1.0000 0.57652  0.87241  0.78978  Biso   1.000  C
  H246     1.0000 0.54033  0.83077  0.78807  Biso   1.000  H
  C411     1.0000 0.58459  0.92348  0.77962  Biso   1.000  C
  H247     1.0000 0.55593  0.91537  0.77067  Biso   1.000  H
  C412     1.0000 0.63539  0.98708  0.78273  Biso   1.000  C
  C413     1.0000 0.67988  0.99596  0.79587  Biso   1.000  C
  H248     1.0000 0.71383  0.03837  0.79827  Biso   1.000  H
  C414     1.0000 0.64208  0.04327  0.77239  Biso   1.000  C
  C415     1.0000 0.62685  0.03617  0.75528  Biso   1.000  C
  H249     1.0000 0.61633  0.99697  0.74977  Biso   1.000  H
  C416     1.0000 0.62733  0.08597  0.74659  Biso   1.000  C
  H250     1.0000 0.61423  0.07917  0.73537  Biso   1.000  H
  C417     1.0000 0.64633  0.14607  0.75370  Biso   1.000  C
  C418     1.0000 0.66403  0.15677  0.77124  Biso   1.000  C
  H251     1.0000 0.67493  0.19647  0.77647  Biso   1.000  H
  C419     1.0000 0.66443  0.10537  0.78018  Biso   1.000  C
  H252     1.0000 0.67933  0.11197  0.79127  Biso   1.000  H
  C420     1.0000 0.64833  0.20117  0.74419  Biso   1.000  C
  O87      1.0000 0.90675  0.03840  0.86153  Biso   1.000  O
  O88      1.0000 0.87407  0.93087  0.85975  Biso   1.000  O
  O89      1.0000 0.66487  0.25621  0.75182  Biso   1.000  O
  O90      1.0000 0.63981  0.19214  0.72786  Biso   1.000  O
  Zn27     1.0000 0.98690  0.07105  0.87576  Biso   1.000  Zn
  C421     1.0000 0.68647  0.22552  0.18857  Biso   1.000  C
  C422     1.0000 0.69478  0.18391  0.17589  Biso   1.000  C
  C423     1.0000 0.75422  0.20192  0.16883  Biso   1.000  C
  H253     1.0000 0.79040  0.24130  0.17240  Biso   1.000  H
  C424     1.0000 0.76434  0.16524  0.15665  Biso   1.000  C
  H254     1.0000 0.80570  0.18130  0.15180  Biso   1.000  H
  C425     1.0000 0.71284  0.10512  0.15174  Biso   1.000  C
  C426     1.0000 0.65461  0.08336  0.15968  Biso   1.000  C
  H255     1.0000 0.62010  0.04120  0.15750  Biso   1.000  H
  C427     1.0000 0.64546  0.12280  0.17106  Biso   1.000  C
  H256     1.0000 0.60380  0.10710  0.17570  Biso   1.000  H
  C428     1.0000 0.72375  0.06526  0.13889  Biso   1.000  C
  C429     1.0000 0.78553  0.07304  0.13590  Biso   1.000  C
  H257     1.0000 0.82120  0.10210  0.14250  Biso   1.000  H
  C430     1.0000 0.79426  0.03745  0.12311  Biso   1.000  C
  H258     1.0000 0.83590  0.04290  0.12140  Biso   1.000  H
  C431     1.0000 0.74319  0.99445  0.11295  Biso   1.000  C
  H259     1.0000 0.75130  0.97390  0.10400  Biso   1.000  H
  C432     1.0000 0.67959  0.98165  0.11606  Biso   1.000  C
  C433     1.0000 0.67071  0.01726  0.12920  Biso   1.000  C
  H260     1.0000 0.62830  0.00880  0.13160  Biso   1.000  H
  C434     1.0000 0.62340  0.93215  0.10572  Biso   1.000  C
  C435     1.0000 0.63050  0.92402  0.08861  Biso   1.000  C
  H261     1.0000 0.66970  0.95270  0.08310  Biso   1.000  H
  C436     1.0000 0.58070  0.87470  0.07992  Biso   1.000  C
  H262     1.0000 0.58750  0.86840  0.06870  Biso   1.000  H
  C437     1.0000 0.52060  0.83360  0.08703  Biso   1.000  C
  C438     1.0000 0.50990  0.84060  0.10457  Biso   1.000  C
  H263     1.0000 0.47020  0.81180  0.10980  Biso   1.000  H
  C439     1.0000 0.56130  0.89240  0.11351  Biso   1.000  C
  H264     1.0000 0.55470  0.90070  0.12460  Biso   1.000  H
  C440     1.0000 0.46550  0.78050  0.07752  Biso   1.000  C
  O91      1.0000 0.62827  0.20169  0.19486  Biso   1.000  O
  O92      1.0000 0.73580  0.27654  0.19308  Biso   1.000  O
  O93      1.0000 0.41046  0.74200  0.08515  Biso   1.000  O
  O94      1.0000 0.47453  0.78101  0.06119  Biso   1.000  O
  Zn28     1.0000 0.59561  0.24918  0.20909  Biso   1.000  Zn
  C441     1.0000 0.35314  0.55885  0.52190  Biso   1.000  C
  C442     1.0000 0.36145  0.51724  0.50922  Biso   1.000  C
  C443     1.0000 0.42089  0.53525  0.50216  Biso   1.000  C
  H265     1.0000 0.45707  0.57463  0.50573  Biso   1.000  H
  C444     1.0000 0.43101  0.49857  0.48998  Biso   1.000  C
  H266     1.0000 0.47237  0.51463  0.48513  Biso   1.000  H
  C445     1.0000 0.37951  0.43845  0.48507  Biso   1.000  C
  C446     1.0000 0.32128  0.41669  0.49301  Biso   1.000  C
  H267     1.0000 0.28677  0.37453  0.49083  Biso   1.000  H
  C447     1.0000 0.31213  0.45613  0.50439  Biso   1.000  C
  H268     1.0000 0.27047  0.44043  0.50903  Biso   1.000  H
  C448     1.0000 0.39042  0.39859  0.47222  Biso   1.000  C
  C449     1.0000 0.45220  0.40637  0.46923  Biso   1.000  C
  H269     1.0000 0.48787  0.43543  0.47583  Biso   1.000  H
  C450     1.0000 0.46093  0.37078  0.45644  Biso   1.000  C
  H270     1.0000 0.50257  0.37623  0.45473  Biso   1.000  H
  C451     1.0000 0.40986  0.32778  0.44628  Biso   1.000  C
  H271     1.0000 0.41797  0.30723  0.43733  Biso   1.000  H
  C452     1.0000 0.34626  0.31498  0.44939  Biso   1.000  C
  C453     1.0000 0.33738  0.35059  0.46253  Biso   1.000  C
  H272     1.0000 0.29497  0.34213  0.46493  Biso   1.000  H
  C454     1.0000 0.29007  0.26548  0.43905  Biso   1.000  C
  C455     1.0000 0.29717  0.25735  0.42194  Biso   1.000  C
  H273     1.0000 0.33637  0.28603  0.41643  Biso   1.000  H
  C456     1.0000 0.24737  0.20803  0.41325  Biso   1.000  C
  H274     1.0000 0.25417  0.20173  0.40203  Biso   1.000  H
  C457     1.0000 0.18727  0.16693  0.42036  Biso   1.000  C
  C458     1.0000 0.17657  0.17393  0.43790  Biso   1.000  C
  H275     1.0000 0.13687  0.14513  0.44313  Biso   1.000  H
  C459     1.0000 0.22797  0.22573  0.44684  Biso   1.000  C
  H276     1.0000 0.22137  0.23403  0.45793  Biso   1.000  H
  C460     1.0000 0.13217  0.11383  0.41085  Biso   1.000  C
  O95      1.0000 0.29494  0.53502  0.52819  Biso   1.000  O
  O96      1.0000 0.40247  0.60987  0.52641  Biso   1.000  O
  O97      1.0000 0.07713  0.07533  0.41848  Biso   1.000  O
  O98      1.0000 0.14120  0.11434  0.39452  Biso   1.000  O
  Zn29     1.0000 0.26228  0.58251  0.54243  Biso   1.000  Zn
  C461     1.0000 0.01980  0.89219  0.85524  Biso   1.000  C
  C462     1.0000 0.02811  0.85058  0.84256  Biso   1.000  C
  C463     1.0000 0.08755  0.86859  0.83550  Biso   1.000  C
  H277     1.0000 0.12373  0.90797  0.83907  Biso   1.000  H
  C464     1.0000 0.09767  0.83191  0.82332  Biso   1.000  C
  H278     1.0000 0.13903  0.84797  0.81847  Biso   1.000  H
  C465     1.0000 0.04617  0.77179  0.81841  Biso   1.000  C
  C466     1.0000 0.98794  0.75003  0.82635  Biso   1.000  C
  H279     1.0000 0.95343  0.70787  0.82417  Biso   1.000  H
  C467     1.0000 0.97879  0.78947  0.83773  Biso   1.000  C
  H280     1.0000 0.93713  0.77377  0.84237  Biso   1.000  H
  C468     1.0000 0.05708  0.73193  0.80556  Biso   1.000  C
  C469     1.0000 0.11886  0.73971  0.80257  Biso   1.000  C
  H281     1.0000 0.15453  0.76877  0.80917  Biso   1.000  H
  C470     1.0000 0.12759  0.70412  0.78978  Biso   1.000  C
  H282     1.0000 0.16923  0.70957  0.78807  Biso   1.000  H
  C471     1.0000 0.07652  0.66112  0.77962  Biso   1.000  C
  H283     1.0000 0.08463  0.64057  0.77067  Biso   1.000  H
  C472     1.0000 0.01292  0.64832  0.78273  Biso   1.000  C
  C473     1.0000 0.00404  0.68393  0.79587  Biso   1.000  C
  H284     1.0000 0.96163  0.67547  0.79827  Biso   1.000  H
  C474     1.0000 0.95673  0.59882  0.77239  Biso   1.000  C
  C475     1.0000 0.96383  0.59069  0.75528  Biso   1.000  C
  H285     1.0000 0.00303  0.61937  0.74977  Biso   1.000  H
  C476     1.0000 0.91403  0.54137  0.74659  Biso   1.000  C
  H286     1.0000 0.92083  0.53507  0.73537  Biso   1.000  H
  C477     1.0000 0.85393  0.50027  0.75370  Biso   1.000  C
  C478     1.0000 0.84323  0.50727  0.77124  Biso   1.000  C
  H287     1.0000 0.80353  0.47847  0.77647  Biso   1.000  H
  C479     1.0000 0.89463  0.55907  0.78018  Biso   1.000  C
  H288     1.0000 0.88803  0.56737  0.79127  Biso   1.000  H
  C480     1.0000 0.79883  0.44717  0.74419  Biso   1.000  C
  O99      1.0000 0.96160  0.86836  0.86153  Biso   1.000  O
  O100     1.0000 0.06913  0.94321  0.85975  Biso   1.000  O
  O101     1.0000 0.74379  0.40867  0.75182  Biso   1.000  O
  O102     1.0000 0.80786  0.44768  0.72786  Biso   1.000  O
  Zn30     1.0000 0.92895  0.91584  0.87576  Biso   1.000  Zn
  C481     1.0000 0.77448  0.46095  0.18857  Biso   1.000  C
  C482     1.0000 0.81609  0.51087  0.17589  Biso   1.000  C
  C483     1.0000 0.79808  0.55230  0.16883  Biso   1.000  C
  H289     1.0000 0.75870  0.54910  0.17240  Biso   1.000  H
  C484     1.0000 0.83476  0.59910  0.15665  Biso   1.000  C
  H290     1.0000 0.81870  0.62440  0.15180  Biso   1.000  H
  C485     1.0000 0.89488  0.60772  0.15174  Biso   1.000  C
  C486     1.0000 0.91664  0.57125  0.15968  Biso   1.000  C
  H291     1.0000 0.95880  0.57890  0.15750  Biso   1.000  H
  C487     1.0000 0.87720  0.52266  0.17106  Biso   1.000  C
  H292     1.0000 0.89290  0.49670  0.17570  Biso   1.000  H
  C488     1.0000 0.93474  0.65849  0.13889  Biso   1.000  C
  C489     1.0000 0.92696  0.71249  0.13590  Biso   1.000  C
  H293     1.0000 0.89790  0.71910  0.14250  Biso   1.000  H
  C490     1.0000 0.96255  0.75681  0.12311  Biso   1.000  C
  H294     1.0000 0.95710  0.79300  0.12140  Biso   1.000  H
  C491     1.0000 0.00555  0.74874  0.11295  Biso   1.000  C
  H295     1.0000 0.02610  0.77740  0.10400  Biso   1.000  H
  C492     1.0000 0.01835  0.69794  0.11606  Biso   1.000  C
  C493     1.0000 0.98274  0.65345  0.12920  Biso   1.000  C
  H296     1.0000 0.99120  0.61950  0.13160  Biso   1.000  H
  C494     1.0000 0.06785  0.69125  0.10572  Biso   1.000  C
  C495     1.0000 0.07598  0.70648  0.08861  Biso   1.000  C
  H297     1.0000 0.04730  0.71700  0.08310  Biso   1.000  H
  C496     1.0000 0.12530  0.70600  0.07992  Biso   1.000  C
  H298     1.0000 0.13160  0.71910  0.06870  Biso   1.000  H
  C497     1.0000 0.16640  0.68700  0.08703  Biso   1.000  C
  C498     1.0000 0.15940  0.66930  0.10457  Biso   1.000  C
  H299     1.0000 0.18820  0.65840  0.10980  Biso   1.000  H
  C499     1.0000 0.10760  0.66890  0.11351  Biso   1.000  C
  H300     1.0000 0.09930  0.65400  0.12460  Biso   1.000  H
  C500     1.0000 0.21950  0.68500  0.07752  Biso   1.000  C
  O103     1.0000 0.79831  0.42658  0.19486  Biso   1.000  O
  O104     1.0000 0.72346  0.45926  0.19308  Biso   1.000  O
  O105     1.0000 0.25800  0.66846  0.08515  Biso   1.000  O
  O106     1.0000 0.21899  0.69352  0.06119  Biso   1.000  O
  Zn31     1.0000 0.75082  0.34644  0.20909  Biso   1.000  Zn
  C501     1.0000 0.44115  0.79428  0.52190  Biso   1.000  C
  C502     1.0000 0.48276  0.84420  0.50922  Biso   1.000  C
  C503     1.0000 0.46475  0.88563  0.50216  Biso   1.000  C
  H301     1.0000 0.42537  0.88243  0.50573  Biso   1.000  H
  C504     1.0000 0.50143  0.93243  0.48998  Biso   1.000  C
  H302     1.0000 0.48537  0.95773  0.48513  Biso   1.000  H
  C505     1.0000 0.56155  0.94105  0.48507  Biso   1.000  C
  C506     1.0000 0.58331  0.90458  0.49301  Biso   1.000  C
  H303     1.0000 0.62547  0.91223  0.49083  Biso   1.000  H
  C507     1.0000 0.54387  0.85599  0.50439  Biso   1.000  C
  H304     1.0000 0.55957  0.83003  0.50903  Biso   1.000  H
  C508     1.0000 0.60141  0.99182  0.47222  Biso   1.000  C
  C509     1.0000 0.59363  0.04582  0.46923  Biso   1.000  C
  H305     1.0000 0.56457  0.05243  0.47583  Biso   1.000  H
  C510     1.0000 0.62922  0.09014  0.45644  Biso   1.000  C
  H306     1.0000 0.62377  0.12633  0.45473  Biso   1.000  H
  C511     1.0000 0.67222  0.08207  0.44628  Biso   1.000  C
  H307     1.0000 0.69277  0.11073  0.43733  Biso   1.000  H
  C512     1.0000 0.68502  0.03127  0.44939  Biso   1.000  C
  C513     1.0000 0.64941  0.98678  0.46253  Biso   1.000  C
  H308     1.0000 0.65787  0.95283  0.46493  Biso   1.000  H
  C514     1.0000 0.73452  0.02458  0.43905  Biso   1.000  C
  C515     1.0000 0.74265  0.03981  0.42194  Biso   1.000  C
  H309     1.0000 0.71397  0.05033  0.41643  Biso   1.000  H
  C516     1.0000 0.79197  0.03933  0.41325  Biso   1.000  C
  H310     1.0000 0.79827  0.05243  0.40203  Biso   1.000  H
  C517     1.0000 0.83307  0.02033  0.42036  Biso   1.000  C
  C518     1.0000 0.82607  0.00263  0.43790  Biso   1.000  C
  H311     1.0000 0.85487  0.99173  0.44313  Biso   1.000  H
  C519     1.0000 0.77427  0.00223  0.44684  Biso   1.000  C
  H312     1.0000 0.76597  0.98733  0.45793  Biso   1.000  H
  C520     1.0000 0.88617  0.01833  0.41085  Biso   1.000  C
  O107     1.0000 0.46498  0.75991  0.52819  Biso   1.000  O
  O108     1.0000 0.39013  0.79259  0.52641  Biso   1.000  O
  O109     1.0000 0.92467  0.00179  0.41848  Biso   1.000  O
  O110     1.0000 0.88566  0.02685  0.39452  Biso   1.000  O
  Zn32     1.0000 0.41749  0.67977  0.54243  Biso   1.000  Zn
  C521     1.0000 0.10781  0.12762  0.85524  Biso   1.000  C
  C522     1.0000 0.14942  0.17754  0.84256  Biso   1.000  C
  C523     1.0000 0.13141  0.21897  0.83550  Biso   1.000  C
  H313     1.0000 0.09203  0.21577  0.83907  Biso   1.000  H
  C524     1.0000 0.16809  0.26577  0.82332  Biso   1.000  C
  H314     1.0000 0.15203  0.29107  0.81847  Biso   1.000  H
  C525     1.0000 0.22821  0.27439  0.81841  Biso   1.000  C
  C526     1.0000 0.24997  0.23792  0.82635  Biso   1.000  C
  H315     1.0000 0.29213  0.24557  0.82417  Biso   1.000  H
  C527     1.0000 0.21053  0.18933  0.83773  Biso   1.000  C
  H316     1.0000 0.22623  0.16337  0.84237  Biso   1.000  H
  C528     1.0000 0.26807  0.32516  0.80556  Biso   1.000  C
  C529     1.0000 0.26029  0.37916  0.80257  Biso   1.000  C
  H317     1.0000 0.23123  0.38577  0.80917  Biso   1.000  H
  C530     1.0000 0.29588  0.42348  0.78978  Biso   1.000  C
  H318     1.0000 0.29043  0.45967  0.78807  Biso   1.000  H
  C531     1.0000 0.33888  0.41541  0.77962  Biso   1.000  C
  H319     1.0000 0.35943  0.44407  0.77067  Biso   1.000  H
  C532     1.0000 0.35168  0.36461  0.78273  Biso   1.000  C
  C533     1.0000 0.31607  0.32012  0.79587  Biso   1.000  C
  H320     1.0000 0.32453  0.28617  0.79827  Biso   1.000  H
  C534     1.0000 0.40118  0.35792  0.77239  Biso   1.000  C
  C535     1.0000 0.40931  0.37315  0.75528  Biso   1.000  C
  H321     1.0000 0.38063  0.38367  0.74977  Biso   1.000  H
  C536     1.0000 0.45863  0.37267  0.74659  Biso   1.000  C
  H322     1.0000 0.46493  0.38577  0.73537  Biso   1.000  H
  C537     1.0000 0.49973  0.35367  0.75370  Biso   1.000  C
  C538     1.0000 0.49273  0.33597  0.77124  Biso   1.000  C
  H323     1.0000 0.52153  0.32507  0.77647  Biso   1.000  H
  C539     1.0000 0.44093  0.33557  0.78018  Biso   1.000  C
  H324     1.0000 0.43263  0.32067  0.79127  Biso   1.000  H
  C540     1.0000 0.55283  0.35167  0.74419  Biso   1.000  C
  O111     1.0000 0.13164  0.09325  0.86153  Biso   1.000  O
  O112     1.0000 0.05679  0.12593  0.85975  Biso   1.000  O
  O113     1.0000 0.59133  0.33513  0.75182  Biso   1.000  O
  O114     1.0000 0.55232  0.36019  0.72786  Biso   1.000  O
  Zn33     1.0000 0.08416  0.01310  0.87576  Biso   1.000  Zn
  C541     1.0000 0.68647  0.46095  0.68857  Biso   1.000  C
  C542     1.0000 0.69478  0.51087  0.67589  Biso   1.000  C
  C543     1.0000 0.75422  0.55230  0.66883  Biso   1.000  C
  H325     1.0000 0.79040  0.54910  0.67240  Biso   1.000  H
  C544     1.0000 0.76434  0.59910  0.65665  Biso   1.000  C
  H326     1.0000 0.80570  0.62440  0.65180  Biso   1.000  H
  C545     1.0000 0.71284  0.60772  0.65174  Biso   1.000  C
  C546     1.0000 0.65461  0.57125  0.65968  Biso   1.000  C
  H327     1.0000 0.62010  0.57890  0.65750  Biso   1.000  H
  C547     1.0000 0.64546  0.52266  0.67106  Biso   1.000  C
  H328     1.0000 0.60380  0.49670  0.67570  Biso   1.000  H
  C548     1.0000 0.72375  0.65849  0.63889  Biso   1.000  C
  C549     1.0000 0.78553  0.71249  0.63590  Biso   1.000  C
  H329     1.0000 0.82120  0.71910  0.64250  Biso   1.000  H
  C550     1.0000 0.79426  0.75681  0.62311  Biso   1.000  C
  H330     1.0000 0.83590  0.79300  0.62140  Biso   1.000  H
  C551     1.0000 0.74319  0.74874  0.61295  Biso   1.000  C
  H331     1.0000 0.75130  0.77740  0.60400  Biso   1.000  H
  C552     1.0000 0.67959  0.69794  0.61606  Biso   1.000  C
  C553     1.0000 0.67071  0.65345  0.62920  Biso   1.000  C
  H332     1.0000 0.62830  0.61950  0.63160  Biso   1.000  H
  C554     1.0000 0.62340  0.69125  0.60572  Biso   1.000  C
  C555     1.0000 0.63050  0.70648  0.58861  Biso   1.000  C
  H333     1.0000 0.66970  0.71700  0.58310  Biso   1.000  H
  C556     1.0000 0.58070  0.70600  0.57992  Biso   1.000  C
  H334     1.0000 0.58750  0.71910  0.56870  Biso   1.000  H
  C557     1.0000 0.52060  0.68700  0.58703  Biso   1.000  C
  C558     1.0000 0.50990  0.66930  0.60457  Biso   1.000  C
  H335     1.0000 0.47020  0.65840  0.60980  Biso   1.000  H
  C559     1.0000 0.56130  0.66890  0.61351  Biso   1.000  C
  H336     1.0000 0.55470  0.65400  0.62460  Biso   1.000  H
  C560     1.0000 0.46550  0.68500  0.57752  Biso   1.000  C
  O115     1.0000 0.62827  0.42658  0.69486  Biso   1.000  O
  O116     1.0000 0.73580  0.45926  0.69308  Biso   1.000  O
  O117     1.0000 0.41046  0.66846  0.58515  Biso   1.000  O
  O118     1.0000 0.47453  0.69352  0.56119  Biso   1.000  O
  Zn34     1.0000 0.59561  0.34644  0.70909  Biso   1.000  Zn
  C561     1.0000 0.35314  0.79428  0.02190  Biso   1.000  C
  C562     1.0000 0.36145  0.84420  0.00922  Biso   1.000  C
  C563     1.0000 0.42089  0.88563  0.00216  Biso   1.000  C
  H337     1.0000 0.45707  0.88243  0.00573  Biso   1.000  H
  C564     1.0000 0.43101  0.93243  0.98998  Biso   1.000  C
  H338     1.0000 0.47237  0.95773  0.98513  Biso   1.000  H
  C565     1.0000 0.37951  0.94105  0.98507  Biso   1.000  C
  C566     1.0000 0.32128  0.90458  0.99301  Biso   1.000  C
  H339     1.0000 0.28677  0.91223  0.99083  Biso   1.000  H
  C567     1.0000 0.31213  0.85599  0.00439  Biso   1.000  C
  H340     1.0000 0.27047  0.83003  0.00903  Biso   1.000  H
  C568     1.0000 0.39042  0.99182  0.97222  Biso   1.000  C
  C569     1.0000 0.45220  0.04582  0.96923  Biso   1.000  C
  H341     1.0000 0.48787  0.05243  0.97583  Biso   1.000  H
  C570     1.0000 0.46093  0.09014  0.95644  Biso   1.000  C
  H342     1.0000 0.50257  0.12633  0.95473  Biso   1.000  H
  C571     1.0000 0.40986  0.08207  0.94628  Biso   1.000  C
  H343     1.0000 0.41797  0.11073  0.93733  Biso   1.000  H
  C572     1.0000 0.34626  0.03127  0.94939  Biso   1.000  C
  C573     1.0000 0.33738  0.98678  0.96253  Biso   1.000  C
  H344     1.0000 0.29497  0.95283  0.96493  Biso   1.000  H
  C574     1.0000 0.29007  0.02458  0.93905  Biso   1.000  C
  C575     1.0000 0.29717  0.03981  0.92194  Biso   1.000  C
  H345     1.0000 0.33637  0.05033  0.91643  Biso   1.000  H
  C576     1.0000 0.24737  0.03933  0.91325  Biso   1.000  C
  H346     1.0000 0.25417  0.05243  0.90203  Biso   1.000  H
  C577     1.0000 0.18727  0.02033  0.92036  Biso   1.000  C
  C578     1.0000 0.17657  0.00263  0.93790  Biso   1.000  C
  H347     1.0000 0.13687  0.99173  0.94313  Biso   1.000  H
  C579     1.0000 0.22797  0.00223  0.94684  Biso   1.000  C
  H348     1.0000 0.22137  0.98733  0.95793  Biso   1.000  H
  C580     1.0000 0.13217  0.01833  0.91085  Biso   1.000  C
  O119     1.0000 0.29494  0.75991  0.02819  Biso   1.000  O
  O120     1.0000 0.40247  0.79259  0.02641  Biso   1.000  O
  O121     1.0000 0.07713  0.00179  0.91848  Biso   1.000  O
  O122     1.0000 0.14120  0.02685  0.89452  Biso   1.000  O
  Zn35     1.0000 0.26228  0.67977  0.04243  Biso   1.000  Zn
  C581     1.0000 0.01980  0.12762  0.35524  Biso   1.000  C
  C582     1.0000 0.02811  0.17754  0.34256  Biso   1.000  C
  C583     1.0000 0.08755  0.21897  0.33550  Biso   1.000  C
  H349     1.0000 0.12373  0.21577  0.33907  Biso   1.000  H
  C584     1.0000 0.09767  0.26577  0.32332  Biso   1.000  C
  H350     1.0000 0.13903  0.29107  0.31847  Biso   1.000  H
  C585     1.0000 0.04617  0.27439  0.31841  Biso   1.000  C
  C586     1.0000 0.98794  0.23792  0.32635  Biso   1.000  C
  H351     1.0000 0.95343  0.24557  0.32417  Biso   1.000  H
  C587     1.0000 0.97879  0.18933  0.33773  Biso   1.000  C
  H352     1.0000 0.93713  0.16337  0.34237  Biso   1.000  H
  C588     1.0000 0.05708  0.32516  0.30556  Biso   1.000  C
  C589     1.0000 0.11886  0.37916  0.30257  Biso   1.000  C
  H353     1.0000 0.15453  0.38577  0.30917  Biso   1.000  H
  C590     1.0000 0.12759  0.42348  0.28978  Biso   1.000  C
  H354     1.0000 0.16923  0.45967  0.28807  Biso   1.000  H
  C591     1.0000 0.07652  0.41541  0.27962  Biso   1.000  C
  H355     1.0000 0.08463  0.44407  0.27067  Biso   1.000  H
  C592     1.0000 0.01292  0.36461  0.28273  Biso   1.000  C
  C593     1.0000 0.00404  0.32012  0.29587  Biso   1.000  C
  H356     1.0000 0.96163  0.28617  0.29827  Biso   1.000  H
  C594     1.0000 0.95673  0.35792  0.27239  Biso   1.000  C
  C595     1.0000 0.96383  0.37315  0.25528  Biso   1.000  C
  H357     1.0000 0.00303  0.38367  0.24977  Biso   1.000  H
  C596     1.0000 0.91403  0.37267  0.24659  Biso   1.000  C
  H358     1.0000 0.92083  0.38577  0.23537  Biso   1.000  H
  C597     1.0000 0.85393  0.35367  0.25370  Biso   1.000  C
  C598     1.0000 0.84323  0.33597  0.27124  Biso   1.000  C
  H359     1.0000 0.80353  0.32507  0.27647  Biso   1.000  H
  C599     1.0000 0.89463  0.33557  0.28018  Biso   1.000  C
  H360     1.0000 0.88803  0.32067  0.29127  Biso   1.000  H
  C600     1.0000 0.79883  0.35167  0.24419  Biso   1.000  C
  O123     1.0000 0.96160  0.09325  0.36153  Biso   1.000  O
  O124     1.0000 0.06913  0.12593  0.35975  Biso   1.000  O
  O125     1.0000 0.74379  0.33513  0.25182  Biso   1.000  O
  O126     1.0000 0.80786  0.36019  0.22786  Biso   1.000  O
  Zn36     1.0000 0.92895  0.01310  0.37576  Biso   1.000  Zn
  C601     1.0000 0.77448  0.31353  0.68857  Biso   1.000  C
  C602     1.0000 0.81609  0.30522  0.67589  Biso   1.000  C
  C603     1.0000 0.79808  0.24578  0.66883  Biso   1.000  C
  H361     1.0000 0.75870  0.20960  0.67240  Biso   1.000  H
  C604     1.0000 0.83476  0.23566  0.65665  Biso   1.000  C
  H362     1.0000 0.81870  0.19430  0.65180  Biso   1.000  H
  C605     1.0000 0.89488  0.28716  0.65174  Biso   1.000  C
  C606     1.0000 0.91664  0.34539  0.65968  Biso   1.000  C
  H363     1.0000 0.95880  0.37990  0.65750  Biso   1.000  H
  C607     1.0000 0.87720  0.35454  0.67106  Biso   1.000  C
  H364     1.0000 0.89290  0.39620  0.67570  Biso   1.000  H
  C608     1.0000 0.93474  0.27625  0.63889  Biso   1.000  C
  C609     1.0000 0.92696  0.21447  0.63590  Biso   1.000  C
  H365     1.0000 0.89790  0.17880  0.64250  Biso   1.000  H
  C610     1.0000 0.96255  0.20574  0.62311  Biso   1.000  C
  H366     1.0000 0.95710  0.16410  0.62140  Biso   1.000  H
  C611     1.0000 0.00555  0.25681  0.61295  Biso   1.000  C
  H367     1.0000 0.02610  0.24870  0.60400  Biso   1.000  H
  C612     1.0000 0.01835  0.32041  0.61606  Biso   1.000  C
  C613     1.0000 0.98274  0.32929  0.62920  Biso   1.000  C
  H368     1.0000 0.99120  0.37170  0.63160  Biso   1.000  H
  C614     1.0000 0.06785  0.37660  0.60572  Biso   1.000  C
  C615     1.0000 0.07598  0.36950  0.58861  Biso   1.000  C
  H369     1.0000 0.04730  0.33030  0.58310  Biso   1.000  H
  C616     1.0000 0.12530  0.41930  0.57992  Biso   1.000  C
  H370     1.0000 0.13160  0.41250  0.56870  Biso   1.000  H
  C617     1.0000 0.16640  0.47940  0.58703  Biso   1.000  C
  C618     1.0000 0.15940  0.49010  0.60457  Biso   1.000  C
  H371     1.0000 0.18820  0.52980  0.60980  Biso   1.000  H
  C619     1.0000 0.10760  0.43870  0.61351  Biso   1.000  C
  H372     1.0000 0.09930  0.44530  0.62460  Biso   1.000  H
  C620     1.0000 0.21950  0.53450  0.57752  Biso   1.000  C
  O127     1.0000 0.79831  0.37173  0.69486  Biso   1.000  O
  O128     1.0000 0.72346  0.26420  0.69308  Biso   1.000  O
  O129     1.0000 0.25800  0.58954  0.58515  Biso   1.000  O
  O130     1.0000 0.21899  0.52547  0.56119  Biso   1.000  O
  Zn37     1.0000 0.75082  0.40439  0.70909  Biso   1.000  Zn
  C621     1.0000 0.44115  0.64686  0.02190  Biso   1.000  C
  C622     1.0000 0.48276  0.63855  0.00922  Biso   1.000  C
  C623     1.0000 0.46475  0.57911  0.00216  Biso   1.000  C
  H373     1.0000 0.42537  0.54293  0.00573  Biso   1.000  H
  C624     1.0000 0.50143  0.56899  0.98998  Biso   1.000  C
  H374     1.0000 0.48537  0.52763  0.98513  Biso   1.000  H
  C625     1.0000 0.56155  0.62049  0.98507  Biso   1.000  C
  C626     1.0000 0.58331  0.67872  0.99301  Biso   1.000  C
  H375     1.0000 0.62547  0.71323  0.99083  Biso   1.000  H
  C627     1.0000 0.54387  0.68787  0.00439  Biso   1.000  C
  H376     1.0000 0.55957  0.72953  0.00903  Biso   1.000  H
  C628     1.0000 0.60141  0.60958  0.97222  Biso   1.000  C
  C629     1.0000 0.59363  0.54780  0.96923  Biso   1.000  C
  H377     1.0000 0.56457  0.51213  0.97583  Biso   1.000  H
  C630     1.0000 0.62922  0.53907  0.95644  Biso   1.000  C
  H378     1.0000 0.62377  0.49743  0.95473  Biso   1.000  H
  C631     1.0000 0.67222  0.59014  0.94628  Biso   1.000  C
  H379     1.0000 0.69277  0.58203  0.93733  Biso   1.000  H
  C632     1.0000 0.68502  0.65374  0.94939  Biso   1.000  C
  C633     1.0000 0.64941  0.66262  0.96253  Biso   1.000  C
  H380     1.0000 0.65787  0.70503  0.96493  Biso   1.000  H
  C634     1.0000 0.73452  0.70993  0.93905  Biso   1.000  C
  C635     1.0000 0.74265  0.70283  0.92194  Biso   1.000  C
  H381     1.0000 0.71397  0.66363  0.91643  Biso   1.000  H
  C636     1.0000 0.79197  0.75263  0.91325  Biso   1.000  C
  H382     1.0000 0.79827  0.74583  0.90203  Biso   1.000  H
  C637     1.0000 0.83307  0.81273  0.92036  Biso   1.000  C
  C638     1.0000 0.82607  0.82343  0.93790  Biso   1.000  C
  H383     1.0000 0.85487  0.86313  0.94313  Biso   1.000  H
  C639     1.0000 0.77427  0.77203  0.94684  Biso   1.000  C
  H384     1.0000 0.76597  0.77863  0.95793  Biso   1.000  H
  C640     1.0000 0.88617  0.86783  0.91085  Biso   1.000  C
  O131     1.0000 0.46498  0.70506  0.02819  Biso   1.000  O
  O132     1.0000 0.39013  0.59753  0.02641  Biso   1.000  O
  O133     1.0000 0.92467  0.92287  0.91848  Biso   1.000  O
  O134     1.0000 0.88566  0.85880  0.89452  Biso   1.000  O
  Zn38     1.0000 0.41749  0.73772  0.04243  Biso   1.000  Zn
  C641     1.0000 0.10781  0.98020  0.35524  Biso   1.000  C
  C642     1.0000 0.14942  0.97189  0.34256  Biso   1.000  C
  C643     1.0000 0.13141  0.91245  0.33550  Biso   1.000  C
  H385     1.0000 0.09203  0.87627  0.33907  Biso   1.000  H
  C644     1.0000 0.16809  0.90233  0.32332  Biso   1.000  C
  H386     1.0000 0.15203  0.86097  0.31847  Biso   1.000  H
  C645     1.0000 0.22821  0.95383  0.31841  Biso   1.000  C
  C646     1.0000 0.24997  0.01206  0.32635  Biso   1.000  C
  H387     1.0000 0.29213  0.04657  0.32417  Biso   1.000  H
  C647     1.0000 0.21053  0.02121  0.33773  Biso   1.000  C
  H388     1.0000 0.22623  0.06287  0.34237  Biso   1.000  H
  C648     1.0000 0.26807  0.94292  0.30556  Biso   1.000  C
  C649     1.0000 0.26029  0.88114  0.30257  Biso   1.000  C
  H389     1.0000 0.23123  0.84547  0.30917  Biso   1.000  H
  C650     1.0000 0.29588  0.87241  0.28978  Biso   1.000  C
  H390     1.0000 0.29043  0.83077  0.28807  Biso   1.000  H
  C651     1.0000 0.33888  0.92348  0.27962  Biso   1.000  C
  H391     1.0000 0.35943  0.91537  0.27067  Biso   1.000  H
  C652     1.0000 0.35168  0.98708  0.28273  Biso   1.000  C
  C653     1.0000 0.31607  0.99596  0.29587  Biso   1.000  C
  H392     1.0000 0.32453  0.03837  0.29827  Biso   1.000  H
  C654     1.0000 0.40118  0.04327  0.27239  Biso   1.000  C
  C655     1.0000 0.40931  0.03617  0.25528  Biso   1.000  C
  H393     1.0000 0.38063  0.99697  0.24977  Biso   1.000  H
  C656     1.0000 0.45863  0.08597  0.24659  Biso   1.000  C
  H394     1.0000 0.46493  0.07917  0.23537  Biso   1.000  H
  C657     1.0000 0.49973  0.14607  0.25370  Biso   1.000  C
  C658     1.0000 0.49273  0.15677  0.27124  Biso   1.000  C
  H395     1.0000 0.52153  0.19647  0.27647  Biso   1.000  H
  C659     1.0000 0.44093  0.10537  0.28018  Biso   1.000  C
  H396     1.0000 0.43263  0.11197  0.29127  Biso   1.000  H
  C660     1.0000 0.55283  0.20117  0.24419  Biso   1.000  C
  O135     1.0000 0.13164  0.03840  0.36153  Biso   1.000  O
  O136     1.0000 0.05679  0.93087  0.35975  Biso   1.000  O
  O137     1.0000 0.59133  0.25621  0.25182  Biso   1.000  O
  O138     1.0000 0.55232  0.19214  0.22786  Biso   1.000  O
  Zn39     1.0000 0.08416  0.07105  0.37576  Biso   1.000  Zn
  C661     1.0000 0.53905  0.22552  0.68857  Biso   1.000  C
  C662     1.0000 0.48913  0.18391  0.67589  Biso   1.000  C
  C663     1.0000 0.44770  0.20192  0.66883  Biso   1.000  C
  H397     1.0000 0.45090  0.24130  0.67240  Biso   1.000  H
  C664     1.0000 0.40090  0.16524  0.65665  Biso   1.000  C
  H398     1.0000 0.37560  0.18130  0.65180  Biso   1.000  H
  C665     1.0000 0.39228  0.10512  0.65174  Biso   1.000  C
  C666     1.0000 0.42875  0.08336  0.65968  Biso   1.000  C
  H399     1.0000 0.42110  0.04120  0.65750  Biso   1.000  H
  C667     1.0000 0.47734  0.12280  0.67106  Biso   1.000  C
  H400     1.0000 0.50330  0.10710  0.67570  Biso   1.000  H
  C668     1.0000 0.34151  0.06526  0.63889  Biso   1.000  C
  C669     1.0000 0.28751  0.07304  0.63590  Biso   1.000  C
  H401     1.0000 0.28090  0.10210  0.64250  Biso   1.000  H
  C670     1.0000 0.24319  0.03745  0.62311  Biso   1.000  C
  H402     1.0000 0.20700  0.04290  0.62140  Biso   1.000  H
  C671     1.0000 0.25126  0.99445  0.61295  Biso   1.000  C
  H403     1.0000 0.22260  0.97390  0.60400  Biso   1.000  H
  C672     1.0000 0.30206  0.98165  0.61606  Biso   1.000  C
  C673     1.0000 0.34655  0.01726  0.62920  Biso   1.000  C
  H404     1.0000 0.38050  0.00880  0.63160  Biso   1.000  H
  C674     1.0000 0.30875  0.93215  0.60572  Biso   1.000  C
  C675     1.0000 0.29352  0.92402  0.58861  Biso   1.000  C
  H405     1.0000 0.28300  0.95270  0.58310  Biso   1.000  H
  C676     1.0000 0.29400  0.87470  0.57992  Biso   1.000  C
  H406     1.0000 0.28090  0.86840  0.56870  Biso   1.000  H
  C677     1.0000 0.31300  0.83360  0.58703  Biso   1.000  C
  C678     1.0000 0.33070  0.84060  0.60457  Biso   1.000  C
  H407     1.0000 0.34160  0.81180  0.60980  Biso   1.000  H
  C679     1.0000 0.33110  0.89240  0.61351  Biso   1.000  C
  H408     1.0000 0.34600  0.90070  0.62460  Biso   1.000  H
  C680     1.0000 0.31500  0.78050  0.57752  Biso   1.000  C
  O139     1.0000 0.57342  0.20169  0.69486  Biso   1.000  O
  O140     1.0000 0.54074  0.27654  0.69308  Biso   1.000  O
  O141     1.0000 0.33154  0.74200  0.58515  Biso   1.000  O
  O142     1.0000 0.30648  0.78101  0.56119  Biso   1.000  O
  Zn40     1.0000 0.65356  0.24918  0.70909  Biso   1.000  Zn
  C681     1.0000 0.20572  0.55885  0.02190  Biso   1.000  C
  C682     1.0000 0.15580  0.51724  0.00922  Biso   1.000  C
  C683     1.0000 0.11437  0.53525  0.00216  Biso   1.000  C
  H409     1.0000 0.11757  0.57463  0.00573  Biso   1.000  H
  C684     1.0000 0.06757  0.49857  0.98998  Biso   1.000  C
  H410     1.0000 0.04227  0.51463  0.98513  Biso   1.000  H
  C685     1.0000 0.05895  0.43845  0.98507  Biso   1.000  C
  C686     1.0000 0.09542  0.41669  0.99301  Biso   1.000  C
  H411     1.0000 0.08777  0.37453  0.99083  Biso   1.000  H
  C687     1.0000 0.14401  0.45613  0.00439  Biso   1.000  C
  H412     1.0000 0.16997  0.44043  0.00903  Biso   1.000  H
  C688     1.0000 0.00818  0.39859  0.97222  Biso   1.000  C
  C689     1.0000 0.95418  0.40637  0.96923  Biso   1.000  C
  H413     1.0000 0.94757  0.43543  0.97583  Biso   1.000  H
  C690     1.0000 0.90986  0.37078  0.95644  Biso   1.000  C
  H414     1.0000 0.87367  0.37623  0.95473  Biso   1.000  H
  C691     1.0000 0.91793  0.32778  0.94628  Biso   1.000  C
  H415     1.0000 0.88927  0.30723  0.93733  Biso   1.000  H
  C692     1.0000 0.96873  0.31498  0.94939  Biso   1.000  C
  C693     1.0000 0.01322  0.35059  0.96253  Biso   1.000  C
  H416     1.0000 0.04717  0.34213  0.96493  Biso   1.000  H
  C694     1.0000 0.97542  0.26548  0.93905  Biso   1.000  C
  C695     1.0000 0.96019  0.25735  0.92194  Biso   1.000  C
  H417     1.0000 0.94967  0.28603  0.91643  Biso   1.000  H
  C696     1.0000 0.96067  0.20803  0.91325  Biso   1.000  C
  H418     1.0000 0.94757  0.20173  0.90203  Biso   1.000  H
  C697     1.0000 0.97967  0.16693  0.92036  Biso   1.000  C
  C698     1.0000 0.99737  0.17393  0.93790  Biso   1.000  C
  H419     1.0000 0.00827  0.14513  0.94313  Biso   1.000  H
  C699     1.0000 0.99777  0.22573  0.94684  Biso   1.000  C
  H420     1.0000 0.01267  0.23403  0.95793  Biso   1.000  H
  C700     1.0000 0.98167  0.11383  0.91085  Biso   1.000  C
  O143     1.0000 0.24009  0.53502  0.02819  Biso   1.000  O
  O144     1.0000 0.20741  0.60987  0.02641  Biso   1.000  O
  O145     1.0000 0.99821  0.07533  0.91848  Biso   1.000  O
  O146     1.0000 0.97315  0.11434  0.89452  Biso   1.000  O
  Zn41     1.0000 0.32023  0.58251  0.04243  Biso   1.000  Zn
  C701     1.0000 0.87238  0.89219  0.35524  Biso   1.000  C
  C702     1.0000 0.82246  0.85058  0.34256  Biso   1.000  C
  C703     1.0000 0.78103  0.86859  0.33550  Biso   1.000  C
  H421     1.0000 0.78423  0.90797  0.33907  Biso   1.000  H
  C704     1.0000 0.73423  0.83191  0.32332  Biso   1.000  C
  H422     1.0000 0.70893  0.84797  0.31847  Biso   1.000  H
  C705     1.0000 0.72561  0.77179  0.31841  Biso   1.000  C
  C706     1.0000 0.76208  0.75003  0.32635  Biso   1.000  C
  H423     1.0000 0.75443  0.70787  0.32417  Biso   1.000  H
  C707     1.0000 0.81067  0.78947  0.33773  Biso   1.000  C
  H424     1.0000 0.83663  0.77377  0.34237  Biso   1.000  H
  C708     1.0000 0.67484  0.73193  0.30556  Biso   1.000  C
  C709     1.0000 0.62084  0.73971  0.30257  Biso   1.000  C
  H425     1.0000 0.61423  0.76877  0.30917  Biso   1.000  H
  C710     1.0000 0.57652  0.70412  0.28978  Biso   1.000  C
  H426     1.0000 0.54033  0.70957  0.28807  Biso   1.000  H
  C711     1.0000 0.58459  0.66112  0.27962  Biso   1.000  C
  H427     1.0000 0.55593  0.64057  0.27067  Biso   1.000  H
  C712     1.0000 0.63539  0.64832  0.28273  Biso   1.000  C
  C713     1.0000 0.67988  0.68393  0.29587  Biso   1.000  C
  H428     1.0000 0.71383  0.67547  0.29827  Biso   1.000  H
  C714     1.0000 0.64208  0.59882  0.27239  Biso   1.000  C
  C715     1.0000 0.62685  0.59069  0.25528  Biso   1.000  C
  H429     1.0000 0.61633  0.61937  0.24977  Biso   1.000  H
  C716     1.0000 0.62733  0.54137  0.24659  Biso   1.000  C
  H430     1.0000 0.61423  0.53507  0.23537  Biso   1.000  H
  C717     1.0000 0.64633  0.50027  0.25370  Biso   1.000  C
  C718     1.0000 0.66403  0.50727  0.27124  Biso   1.000  C
  H431     1.0000 0.67493  0.47847  0.27647  Biso   1.000  H
  C719     1.0000 0.66443  0.55907  0.28018  Biso   1.000  C
  H432     1.0000 0.67933  0.56737  0.29127  Biso   1.000  H
  C720     1.0000 0.64833  0.44717  0.24419  Biso   1.000  C
  O147     1.0000 0.90675  0.86836  0.36153  Biso   1.000  O
  O148     1.0000 0.87407  0.94321  0.35975  Biso   1.000  O
  O149     1.0000 0.66487  0.40867  0.25182  Biso   1.000  O
  O150     1.0000 0.63981  0.44768  0.22786  Biso   1.000  O
  Zn42     1.0000 0.98690  0.91584  0.37576  Biso   1.000  Zn
  O151     1.0000 0.66667  0.33333  0.21723  Biso   1.000  O
  Zn43     1.0000 0.66667  0.33333  0.24189  Biso   1.000  Zn
  O152     1.0000 0.33333  0.66667  0.55056  Biso   1.000  O
  Zn44     1.0000 0.33333  0.66667  0.57522  Biso   1.000  Zn
  O153     1.0000 0.00000  0.00000  0.88390  Biso   1.000  O
  Zn45     1.0000 0.00000  0.00000  0.90855  Biso   1.000  Zn
  O154     1.0000 0.66667  0.33333  0.71723  Biso   1.000  O
  Zn46     1.0000 0.66667  0.33333  0.74189  Biso   1.000  Zn
  O155     1.0000 0.33333  0.66667  0.05056  Biso   1.000  O
  Zn47     1.0000 0.33333  0.66667  0.07522  Biso   1.000  Zn
  O156     1.0000 0.00000  0.00000  0.38390  Biso   1.000  O
  Zn48     1.0000 0.00000  0.00000  0.40855  Biso   1.000  Zn
