data_DUYROF_clean
_audit_creation_date              2014-07-02
_audit_creation_method            'Materials Studio'
_symmetry_space_group_name_H-M    'P1'
_symmetry_Int_Tables_number       1
_symmetry_cell_setting            triclinic
loop_
_symmetry_equiv_pos_as_xyz
  x,y,z
_cell_length_a                    20.4990
_cell_length_b                    23.5560
_cell_length_c                    29.8230
_cell_angle_alpha                 90.0000
_cell_angle_beta                  90.0000
_cell_angle_gamma                 90.0000
loop_
_atom_site_label
_atom_site_type_symbol
_atom_site_fract_x
_atom_site_fract_y
_atom_site_fract_z
_atom_site_U_iso_or_equiv
_atom_site_adp_type
_atom_site_occupancy
La1    La    0.90653   0.52825   0.68469   0.01267  Uiso   1.00
La2    La    0.62053   0.30589   0.05053   0.01267  Uiso   1.00
La3    La    0.00417   0.26952   0.85308   0.01267  Uiso   1.00
La4    La    0.09347   0.97175   0.18469   0.01267  Uiso   1.00
La5    La    0.37947   0.19411   0.55053   0.01267  Uiso   1.00
La6    La    0.99583   0.23048   0.35308   0.01267  Uiso   1.00
La7    La    0.40653   0.47175   0.81531   0.01267  Uiso   1.00
La8    La    0.12053   0.69411   0.44947   0.01267  Uiso   1.00
La9    La    0.50417   0.73048   0.64692   0.01267  Uiso   1.00
La10   La    0.59347   0.02825   0.31531   0.01267  Uiso   1.00
La11   La    0.87947   0.80589   0.94947   0.01267  Uiso   1.00
La12   La    0.49583   0.76952   0.14692   0.01267  Uiso   1.00
La13   La    0.09347   0.47175   0.31531   0.01267  Uiso   1.00
La14   La    0.37947   0.69411   0.94947   0.01267  Uiso   1.00
La15   La    0.99583   0.73048   0.14692   0.01267  Uiso   1.00
La16   La    0.90653   0.02825   0.81531   0.01267  Uiso   1.00
La17   La    0.62053   0.80589   0.44947   0.01267  Uiso   1.00
La18   La    0.00417   0.76952   0.64692   0.01267  Uiso   1.00
La19   La    0.59347   0.52825   0.18469   0.01267  Uiso   1.00
La20   La    0.87947   0.30589   0.55053   0.01267  Uiso   1.00
La21   La    0.49583   0.26952   0.35308   0.01267  Uiso   1.00
La22   La    0.40653   0.97175   0.68469   0.01267  Uiso   1.00
La23   La    0.12053   0.19411   0.05053   0.01267  Uiso   1.00
La24   La    0.50417   0.23048   0.85308   0.01267  Uiso   1.00
H1     H     0.86080   0.24620   0.97600   0.01267  Uiso   1.00
H2     H     0.82060   0.20020   0.91240   0.01267  Uiso   1.00
H3     H     0.14810   0.57900   0.81110   0.01267  Uiso   1.00
H4     H     0.10060   0.48690   0.81050   0.01267  Uiso   1.00
H5     H     0.71380   0.21270   0.89110   0.01267  Uiso   1.00
H6     H     0.63280   0.49190   0.59000   0.01267  Uiso   1.00
H7     H     0.71560   0.42470   0.58220   0.01267  Uiso   1.00
H8     H     0.65190   0.57390   0.62940   0.01267  Uiso   1.00
H9     H     0.10440   0.65070   0.76610   0.01267  Uiso   1.00
H10    H     0.13920   0.25380   0.47600   0.01267  Uiso   1.00
H11    H     0.17940   0.29980   0.41240   0.01267  Uiso   1.00
H12    H     0.85190   0.92100   0.31110   0.01267  Uiso   1.00
H13    H     0.89940   0.01310   0.31050   0.01267  Uiso   1.00
H14    H     0.28620   0.28730   0.39110   0.01267  Uiso   1.00
H15    H     0.36720   0.00810   0.09000   0.01267  Uiso   1.00
H16    H     0.28440   0.07530   0.08220   0.01267  Uiso   1.00
H17    H     0.34810   0.92610   0.12940   0.01267  Uiso   1.00
H18    H     0.89560   0.84930   0.26610   0.01267  Uiso   1.00
H19    H     0.36080   0.75380   0.52400   0.01267  Uiso   1.00
H20    H     0.32060   0.79980   0.58760   0.01267  Uiso   1.00
H21    H     0.64810   0.42100   0.68890   0.01267  Uiso   1.00
H22    H     0.60060   0.51310   0.68950   0.01267  Uiso   1.00
H23    H     0.21380   0.78730   0.60890   0.01267  Uiso   1.00
H24    H     0.13280   0.50810   0.91000   0.01267  Uiso   1.00
H25    H     0.21560   0.57530   0.91780   0.01267  Uiso   1.00
H26    H     0.15190   0.42610   0.87060   0.01267  Uiso   1.00
H27    H     0.60440   0.34930   0.73390   0.01267  Uiso   1.00
H28    H     0.63920   0.74620   0.02400   0.01267  Uiso   1.00
H29    H     0.67940   0.70020   0.08760   0.01267  Uiso   1.00
H30    H     0.35190   0.07900   0.18890   0.01267  Uiso   1.00
H31    H     0.39940   0.98690   0.18950   0.01267  Uiso   1.00
H32    H     0.78620   0.71270   0.10890   0.01267  Uiso   1.00
H33    H     0.86720   0.99190   0.41000   0.01267  Uiso   1.00
H34    H     0.78440   0.92470   0.41780   0.01267  Uiso   1.00
H35    H     0.84810   0.07390   0.37060   0.01267  Uiso   1.00
H36    H     0.39560   0.15070   0.23390   0.01267  Uiso   1.00
H37    H     0.13920   0.75380   0.02400   0.01267  Uiso   1.00
H38    H     0.17940   0.79980   0.08760   0.01267  Uiso   1.00
H39    H     0.85190   0.42100   0.18890   0.01267  Uiso   1.00
H40    H     0.89940   0.51310   0.18950   0.01267  Uiso   1.00
H41    H     0.28620   0.78730   0.10890   0.01267  Uiso   1.00
H42    H     0.36720   0.50810   0.41000   0.01267  Uiso   1.00
H43    H     0.28440   0.57530   0.41780   0.01267  Uiso   1.00
H44    H     0.34810   0.42610   0.37060   0.01267  Uiso   1.00
H45    H     0.89560   0.34930   0.23390   0.01267  Uiso   1.00
H46    H     0.86080   0.74620   0.52400   0.01267  Uiso   1.00
H47    H     0.82060   0.70020   0.58760   0.01267  Uiso   1.00
H48    H     0.14810   0.07900   0.68890   0.01267  Uiso   1.00
H49    H     0.10060   0.98690   0.68950   0.01267  Uiso   1.00
H50    H     0.71380   0.71270   0.60890   0.01267  Uiso   1.00
H51    H     0.63280   0.99190   0.91000   0.01267  Uiso   1.00
H52    H     0.71560   0.92470   0.91780   0.01267  Uiso   1.00
H53    H     0.65190   0.07390   0.87060   0.01267  Uiso   1.00
H54    H     0.10440   0.15070   0.73390   0.01267  Uiso   1.00
H55    H     0.63920   0.24620   0.47600   0.01267  Uiso   1.00
H56    H     0.67940   0.20020   0.41240   0.01267  Uiso   1.00
H57    H     0.35190   0.57900   0.31110   0.01267  Uiso   1.00
H58    H     0.39940   0.48690   0.31050   0.01267  Uiso   1.00
H59    H     0.78620   0.21270   0.39110   0.01267  Uiso   1.00
H60    H     0.86720   0.49190   0.09000   0.01267  Uiso   1.00
H61    H     0.78440   0.42470   0.08220   0.01267  Uiso   1.00
H62    H     0.84810   0.57390   0.12940   0.01267  Uiso   1.00
H63    H     0.39560   0.65070   0.26610   0.01267  Uiso   1.00
H64    H     0.36080   0.25380   0.97600   0.01267  Uiso   1.00
H65    H     0.32060   0.29980   0.91240   0.01267  Uiso   1.00
H66    H     0.64810   0.92100   0.81110   0.01267  Uiso   1.00
H67    H     0.60060   0.01310   0.81050   0.01267  Uiso   1.00
H68    H     0.21380   0.28730   0.89110   0.01267  Uiso   1.00
H69    H     0.13280   0.00810   0.59000   0.01267  Uiso   1.00
H70    H     0.21560   0.07530   0.58220   0.01267  Uiso   1.00
H71    H     0.15190   0.92610   0.62940   0.01267  Uiso   1.00
H72    H     0.60440   0.84930   0.76610   0.01267  Uiso   1.00
W1     W     0.87021   0.40304   0.86749   0.01267  Uiso   1.00
W2     W     0.93433   0.52319   0.90072   0.01267  Uiso   1.00
W3     W     0.66184   0.62945   0.90844   0.01267  Uiso   1.00
W4     W     0.84985   0.59963   0.80816   0.01267  Uiso   1.00
W5     W     0.84814   0.44539   0.97073   0.01267  Uiso   1.00
W6     W     0.59715   0.49119   0.86955   0.01267  Uiso   1.00
W7     W     0.81952   0.63940   0.92614   0.01267  Uiso   1.00
W8     W     0.69306   0.58056   0.79207   0.01267  Uiso   1.00
W9     W     0.69335   0.38319   0.84647   0.01267  Uiso   1.00
W10    W     0.79272   0.47765   0.77482   0.01267  Uiso   1.00
W11    W     0.67242   0.42321   0.95039   0.01267  Uiso   1.00
W12    W     0.72974   0.56167   0.99332   0.01267  Uiso   1.00
W13    W     0.12979   0.09696   0.36749   0.01267  Uiso   1.00
W14    W     0.06567   0.97681   0.40072   0.01267  Uiso   1.00
W15    W     0.33816   0.87055   0.40844   0.01267  Uiso   1.00
W16    W     0.15015   0.90037   0.30816   0.01267  Uiso   1.00
W17    W     0.15186   0.05461   0.47073   0.01267  Uiso   1.00
W18    W     0.40285   0.00881   0.36955   0.01267  Uiso   1.00
W19    W     0.18048   0.86060   0.42614   0.01267  Uiso   1.00
W20    W     0.30694   0.91945   0.29207   0.01267  Uiso   1.00
W21    W     0.30665   0.11681   0.34647   0.01267  Uiso   1.00
W22    W     0.20728   0.02235   0.27482   0.01267  Uiso   1.00
W23    W     0.32758   0.07679   0.45039   0.01267  Uiso   1.00
W24    W     0.27026   0.93833   0.49332   0.01267  Uiso   1.00
W25    W     0.37021   0.59696   0.63251   0.01267  Uiso   1.00
W26    W     0.43433   0.47681   0.59929   0.01267  Uiso   1.00
W27    W     0.16184   0.37055   0.59156   0.01267  Uiso   1.00
W28    W     0.34985   0.40037   0.69184   0.01267  Uiso   1.00
W29    W     0.34814   0.55461   0.52927   0.01267  Uiso   1.00
W30    W     0.09715   0.50881   0.63045   0.01267  Uiso   1.00
W31    W     0.31952   0.36060   0.57386   0.01267  Uiso   1.00
W32    W     0.19306   0.41945   0.70793   0.01267  Uiso   1.00
W33    W     0.19335   0.61681   0.65353   0.01267  Uiso   1.00
W34    W     0.29272   0.52235   0.72518   0.01267  Uiso   1.00
W35    W     0.17242   0.57679   0.54961   0.01267  Uiso   1.00
W36    W     0.22974   0.43833   0.50668   0.01267  Uiso   1.00
W37    W     0.62979   0.90304   0.13251   0.01267  Uiso   1.00
W38    W     0.56567   0.02319   0.09929   0.01267  Uiso   1.00
W39    W     0.83816   0.12945   0.09156   0.01267  Uiso   1.00
W40    W     0.65015   0.09963   0.19184   0.01267  Uiso   1.00
W41    W     0.65186   0.94539   0.02928   0.01267  Uiso   1.00
W42    W     0.90285   0.99119   0.13045   0.01267  Uiso   1.00
W43    W     0.68048   0.13940   0.07386   0.01267  Uiso   1.00
W44    W     0.80694   0.08056   0.20793   0.01267  Uiso   1.00
W45    W     0.80665   0.88319   0.15353   0.01267  Uiso   1.00
W46    W     0.70728   0.97765   0.22518   0.01267  Uiso   1.00
W47    W     0.82758   0.92321   0.04961   0.01267  Uiso   1.00
W48    W     0.77026   0.06167   0.00668   0.01267  Uiso   1.00
W49    W     0.12979   0.59696   0.13251   0.01267  Uiso   1.00
W50    W     0.06567   0.47681   0.09929   0.01267  Uiso   1.00
W51    W     0.33816   0.37055   0.09156   0.01267  Uiso   1.00
W52    W     0.15015   0.40037   0.19184   0.01267  Uiso   1.00
W53    W     0.15186   0.55461   0.02928   0.01267  Uiso   1.00
W54    W     0.40285   0.50881   0.13045   0.01267  Uiso   1.00
W55    W     0.18048   0.36060   0.07386   0.01267  Uiso   1.00
W56    W     0.30694   0.41945   0.20793   0.01267  Uiso   1.00
W57    W     0.30665   0.61681   0.15353   0.01267  Uiso   1.00
W58    W     0.20728   0.52235   0.22518   0.01267  Uiso   1.00
W59    W     0.32758   0.57679   0.04961   0.01267  Uiso   1.00
W60    W     0.27026   0.43833   0.00668   0.01267  Uiso   1.00
W61    W     0.87021   0.90304   0.63251   0.01267  Uiso   1.00
W62    W     0.93433   0.02319   0.59929   0.01267  Uiso   1.00
W63    W     0.66184   0.12945   0.59156   0.01267  Uiso   1.00
W64    W     0.84985   0.09963   0.69184   0.01267  Uiso   1.00
W65    W     0.84814   0.94539   0.52927   0.01267  Uiso   1.00
W66    W     0.59715   0.99119   0.63045   0.01267  Uiso   1.00
W67    W     0.81952   0.13940   0.57386   0.01267  Uiso   1.00
W68    W     0.69306   0.08056   0.70793   0.01267  Uiso   1.00
W69    W     0.69335   0.88319   0.65353   0.01267  Uiso   1.00
W70    W     0.79272   0.97765   0.72518   0.01267  Uiso   1.00
W71    W     0.67242   0.92321   0.54961   0.01267  Uiso   1.00
W72    W     0.72974   0.06167   0.50668   0.01267  Uiso   1.00
W73    W     0.62979   0.40304   0.36749   0.01267  Uiso   1.00
W74    W     0.56567   0.52319   0.40072   0.01267  Uiso   1.00
W75    W     0.83816   0.62945   0.40844   0.01267  Uiso   1.00
W76    W     0.65015   0.59963   0.30816   0.01267  Uiso   1.00
W77    W     0.65186   0.44539   0.47073   0.01267  Uiso   1.00
W78    W     0.90285   0.49119   0.36955   0.01267  Uiso   1.00
W79    W     0.68048   0.63940   0.42614   0.01267  Uiso   1.00
W80    W     0.80694   0.58056   0.29207   0.01267  Uiso   1.00
W81    W     0.80665   0.38319   0.34647   0.01267  Uiso   1.00
W82    W     0.70728   0.47765   0.27482   0.01267  Uiso   1.00
W83    W     0.82758   0.42321   0.45039   0.01267  Uiso   1.00
W84    W     0.77026   0.56167   0.49332   0.01267  Uiso   1.00
W85    W     0.37021   0.09696   0.86749   0.01267  Uiso   1.00
W86    W     0.43433   0.97681   0.90072   0.01267  Uiso   1.00
W87    W     0.16184   0.87055   0.90844   0.01267  Uiso   1.00
W88    W     0.34985   0.90037   0.80816   0.01267  Uiso   1.00
W89    W     0.34814   0.05461   0.97073   0.01267  Uiso   1.00
W90    W     0.09715   0.00881   0.86955   0.01267  Uiso   1.00
W91    W     0.31952   0.86060   0.92614   0.01267  Uiso   1.00
W92    W     0.19306   0.91945   0.79207   0.01267  Uiso   1.00
W93    W     0.19335   0.11681   0.84647   0.01267  Uiso   1.00
W94    W     0.29272   0.02235   0.77482   0.01267  Uiso   1.00
W95    W     0.17242   0.07679   0.95039   0.01267  Uiso   1.00
W96    W     0.22974   0.93833   0.99332   0.01267  Uiso   1.00
C1     C     0.81640   0.24370   0.97020   0.01267  Uiso   1.00
C2     C     0.79220   0.21980   0.93110   0.01267  Uiso   1.00
C3     C     0.11210   0.57160   0.79300   0.01267  Uiso   1.00
C4     C     0.08400   0.51640   0.79318   0.01267  Uiso   1.00
C5     C     0.72880   0.22410   0.91910   0.01267  Uiso   1.00
C6     C     0.78990   0.28690   0.04200   0.01267  Uiso   1.00
C7     C     0.67340   0.49800   0.60310   0.01267  Uiso   1.00
C8     C     0.68650   0.24730   0.95232   0.01267  Uiso   1.00
C9     C     0.77030   0.26340   0.99944   0.01267  Uiso   1.00
C10    C     0.72220   0.45770   0.59868   0.01267  Uiso   1.00
C11    C     0.03130   0.50990   0.76612   0.01267  Uiso   1.00
C12    C     0.74580   0.55540   0.64681   0.01267  Uiso   1.00
C13    C     0.84120   0.42910   0.61586   0.01267  Uiso   1.00
C14    C     0.68460   0.54670   0.62668   0.01267  Uiso   1.00
C15    C     0.08690   0.61430   0.76650   0.01267  Uiso   1.00
C16    C     0.76790   0.60740   0.67047   0.01267  Uiso   1.00
C17    C     0.78180   0.46850   0.62000   0.01267  Uiso   1.00
C18    C     0.00060   0.45540   0.75996   0.01267  Uiso   1.00
C19    C     0.00490   0.64270   0.70757   0.01267  Uiso   1.00
C20    C     0.61340   0.25110   0.94416   0.01267  Uiso   1.00
C21    C     0.03520   0.59970   0.74124   0.01267  Uiso   1.00
C22    C     0.18360   0.25630   0.47020   0.01267  Uiso   1.00
C23    C     0.20780   0.28020   0.43110   0.01267  Uiso   1.00
C24    C     0.88790   0.92840   0.29300   0.01267  Uiso   1.00
C25    C     0.91600   0.98360   0.29318   0.01267  Uiso   1.00
C26    C     0.27120   0.27590   0.41910   0.01267  Uiso   1.00
C27    C     0.21010   0.21310   0.54200   0.01267  Uiso   1.00
C28    C     0.32660   0.00200   0.10310   0.01267  Uiso   1.00
C29    C     0.31350   0.25270   0.45232   0.01267  Uiso   1.00
C30    C     0.22970   0.23660   0.49944   0.01267  Uiso   1.00
C31    C     0.27780   0.04230   0.09868   0.01267  Uiso   1.00
C32    C     0.96870   0.99010   0.26612   0.01267  Uiso   1.00
C33    C     0.25420   0.94460   0.14681   0.01267  Uiso   1.00
C34    C     0.15880   0.07090   0.11586   0.01267  Uiso   1.00
C35    C     0.31540   0.95330   0.12668   0.01267  Uiso   1.00
C36    C     0.91310   0.88570   0.26650   0.01267  Uiso   1.00
C37    C     0.23210   0.89260   0.17047   0.01267  Uiso   1.00
C38    C     0.21820   0.03150   0.12000   0.01267  Uiso   1.00
C39    C     0.99940   0.04460   0.25996   0.01267  Uiso   1.00
C40    C     0.99510   0.85730   0.20757   0.01267  Uiso   1.00
C41    C     0.38660   0.24890   0.44416   0.01267  Uiso   1.00
C42    C     0.96480   0.90030   0.24124   0.01267  Uiso   1.00
C43    C     0.31640   0.75630   0.52980   0.01267  Uiso   1.00
C44    C     0.29220   0.78020   0.56890   0.01267  Uiso   1.00
C45    C     0.61210   0.42840   0.70700   0.01267  Uiso   1.00
C46    C     0.58400   0.48360   0.70682   0.01267  Uiso   1.00
C47    C     0.22880   0.77590   0.58090   0.01267  Uiso   1.00
C48    C     0.28990   0.71310   0.45800   0.01267  Uiso   1.00
C49    C     0.17340   0.50200   0.89690   0.01267  Uiso   1.00
C50    C     0.18650   0.75270   0.54768   0.01267  Uiso   1.00
C51    C     0.27030   0.73660   0.50056   0.01267  Uiso   1.00
C52    C     0.22220   0.54230   0.90132   0.01267  Uiso   1.00
C53    C     0.53130   0.49010   0.73388   0.01267  Uiso   1.00
C54    C     0.24580   0.44460   0.85319   0.01267  Uiso   1.00
C55    C     0.34120   0.57090   0.88414   0.01267  Uiso   1.00
C56    C     0.18460   0.45330   0.87332   0.01267  Uiso   1.00
C57    C     0.58690   0.38570   0.73350   0.01267  Uiso   1.00
C58    C     0.26790   0.39260   0.82953   0.01267  Uiso   1.00
C59    C     0.28180   0.53150   0.88000   0.01267  Uiso   1.00
C60    C     0.50060   0.54460   0.74004   0.01267  Uiso   1.00
C61    C     0.50490   0.35730   0.79243   0.01267  Uiso   1.00
C62    C     0.11340   0.74890   0.55584   0.01267  Uiso   1.00
C63    C     0.53520   0.40030   0.75876   0.01267  Uiso   1.00
C64    C     0.68360   0.74370   0.02980   0.01267  Uiso   1.00
C65    C     0.70780   0.71980   0.06890   0.01267  Uiso   1.00
C66    C     0.38790   0.07160   0.20700   0.01267  Uiso   1.00
C67    C     0.41600   0.01640   0.20682   0.01267  Uiso   1.00
C68    C     0.77120   0.72410   0.08090   0.01267  Uiso   1.00
C69    C     0.71010   0.78690   0.95800   0.01267  Uiso   1.00
C70    C     0.82660   0.99800   0.39690   0.01267  Uiso   1.00
C71    C     0.81350   0.74730   0.04768   0.01267  Uiso   1.00
C72    C     0.72970   0.76340   0.00056   0.01267  Uiso   1.00
C73    C     0.77780   0.95770   0.40132   0.01267  Uiso   1.00
C74    C     0.46870   0.00990   0.23388   0.01267  Uiso   1.00
C75    C     0.75420   0.05540   0.35319   0.01267  Uiso   1.00
C76    C     0.65880   0.92910   0.38414   0.01267  Uiso   1.00
C77    C     0.81540   0.04670   0.37332   0.01267  Uiso   1.00
C78    C     0.41310   0.11430   0.23350   0.01267  Uiso   1.00
C79    C     0.73210   0.10740   0.32953   0.01267  Uiso   1.00
C80    C     0.71820   0.96850   0.38000   0.01267  Uiso   1.00
C81    C     0.49940   0.95540   0.24004   0.01267  Uiso   1.00
C82    C     0.49510   0.14270   0.29243   0.01267  Uiso   1.00
C83    C     0.88660   0.75110   0.05584   0.01267  Uiso   1.00
C84    C     0.46480   0.09970   0.25876   0.01267  Uiso   1.00
C85    C     0.18360   0.75630   0.02980   0.01267  Uiso   1.00
C86    C     0.20780   0.78020   0.06890   0.01267  Uiso   1.00
C87    C     0.88790   0.42840   0.20700   0.01267  Uiso   1.00
C88    C     0.91600   0.48360   0.20682   0.01267  Uiso   1.00
C89    C     0.27120   0.77590   0.08090   0.01267  Uiso   1.00
C90    C     0.21010   0.71310   0.95800   0.01267  Uiso   1.00
C91    C     0.32660   0.50200   0.39690   0.01267  Uiso   1.00
C92    C     0.31350   0.75270   0.04768   0.01267  Uiso   1.00
C93    C     0.22970   0.73660   0.00056   0.01267  Uiso   1.00
C94    C     0.27780   0.54230   0.40132   0.01267  Uiso   1.00
C95    C     0.96870   0.49010   0.23388   0.01267  Uiso   1.00
C96    C     0.25420   0.44460   0.35319   0.01267  Uiso   1.00
C97    C     0.15880   0.57090   0.38414   0.01267  Uiso   1.00
C98    C     0.31540   0.45330   0.37332   0.01267  Uiso   1.00
C99    C     0.91310   0.38570   0.23350   0.01267  Uiso   1.00
C100   C     0.23210   0.39260   0.32953   0.01267  Uiso   1.00
C101   C     0.21820   0.53150   0.38000   0.01267  Uiso   1.00
C102   C     0.99940   0.54460   0.24004   0.01267  Uiso   1.00
C103   C     0.99510   0.35730   0.29243   0.01267  Uiso   1.00
C104   C     0.38660   0.74890   0.05584   0.01267  Uiso   1.00
C105   C     0.96480   0.40030   0.25876   0.01267  Uiso   1.00
C106   C     0.81640   0.74370   0.52980   0.01267  Uiso   1.00
C107   C     0.79220   0.71980   0.56890   0.01267  Uiso   1.00
C108   C     0.11210   0.07160   0.70700   0.01267  Uiso   1.00
C109   C     0.08400   0.01640   0.70682   0.01267  Uiso   1.00
C110   C     0.72880   0.72410   0.58090   0.01267  Uiso   1.00
C111   C     0.78990   0.78690   0.45800   0.01267  Uiso   1.00
C112   C     0.67340   0.99800   0.89690   0.01267  Uiso   1.00
C113   C     0.68650   0.74730   0.54768   0.01267  Uiso   1.00
C114   C     0.77030   0.76340   0.50056   0.01267  Uiso   1.00
C115   C     0.72220   0.95770   0.90132   0.01267  Uiso   1.00
C116   C     0.03130   0.00990   0.73388   0.01267  Uiso   1.00
C117   C     0.74580   0.05540   0.85319   0.01267  Uiso   1.00
C118   C     0.84120   0.92910   0.88414   0.01267  Uiso   1.00
C119   C     0.68460   0.04670   0.87332   0.01267  Uiso   1.00
C120   C     0.08690   0.11430   0.73350   0.01267  Uiso   1.00
C121   C     0.76790   0.10740   0.82953   0.01267  Uiso   1.00
C122   C     0.78180   0.96850   0.88000   0.01267  Uiso   1.00
C123   C     0.00060   0.95540   0.74004   0.01267  Uiso   1.00
C124   C     0.00490   0.14270   0.79243   0.01267  Uiso   1.00
C125   C     0.61340   0.75110   0.55584   0.01267  Uiso   1.00
C126   C     0.03520   0.09970   0.75876   0.01267  Uiso   1.00
C127   C     0.68360   0.24370   0.47020   0.01267  Uiso   1.00
C128   C     0.70780   0.21980   0.43110   0.01267  Uiso   1.00
C129   C     0.38790   0.57160   0.29300   0.01267  Uiso   1.00
C130   C     0.41600   0.51640   0.29318   0.01267  Uiso   1.00
C131   C     0.77120   0.22410   0.41910   0.01267  Uiso   1.00
C132   C     0.71010   0.28690   0.54200   0.01267  Uiso   1.00
C133   C     0.82660   0.49800   0.10310   0.01267  Uiso   1.00
C134   C     0.81350   0.24730   0.45232   0.01267  Uiso   1.00
C135   C     0.72970   0.26340   0.49944   0.01267  Uiso   1.00
C136   C     0.77780   0.45770   0.09868   0.01267  Uiso   1.00
C137   C     0.46870   0.50990   0.26612   0.01267  Uiso   1.00
C138   C     0.75420   0.55540   0.14681   0.01267  Uiso   1.00
C139   C     0.65880   0.42910   0.11586   0.01267  Uiso   1.00
C140   C     0.81540   0.54670   0.12668   0.01267  Uiso   1.00
C141   C     0.41310   0.61430   0.26650   0.01267  Uiso   1.00
C142   C     0.73210   0.60740   0.17047   0.01267  Uiso   1.00
C143   C     0.71820   0.46850   0.12000   0.01267  Uiso   1.00
C144   C     0.49940   0.45540   0.25996   0.01267  Uiso   1.00
C145   C     0.49510   0.64270   0.20757   0.01267  Uiso   1.00
C146   C     0.88660   0.25110   0.44416   0.01267  Uiso   1.00
C147   C     0.46480   0.59970   0.24124   0.01267  Uiso   1.00
C148   C     0.31640   0.25630   0.97020   0.01267  Uiso   1.00
C149   C     0.29220   0.28020   0.93110   0.01267  Uiso   1.00
C150   C     0.61210   0.92840   0.79300   0.01267  Uiso   1.00
C151   C     0.58400   0.98360   0.79318   0.01267  Uiso   1.00
C152   C     0.22880   0.27590   0.91910   0.01267  Uiso   1.00
C153   C     0.28990   0.21310   0.04200   0.01267  Uiso   1.00
C154   C     0.17340   0.00200   0.60310   0.01267  Uiso   1.00
C155   C     0.18650   0.25270   0.95232   0.01267  Uiso   1.00
C156   C     0.27030   0.23660   0.99944   0.01267  Uiso   1.00
C157   C     0.22220   0.04230   0.59868   0.01267  Uiso   1.00
C158   C     0.53130   0.99010   0.76612   0.01267  Uiso   1.00
C159   C     0.24580   0.94460   0.64681   0.01267  Uiso   1.00
C160   C     0.34120   0.07090   0.61586   0.01267  Uiso   1.00
C161   C     0.18460   0.95330   0.62668   0.01267  Uiso   1.00
C162   C     0.58690   0.88570   0.76650   0.01267  Uiso   1.00
C163   C     0.26790   0.89260   0.67047   0.01267  Uiso   1.00
C164   C     0.28180   0.03150   0.62000   0.01267  Uiso   1.00
C165   C     0.50060   0.04460   0.75996   0.01267  Uiso   1.00
C166   C     0.50490   0.85730   0.70757   0.01267  Uiso   1.00
C167   C     0.11340   0.24890   0.94416   0.01267  Uiso   1.00
C168   C     0.53520   0.90030   0.74124   0.01267  Uiso   1.00
N1     N     0.00698   0.55120   0.73957   0.01267  Uiso   1.00
N2     N     0.79380   0.51486   0.64365   0.01267  Uiso   1.00
N3     N     0.70840   0.26610   0.99175   0.01267  Uiso   1.00
N4     N     0.99302   0.94880   0.23957   0.01267  Uiso   1.00
N5     N     0.20620   0.98514   0.14365   0.01267  Uiso   1.00
N6     N     0.29160   0.23390   0.49175   0.01267  Uiso   1.00
N7     N     0.50698   0.44880   0.76043   0.01267  Uiso   1.00
N8     N     0.29380   0.48514   0.85635   0.01267  Uiso   1.00
N9     N     0.20840   0.73390   0.50825   0.01267  Uiso   1.00
N10    N     0.49302   0.05120   0.26043   0.01267  Uiso   1.00
N11    N     0.70620   0.01486   0.35635   0.01267  Uiso   1.00
N12    N     0.79160   0.76610   0.00825   0.01267  Uiso   1.00
N13    N     0.99302   0.44880   0.26043   0.01267  Uiso   1.00
N14    N     0.20620   0.48514   0.35635   0.01267  Uiso   1.00
N15    N     0.29160   0.73390   0.00825   0.01267  Uiso   1.00
N16    N     0.00698   0.05120   0.76043   0.01267  Uiso   1.00
N17    N     0.79380   0.01486   0.85635   0.01267  Uiso   1.00
N18    N     0.70840   0.76610   0.50825   0.01267  Uiso   1.00
N19    N     0.49302   0.55120   0.23957   0.01267  Uiso   1.00
N20    N     0.70620   0.51486   0.14365   0.01267  Uiso   1.00
N21    N     0.79160   0.26610   0.49175   0.01267  Uiso   1.00
N22    N     0.50698   0.94880   0.73957   0.01267  Uiso   1.00
N23    N     0.29380   0.98514   0.64365   0.01267  Uiso   1.00
N24    N     0.20840   0.23390   0.99175   0.01267  Uiso   1.00
O1     O     0.74727   0.57107   0.91917   0.01267  Uiso   1.00
O2     O     0.83759   0.47874   0.90013   0.01267  Uiso   1.00
O3     O     0.61165   0.55872   0.89912   0.01267  Uiso   1.00
O4     O     0.69771   0.46615   0.88717   0.01267  Uiso   1.00
O5     O     0.88514   0.58681   0.92980   0.01267  Uiso   1.00
O6     O     0.92546   0.48673   0.96011   0.01267  Uiso   1.00
O7     O     0.72500   0.52711   0.74939   0.01267  Uiso   1.00
O8     O     0.85768   0.54139   0.76365   0.01267  Uiso   1.00
O9     O     0.85594   0.44487   0.81294   0.01267  Uiso   1.00
O10    O     0.89161   0.44224   0.63704   0.01267  Uiso   1.00
O11    O     0.73273   0.67707   0.91790   0.01267  Uiso   1.00
O12    O     0.51492   0.49420   0.85465   0.01267  Uiso   1.00
O13    O     0.79084   0.62170   0.98701   0.01267  Uiso   1.00
O14    O     0.78538   0.37656   0.86354   0.01267  Uiso   1.00
O15    O     0.67225   0.36323   0.90639   0.01267  Uiso   1.00
O16    O     0.81706   0.45026   0.72296   0.01267  Uiso   1.00
O17    O     0.63595   0.52576   0.81744   0.01267  Uiso   1.00
O18    O     0.95101   0.45172   0.87455   0.01267  Uiso   1.00
O19    O     0.67799   0.49670   0.97874   0.01267  Uiso   1.00
O20    O     0.73213   0.42668   0.79730   0.01267  Uiso   1.00
O21    O     0.77031   0.62802   0.78207   0.01267  Uiso   1.00
O22    O     0.80215   0.50977   0.99260   0.01267  Uiso   1.00
O23    O     0.63914   0.38362   0.99318   0.01267  Uiso   1.00
O24    O     0.76094   0.41295   0.96134   0.01267  Uiso   1.00
O25    O     0.86120   0.70125   0.93976   0.01267  Uiso   1.00
O26    O     0.91579   0.34440   0.84923   0.01267  Uiso   1.00
O27    O     0.59370   0.23650   0.90680   0.01267  Uiso   1.00
O28    O     0.85270   0.28990   0.05029   0.01267  Uiso   1.00
O29    O     0.83590   0.38880   0.59043   0.01267  Uiso   1.00
O30    O     0.74770   0.30490   0.07011   0.01267  Uiso   1.00
O31    O     0.61280   0.41736   0.83743   0.01267  Uiso   1.00
O32    O     0.95900   0.44588   0.72936   0.01267  Uiso   1.00
O33    O     0.90862   0.55759   0.84664   0.01267  Uiso   1.00
O34    O     0.58936   0.44701   0.92340   0.01267  Uiso   1.00
O35    O     0.57970   0.26920   0.97509   0.01267  Uiso   1.00
O36    O     0.82341   0.61040   0.68427   0.01267  Uiso   1.00
O37    O     0.87820   0.38641   0.93075   0.01267  Uiso   1.00
O38    O     0.66083   0.61116   0.97156   0.01267  Uiso   1.00
O39    O     0.77620   0.53598   0.82674   0.01267  Uiso   1.00
O40    O     0.67924   0.62550   0.84629   0.01267  Uiso   1.00
O41    O     0.72454   0.64656   0.67400   0.01267  Uiso   1.00
O42    O     0.02840   0.69190   0.70455   0.01267  Uiso   1.00
O43    O     0.95760   0.62425   0.68471   0.01267  Uiso   1.00
O44    O     0.02052   0.41335   0.78641   0.01267  Uiso   1.00
O45    O     0.82629   0.63936   0.86389   0.01267  Uiso   1.00
O46    O     0.25273   0.92893   0.41917   0.01267  Uiso   1.00
O47    O     0.16241   0.02126   0.40013   0.01267  Uiso   1.00
O48    O     0.38835   0.94128   0.39912   0.01267  Uiso   1.00
O49    O     0.30229   0.03385   0.38717   0.01267  Uiso   1.00
O50    O     0.11486   0.91319   0.42980   0.01267  Uiso   1.00
O51    O     0.07454   0.01327   0.46011   0.01267  Uiso   1.00
O52    O     0.27500   0.97289   0.24939   0.01267  Uiso   1.00
O53    O     0.14232   0.95861   0.26365   0.01267  Uiso   1.00
O54    O     0.14406   0.05513   0.31294   0.01267  Uiso   1.00
O55    O     0.10839   0.05776   0.13704   0.01267  Uiso   1.00
O56    O     0.26727   0.82293   0.41790   0.01267  Uiso   1.00
O57    O     0.48508   0.00580   0.35465   0.01267  Uiso   1.00
O58    O     0.20916   0.87830   0.48701   0.01267  Uiso   1.00
O59    O     0.21462   0.12344   0.36354   0.01267  Uiso   1.00
O60    O     0.32775   0.13677   0.40639   0.01267  Uiso   1.00
O61    O     0.18294   0.04974   0.22296   0.01267  Uiso   1.00
O62    O     0.36405   0.97424   0.31744   0.01267  Uiso   1.00
O63    O     0.04899   0.04828   0.37455   0.01267  Uiso   1.00
O64    O     0.32201   0.00330   0.47874   0.01267  Uiso   1.00
O65    O     0.26787   0.07332   0.29730   0.01267  Uiso   1.00
O66    O     0.22969   0.87198   0.28207   0.01267  Uiso   1.00
O67    O     0.19785   0.99023   0.49260   0.01267  Uiso   1.00
O68    O     0.36086   0.11638   0.49318   0.01267  Uiso   1.00
O69    O     0.23906   0.08705   0.46134   0.01267  Uiso   1.00
O70    O     0.13880   0.79875   0.43976   0.01267  Uiso   1.00
O71    O     0.08421   0.15560   0.34923   0.01267  Uiso   1.00
O72    O     0.40630   0.26350   0.40680   0.01267  Uiso   1.00
O73    O     0.14730   0.21010   0.55029   0.01267  Uiso   1.00
O74    O     0.16410   0.11120   0.09043   0.01267  Uiso   1.00
O75    O     0.25230   0.19510   0.57011   0.01267  Uiso   1.00
O76    O     0.38720   0.08264   0.33743   0.01267  Uiso   1.00
O77    O     0.04100   0.05412   0.22936   0.01267  Uiso   1.00
O78    O     0.09138   0.94241   0.34664   0.01267  Uiso   1.00
O79    O     0.41064   0.05299   0.42340   0.01267  Uiso   1.00
O80    O     0.42030   0.23080   0.47509   0.01267  Uiso   1.00
O81    O     0.17659   0.88960   0.18427   0.01267  Uiso   1.00
O82    O     0.12180   0.11359   0.43075   0.01267  Uiso   1.00
O83    O     0.33917   0.88884   0.47156   0.01267  Uiso   1.00
O84    O     0.22380   0.96402   0.32674   0.01267  Uiso   1.00
O85    O     0.32076   0.87450   0.34629   0.01267  Uiso   1.00
O86    O     0.27546   0.85344   0.17400   0.01267  Uiso   1.00
O87    O     0.97160   0.80810   0.20455   0.01267  Uiso   1.00
O88    O     0.04240   0.87575   0.18471   0.01267  Uiso   1.00
O89    O     0.97948   0.08665   0.28641   0.01267  Uiso   1.00
O90    O     0.17371   0.86064   0.36389   0.01267  Uiso   1.00
O91    O     0.24727   0.42893   0.58083   0.01267  Uiso   1.00
O92    O     0.33759   0.52126   0.59987   0.01267  Uiso   1.00
O93    O     0.11165   0.44128   0.60088   0.01267  Uiso   1.00
O94    O     0.19771   0.53385   0.61283   0.01267  Uiso   1.00
O95    O     0.38514   0.41319   0.57020   0.01267  Uiso   1.00
O96    O     0.42546   0.51327   0.53989   0.01267  Uiso   1.00
O97    O     0.22500   0.47289   0.75061   0.01267  Uiso   1.00
O98    O     0.35768   0.45861   0.73635   0.01267  Uiso   1.00
O99    O     0.35594   0.55513   0.68706   0.01267  Uiso   1.00
O100   O     0.39161   0.55776   0.86296   0.01267  Uiso   1.00
O101   O     0.23273   0.32293   0.58210   0.01267  Uiso   1.00
O102   O     0.01492   0.50580   0.64535   0.01267  Uiso   1.00
O103   O     0.29084   0.37830   0.51299   0.01267  Uiso   1.00
O104   O     0.28538   0.62344   0.63646   0.01267  Uiso   1.00
O105   O     0.17225   0.63677   0.59361   0.01267  Uiso   1.00
O106   O     0.31706   0.54974   0.77704   0.01267  Uiso   1.00
O107   O     0.13595   0.47424   0.68256   0.01267  Uiso   1.00
O108   O     0.45101   0.54828   0.62545   0.01267  Uiso   1.00
O109   O     0.17799   0.50330   0.52126   0.01267  Uiso   1.00
O110   O     0.23213   0.57332   0.70270   0.01267  Uiso   1.00
O111   O     0.27031   0.37198   0.71793   0.01267  Uiso   1.00
O112   O     0.30215   0.49023   0.50740   0.01267  Uiso   1.00
O113   O     0.13914   0.61638   0.50682   0.01267  Uiso   1.00
O114   O     0.26094   0.58705   0.53866   0.01267  Uiso   1.00
O115   O     0.36120   0.29875   0.56024   0.01267  Uiso   1.00
O116   O     0.41579   0.65560   0.65077   0.01267  Uiso   1.00
O117   O     0.09370   0.76350   0.59320   0.01267  Uiso   1.00
O118   O     0.35270   0.71010   0.44971   0.01267  Uiso   1.00
O119   O     0.33590   0.61120   0.90957   0.01267  Uiso   1.00
O120   O     0.24770   0.69510   0.42989   0.01267  Uiso   1.00
O121   O     0.11280   0.58264   0.66257   0.01267  Uiso   1.00
O122   O     0.45900   0.55412   0.77064   0.01267  Uiso   1.00
O123   O     0.40862   0.44241   0.65336   0.01267  Uiso   1.00
O124   O     0.08936   0.55299   0.57660   0.01267  Uiso   1.00
O125   O     0.07970   0.73080   0.52491   0.01267  Uiso   1.00
O126   O     0.32341   0.38960   0.81573   0.01267  Uiso   1.00
O127   O     0.37820   0.61359   0.56925   0.01267  Uiso   1.00
O128   O     0.16083   0.38884   0.52844   0.01267  Uiso   1.00
O129   O     0.27620   0.46402   0.67326   0.01267  Uiso   1.00
O130   O     0.17924   0.37450   0.65371   0.01267  Uiso   1.00
O131   O     0.22454   0.35344   0.82600   0.01267  Uiso   1.00
O132   O     0.52840   0.30810   0.79545   0.01267  Uiso   1.00
O133   O     0.45760   0.37575   0.81529   0.01267  Uiso   1.00
O134   O     0.52052   0.58665   0.71359   0.01267  Uiso   1.00
O135   O     0.32629   0.36064   0.63611   0.01267  Uiso   1.00
O136   O     0.75273   0.07107   0.08083   0.01267  Uiso   1.00
O137   O     0.66241   0.97874   0.09987   0.01267  Uiso   1.00
O138   O     0.88835   0.05872   0.10088   0.01267  Uiso   1.00
O139   O     0.80229   0.96615   0.11283   0.01267  Uiso   1.00
O140   O     0.61486   0.08681   0.07020   0.01267  Uiso   1.00
O141   O     0.57454   0.98673   0.03989   0.01267  Uiso   1.00
O142   O     0.77500   0.02711   0.25061   0.01267  Uiso   1.00
O143   O     0.64232   0.04139   0.23635   0.01267  Uiso   1.00
O144   O     0.64406   0.94487   0.18706   0.01267  Uiso   1.00
O145   O     0.60839   0.94224   0.36296   0.01267  Uiso   1.00
O146   O     0.76727   0.17707   0.08210   0.01267  Uiso   1.00
O147   O     0.98508   0.99420   0.14535   0.01267  Uiso   1.00
O148   O     0.70916   0.12170   0.01299   0.01267  Uiso   1.00
O149   O     0.71462   0.87656   0.13646   0.01267  Uiso   1.00
O150   O     0.82775   0.86323   0.09361   0.01267  Uiso   1.00
O151   O     0.68294   0.95026   0.27704   0.01267  Uiso   1.00
O152   O     0.86405   0.02576   0.18256   0.01267  Uiso   1.00
O153   O     0.54899   0.95172   0.12545   0.01267  Uiso   1.00
O154   O     0.82201   0.99670   0.02126   0.01267  Uiso   1.00
O155   O     0.76787   0.92668   0.20270   0.01267  Uiso   1.00
O156   O     0.72969   0.12802   0.21793   0.01267  Uiso   1.00
O157   O     0.69785   0.00977   0.00740   0.01267  Uiso   1.00
O158   O     0.86086   0.88362   0.00682   0.01267  Uiso   1.00
O159   O     0.73906   0.91295   0.03866   0.01267  Uiso   1.00
O160   O     0.63880   0.20125   0.06024   0.01267  Uiso   1.00
O161   O     0.58421   0.84440   0.15077   0.01267  Uiso   1.00
O162   O     0.90630   0.73650   0.09320   0.01267  Uiso   1.00
O163   O     0.64730   0.78990   0.94971   0.01267  Uiso   1.00
O164   O     0.66410   0.88880   0.40957   0.01267  Uiso   1.00
O165   O     0.75230   0.80490   0.92989   0.01267  Uiso   1.00
O166   O     0.88720   0.91736   0.16257   0.01267  Uiso   1.00
O167   O     0.54100   0.94588   0.27064   0.01267  Uiso   1.00
O168   O     0.59138   0.05759   0.15336   0.01267  Uiso   1.00
O169   O     0.91064   0.94701   0.07660   0.01267  Uiso   1.00
O170   O     0.92030   0.76920   0.02491   0.01267  Uiso   1.00
O171   O     0.67659   0.11040   0.31573   0.01267  Uiso   1.00
O172   O     0.62180   0.88641   0.06925   0.01267  Uiso   1.00
O173   O     0.83917   0.11116   0.02844   0.01267  Uiso   1.00
O174   O     0.72380   0.03598   0.17326   0.01267  Uiso   1.00
O175   O     0.82076   0.12550   0.15371   0.01267  Uiso   1.00
O176   O     0.77546   0.14656   0.32600   0.01267  Uiso   1.00
O177   O     0.47160   0.19190   0.29545   0.01267  Uiso   1.00
O178   O     0.54240   0.12425   0.31529   0.01267  Uiso   1.00
O179   O     0.47948   0.91335   0.21359   0.01267  Uiso   1.00
O180   O     0.67371   0.13936   0.13611   0.01267  Uiso   1.00
O181   O     0.25273   0.42893   0.08083   0.01267  Uiso   1.00
O182   O     0.16241   0.52126   0.09987   0.01267  Uiso   1.00
O183   O     0.38835   0.44128   0.10088   0.01267  Uiso   1.00
O184   O     0.30229   0.53385   0.11283   0.01267  Uiso   1.00
O185   O     0.11486   0.41319   0.07020   0.01267  Uiso   1.00
O186   O     0.07454   0.51327   0.03989   0.01267  Uiso   1.00
O187   O     0.27500   0.47289   0.25061   0.01267  Uiso   1.00
O188   O     0.14232   0.45861   0.23635   0.01267  Uiso   1.00
O189   O     0.14406   0.55513   0.18706   0.01267  Uiso   1.00
O190   O     0.10839   0.55776   0.36296   0.01267  Uiso   1.00
O191   O     0.26727   0.32293   0.08210   0.01267  Uiso   1.00
O192   O     0.48508   0.50580   0.14535   0.01267  Uiso   1.00
O193   O     0.20916   0.37830   0.01299   0.01267  Uiso   1.00
O194   O     0.21462   0.62344   0.13646   0.01267  Uiso   1.00
O195   O     0.32775   0.63677   0.09361   0.01267  Uiso   1.00
O196   O     0.18294   0.54974   0.27704   0.01267  Uiso   1.00
O197   O     0.36405   0.47424   0.18256   0.01267  Uiso   1.00
O198   O     0.04899   0.54828   0.12545   0.01267  Uiso   1.00
O199   O     0.32201   0.50330   0.02126   0.01267  Uiso   1.00
O200   O     0.26787   0.57332   0.20270   0.01267  Uiso   1.00
O201   O     0.22969   0.37198   0.21793   0.01267  Uiso   1.00
O202   O     0.19785   0.49023   0.00740   0.01267  Uiso   1.00
O203   O     0.36086   0.61638   0.00682   0.01267  Uiso   1.00
O204   O     0.23906   0.58705   0.03866   0.01267  Uiso   1.00
O205   O     0.13880   0.29875   0.06024   0.01267  Uiso   1.00
O206   O     0.08421   0.65560   0.15077   0.01267  Uiso   1.00
O207   O     0.40630   0.76350   0.09320   0.01267  Uiso   1.00
O208   O     0.14730   0.71010   0.94971   0.01267  Uiso   1.00
O209   O     0.16410   0.61120   0.40957   0.01267  Uiso   1.00
O210   O     0.25230   0.69510   0.92989   0.01267  Uiso   1.00
O211   O     0.38720   0.58264   0.16257   0.01267  Uiso   1.00
O212   O     0.04100   0.55412   0.27064   0.01267  Uiso   1.00
O213   O     0.09138   0.44241   0.15336   0.01267  Uiso   1.00
O214   O     0.41064   0.55299   0.07660   0.01267  Uiso   1.00
O215   O     0.42030   0.73080   0.02491   0.01267  Uiso   1.00
O216   O     0.17659   0.38960   0.31573   0.01267  Uiso   1.00
O217   O     0.12180   0.61359   0.06925   0.01267  Uiso   1.00
O218   O     0.33917   0.38884   0.02844   0.01267  Uiso   1.00
O219   O     0.22380   0.46402   0.17326   0.01267  Uiso   1.00
O220   O     0.32076   0.37450   0.15371   0.01267  Uiso   1.00
O221   O     0.27546   0.35344   0.32600   0.01267  Uiso   1.00
O222   O     0.97160   0.30810   0.29545   0.01267  Uiso   1.00
O223   O     0.04240   0.37575   0.31529   0.01267  Uiso   1.00
O224   O     0.97948   0.58665   0.21359   0.01267  Uiso   1.00
O225   O     0.17371   0.36064   0.13611   0.01267  Uiso   1.00
O226   O     0.74727   0.07107   0.58083   0.01267  Uiso   1.00
O227   O     0.83759   0.97874   0.59987   0.01267  Uiso   1.00
O228   O     0.61165   0.05872   0.60088   0.01267  Uiso   1.00
O229   O     0.69771   0.96615   0.61283   0.01267  Uiso   1.00
O230   O     0.88514   0.08681   0.57020   0.01267  Uiso   1.00
O231   O     0.92546   0.98673   0.53989   0.01267  Uiso   1.00
O232   O     0.72500   0.02711   0.75061   0.01267  Uiso   1.00
O233   O     0.85768   0.04139   0.73635   0.01267  Uiso   1.00
O234   O     0.85594   0.94487   0.68706   0.01267  Uiso   1.00
O235   O     0.89161   0.94224   0.86296   0.01267  Uiso   1.00
O236   O     0.73273   0.17707   0.58210   0.01267  Uiso   1.00
O237   O     0.51492   0.99420   0.64535   0.01267  Uiso   1.00
O238   O     0.79084   0.12170   0.51299   0.01267  Uiso   1.00
O239   O     0.78538   0.87656   0.63646   0.01267  Uiso   1.00
O240   O     0.67225   0.86323   0.59361   0.01267  Uiso   1.00
O241   O     0.81706   0.95026   0.77704   0.01267  Uiso   1.00
O242   O     0.63595   0.02576   0.68256   0.01267  Uiso   1.00
O243   O     0.95101   0.95172   0.62545   0.01267  Uiso   1.00
O244   O     0.67799   0.99670   0.52126   0.01267  Uiso   1.00
O245   O     0.73213   0.92668   0.70270   0.01267  Uiso   1.00
O246   O     0.77031   0.12802   0.71793   0.01267  Uiso   1.00
O247   O     0.80215   0.00977   0.50740   0.01267  Uiso   1.00
O248   O     0.63914   0.88362   0.50682   0.01267  Uiso   1.00
O249   O     0.76094   0.91295   0.53866   0.01267  Uiso   1.00
O250   O     0.86120   0.20125   0.56024   0.01267  Uiso   1.00
O251   O     0.91579   0.84440   0.65077   0.01267  Uiso   1.00
O252   O     0.59370   0.73650   0.59320   0.01267  Uiso   1.00
O253   O     0.85270   0.78990   0.44971   0.01267  Uiso   1.00
O254   O     0.83590   0.88880   0.90957   0.01267  Uiso   1.00
O255   O     0.74770   0.80490   0.42989   0.01267  Uiso   1.00
O256   O     0.61280   0.91736   0.66257   0.01267  Uiso   1.00
O257   O     0.95900   0.94588   0.77064   0.01267  Uiso   1.00
O258   O     0.90862   0.05759   0.65336   0.01267  Uiso   1.00
O259   O     0.58936   0.94701   0.57660   0.01267  Uiso   1.00
O260   O     0.57970   0.76920   0.52491   0.01267  Uiso   1.00
O261   O     0.82341   0.11040   0.81573   0.01267  Uiso   1.00
O262   O     0.87820   0.88641   0.56925   0.01267  Uiso   1.00
O263   O     0.66083   0.11116   0.52844   0.01267  Uiso   1.00
O264   O     0.77620   0.03598   0.67326   0.01267  Uiso   1.00
O265   O     0.67924   0.12550   0.65371   0.01267  Uiso   1.00
O266   O     0.72454   0.14656   0.82600   0.01267  Uiso   1.00
O267   O     0.02840   0.19190   0.79545   0.01267  Uiso   1.00
O268   O     0.95760   0.12425   0.81529   0.01267  Uiso   1.00
O269   O     0.02052   0.91335   0.71359   0.01267  Uiso   1.00
O270   O     0.82629   0.13936   0.63611   0.01267  Uiso   1.00
O271   O     0.75273   0.57107   0.41917   0.01267  Uiso   1.00
O272   O     0.66241   0.47874   0.40013   0.01267  Uiso   1.00
O273   O     0.88835   0.55872   0.39912   0.01267  Uiso   1.00
O274   O     0.80229   0.46615   0.38717   0.01267  Uiso   1.00
O275   O     0.61486   0.58681   0.42980   0.01267  Uiso   1.00
O276   O     0.57454   0.48673   0.46011   0.01267  Uiso   1.00
O277   O     0.77500   0.52711   0.24939   0.01267  Uiso   1.00
O278   O     0.64232   0.54139   0.26365   0.01267  Uiso   1.00
O279   O     0.64406   0.44487   0.31294   0.01267  Uiso   1.00
O280   O     0.60839   0.44224   0.13704   0.01267  Uiso   1.00
O281   O     0.76727   0.67707   0.41790   0.01267  Uiso   1.00
O282   O     0.98508   0.49420   0.35465   0.01267  Uiso   1.00
O283   O     0.70916   0.62170   0.48701   0.01267  Uiso   1.00
O284   O     0.71462   0.37656   0.36354   0.01267  Uiso   1.00
O285   O     0.82775   0.36323   0.40639   0.01267  Uiso   1.00
O286   O     0.68294   0.45026   0.22296   0.01267  Uiso   1.00
O287   O     0.86405   0.52576   0.31744   0.01267  Uiso   1.00
O288   O     0.54899   0.45172   0.37455   0.01267  Uiso   1.00
O289   O     0.82201   0.49670   0.47874   0.01267  Uiso   1.00
O290   O     0.76787   0.42668   0.29730   0.01267  Uiso   1.00
O291   O     0.72969   0.62802   0.28207   0.01267  Uiso   1.00
O292   O     0.69785   0.50977   0.49260   0.01267  Uiso   1.00
O293   O     0.86086   0.38362   0.49318   0.01267  Uiso   1.00
O294   O     0.73906   0.41295   0.46134   0.01267  Uiso   1.00
O295   O     0.63880   0.70125   0.43976   0.01267  Uiso   1.00
O296   O     0.58421   0.34440   0.34923   0.01267  Uiso   1.00
O297   O     0.90630   0.23650   0.40680   0.01267  Uiso   1.00
O298   O     0.64730   0.28990   0.55029   0.01267  Uiso   1.00
O299   O     0.66410   0.38880   0.09043   0.01267  Uiso   1.00
O300   O     0.75230   0.30490   0.57011   0.01267  Uiso   1.00
O301   O     0.88720   0.41736   0.33743   0.01267  Uiso   1.00
O302   O     0.54100   0.44588   0.22936   0.01267  Uiso   1.00
O303   O     0.59138   0.55759   0.34664   0.01267  Uiso   1.00
O304   O     0.91064   0.44701   0.42340   0.01267  Uiso   1.00
O305   O     0.92030   0.26920   0.47509   0.01267  Uiso   1.00
O306   O     0.67659   0.61040   0.18427   0.01267  Uiso   1.00
O307   O     0.62180   0.38641   0.43075   0.01267  Uiso   1.00
O308   O     0.83917   0.61116   0.47156   0.01267  Uiso   1.00
O309   O     0.72380   0.53598   0.32674   0.01267  Uiso   1.00
O310   O     0.82076   0.62550   0.34629   0.01267  Uiso   1.00
O311   O     0.77546   0.64656   0.17400   0.01267  Uiso   1.00
O312   O     0.47160   0.69190   0.20455   0.01267  Uiso   1.00
O313   O     0.54240   0.62425   0.18471   0.01267  Uiso   1.00
O314   O     0.47948   0.41335   0.28641   0.01267  Uiso   1.00
O315   O     0.67371   0.63936   0.36389   0.01267  Uiso   1.00
O316   O     0.24727   0.92893   0.91917   0.01267  Uiso   1.00
O317   O     0.33759   0.02126   0.90013   0.01267  Uiso   1.00
O318   O     0.11165   0.94128   0.89912   0.01267  Uiso   1.00
O319   O     0.19771   0.03385   0.88717   0.01267  Uiso   1.00
O320   O     0.38514   0.91319   0.92980   0.01267  Uiso   1.00
O321   O     0.42546   0.01327   0.96011   0.01267  Uiso   1.00
O322   O     0.22500   0.97289   0.74939   0.01267  Uiso   1.00
O323   O     0.35768   0.95861   0.76365   0.01267  Uiso   1.00
O324   O     0.35594   0.05513   0.81294   0.01267  Uiso   1.00
O325   O     0.39161   0.05776   0.63704   0.01267  Uiso   1.00
O326   O     0.23273   0.82293   0.91790   0.01267  Uiso   1.00
O327   O     0.01492   0.00580   0.85465   0.01267  Uiso   1.00
O328   O     0.29084   0.87830   0.98701   0.01267  Uiso   1.00
O329   O     0.28538   0.12344   0.86354   0.01267  Uiso   1.00
O330   O     0.17225   0.13677   0.90639   0.01267  Uiso   1.00
O331   O     0.31706   0.04974   0.72296   0.01267  Uiso   1.00
O332   O     0.13595   0.97424   0.81744   0.01267  Uiso   1.00
O333   O     0.45101   0.04828   0.87455   0.01267  Uiso   1.00
O334   O     0.17799   0.00330   0.97874   0.01267  Uiso   1.00
O335   O     0.23213   0.07332   0.79730   0.01267  Uiso   1.00
O336   O     0.27031   0.87198   0.78207   0.01267  Uiso   1.00
O337   O     0.30215   0.99023   0.99260   0.01267  Uiso   1.00
O338   O     0.13914   0.11638   0.99318   0.01267  Uiso   1.00
O339   O     0.26094   0.08705   0.96134   0.01267  Uiso   1.00
O340   O     0.36120   0.79875   0.93976   0.01267  Uiso   1.00
O341   O     0.41579   0.15560   0.84923   0.01267  Uiso   1.00
O342   O     0.09370   0.26350   0.90680   0.01267  Uiso   1.00
O343   O     0.35270   0.21010   0.05029   0.01267  Uiso   1.00
O344   O     0.33590   0.11120   0.59043   0.01267  Uiso   1.00
O345   O     0.24770   0.19510   0.07011   0.01267  Uiso   1.00
O346   O     0.11280   0.08264   0.83743   0.01267  Uiso   1.00
O347   O     0.45900   0.05412   0.72936   0.01267  Uiso   1.00
O348   O     0.40862   0.94241   0.84664   0.01267  Uiso   1.00
O349   O     0.08936   0.05299   0.92340   0.01267  Uiso   1.00
O350   O     0.07970   0.23080   0.97509   0.01267  Uiso   1.00
O351   O     0.32341   0.88960   0.68427   0.01267  Uiso   1.00
O352   O     0.37820   0.11359   0.93075   0.01267  Uiso   1.00
O353   O     0.16083   0.88884   0.97156   0.01267  Uiso   1.00
O354   O     0.27620   0.96402   0.82674   0.01267  Uiso   1.00
O355   O     0.17924   0.87450   0.84629   0.01267  Uiso   1.00
O356   O     0.22454   0.85344   0.67400   0.01267  Uiso   1.00
O357   O     0.52840   0.80810   0.70455   0.01267  Uiso   1.00
O358   O     0.45760   0.87575   0.68471   0.01267  Uiso   1.00
O359   O     0.52052   0.08665   0.78641   0.01267  Uiso   1.00
O360   O     0.32629   0.86064   0.86389   0.01267  Uiso   1.00
