data_EBIDOK_ion_b
_audit_creation_date              2014-07-02
_audit_creation_method            'Materials Studio'
_symmetry_space_group_name_H-M    'P1'
_symmetry_Int_Tables_number       1
_symmetry_cell_setting            triclinic
loop_
_symmetry_equiv_pos_as_xyz
  x,y,z
_cell_length_a                    27.6841
_cell_length_b                    27.6841
_cell_length_c                    17.4801
_cell_angle_alpha                 90.0000
_cell_angle_beta                  90.0000
_cell_angle_gamma                 120.0000
loop_
_atom_site_label
_atom_site_type_symbol
_atom_site_fract_x
_atom_site_fract_y
_atom_site_fract_z
_atom_site_U_iso_or_equiv
_atom_site_adp_type
_atom_site_occupancy
C1     C     0.65172   0.09463   0.17511   0.00000  Uiso   1.00
C2     C     0.66905   0.08432   0.10420   0.00000  Uiso   1.00
H3     H     0.68299   0.11669   0.06106   0.00000  Uiso   1.00
C4     C     0.66319   0.03338   0.08035   0.00000  Uiso   1.00
C5     C     0.77061   0.05130   0.24567   0.00000  Uiso   1.00
C6     C     0.65551   0.15014   0.18757   0.00000  Uiso   1.00
C7     C     0.61309   0.15512   0.22446   0.00000  Uiso   1.00
H8     H     0.57602   0.11832   0.24450   0.00000  Uiso   1.00
C9     C     0.61793   0.20806   0.23308   0.00000  Uiso   1.00
H10    H     0.58472   0.21153   0.26031   0.00000  Uiso   1.00
N11    N     0.66385   0.25494   0.20653   0.00000  Uiso   1.00
C12    C     0.70585   0.25123   0.17181   0.00000  Uiso   1.00
H13    H     0.74202   0.28868   0.15119   0.00000  Uiso   1.00
C14    C     0.70263   0.19947   0.16201   0.00000  Uiso   1.00
H15    H     0.73712   0.19818   0.13486   0.00000  Uiso   1.00
C16    C     0.67501   0.02644  -0.00097   0.00000  Uiso   1.00
C17    C     0.72891   0.05951   0.96953   0.00000  Uiso   1.00
H18    H     0.76195   0.09028   1.00530   0.00000  Uiso   1.00
C19    C     0.74086   0.05178   0.89413   0.00000  Uiso   1.00
H20    H     0.78313   0.07635   0.87368   0.00000  Uiso   1.00
N21    N     0.70031   0.01327   0.84752   0.00000  Uiso   1.00
C22    C     0.64723   0.98119   0.87447   0.00000  Uiso   1.00
H23    H     0.61536   0.95062   0.83730   0.00000  Uiso   1.00
C24    C     0.63383   0.98657   0.95068   0.00000  Uiso   1.00
H25    H     0.59173   0.96018  -0.02855   0.00000  Uiso   1.00
C26    C     0.82567   0.10429   0.24840   0.00000  Uiso   1.00
C27    C     0.87648   0.10567   0.23501   0.00000  Uiso   1.00
H28    H     0.87787   0.06840   0.22068   0.00000  Uiso   1.00
C29    C     0.92675   0.15638   0.23840   0.00000  Uiso   1.00
H30    H     0.96560   0.15705   0.22876   0.00000  Uiso   1.00
N31    N     0.92712   0.20479   0.25332   0.00000  Uiso   1.00
C32    C     0.87877   0.20510   0.26542   0.00000  Uiso   1.00
H33    H     0.87996   0.24409   0.27674   0.00000  Uiso   1.00
C34    C     0.82751   0.15525   0.26313   0.00000  Uiso   1.00
H35    H     0.78959   0.15658   0.27328   0.00000  Uiso   1.00
O36    O     0.63440   0.05842   0.22929   0.00000  Uiso   1.00
O37    O     0.65009   0.99335   0.12708   0.00000  Uiso   1.00
O38    O     0.72788   0.05566   0.23141   0.00000  Uiso   1.00
C39    C     0.50039   0.17316   0.39228   0.00000  Uiso   1.00
C40    C     0.47013   0.12764   0.34362   0.00000  Uiso   1.00
C41    C     0.54183   0.17451   0.43955   0.00000  Uiso   1.00
C42    C     0.48029   0.08300   0.34363   0.00000  Uiso   1.00
C43    C     0.55259   0.13025   0.43884   0.00000  Uiso   1.00
C44    C     0.52149   0.08392   0.39140   0.00000  Uiso   1.00
C45    C     0.53228   0.03592   0.39076   0.00000  Uiso   1.00
O46    O     0.54454   0.29355   0.38730   0.00000  Uiso   1.00
C47    C     0.91244   0.55489   0.18272   0.00000  Uiso   1.00
C48    C     0.92203   0.58254   0.11187   0.00000  Uiso   1.00
H49    H     0.88955   0.56397   0.06892   0.00000  Uiso   1.00
C50    C     0.97204   0.62915   0.08869   0.00000  Uiso   1.00
C51    C     0.95296   0.71926   0.24806   0.00000  Uiso   1.00
C52    C     0.85911   0.50037   0.19382   0.00000  Uiso   1.00
C53    C     0.82908   0.48841   0.26285   0.00000  Uiso   1.00
H54    H     0.84565   0.51700   0.31068   0.00000  Uiso   1.00
C55    C     0.77585   0.44047   0.26897   0.00000  Uiso   1.00
H56    H     0.75238   0.43235   0.32153   0.00000  Uiso   1.00
N57    N     0.75299   0.40483   0.20867   0.00000  Uiso   1.00
C58    C     0.78204   0.41433   0.14221   0.00000  Uiso   1.00
H59    H     0.76363   0.38547   0.09506   0.00000  Uiso   1.00
C60    C     0.83506   0.46165   0.13361   0.00000  Uiso   1.00
H61    H     0.85673   0.46814   0.07972   0.00000  Uiso   1.00
C62    C     0.97884   0.64832   0.00758   0.00000  Uiso   1.00
C63    C     0.94642   0.67013   0.97883   0.00000  Uiso   1.00
H64    H     0.91603   0.67275   1.01501   0.00000  Uiso   1.00
C65    C     0.95434   0.69028   0.90358   0.00000  Uiso   1.00
H66    H     0.93022   0.70859   0.88345   0.00000  Uiso   1.00
N67    N     0.99242   0.68779   0.85659   0.00000  Uiso   1.00
C68    C     0.02385   0.66587   0.88285   0.00000  Uiso   1.00
H69    H     0.05392   0.66401   0.84530   0.00000  Uiso   1.00
C70    C     0.01825   0.64657   0.95876   0.00000  Uiso   1.00
H71    H     0.04414   0.63012  -0.02101   0.00000  Uiso   1.00
C72    C     0.89952   0.72050   0.24962   0.00000  Uiso   1.00
C73    C     0.89400   0.76162   0.28969   0.00000  Uiso   1.00
H74    H     0.92851   0.79439   0.32101   0.00000  Uiso   1.00
C75    C     0.84250   0.75976   0.29111   0.00000  Uiso   1.00
H76    H     0.83844   0.79169   0.32122   0.00000  Uiso   1.00
N77    N     0.79741   0.71814   0.25481   0.00000  Uiso   1.00
C78    C     0.80101   0.67717   0.21693   0.00000  Uiso   1.00
H79    H     0.76460   0.64448   0.18848   0.00000  Uiso   1.00
C80    C     0.85174   0.67758   0.21361   0.00000  Uiso   1.00
H81    H     0.85364   0.64467   0.18264   0.00000  Uiso   1.00
O82    O     0.94722   0.57605   0.23840   0.00000  Uiso   1.00
O83    O     0.01155   0.65700   0.13573   0.00000  Uiso   1.00
O84    O     0.94881   0.67164   0.24006   0.00000  Uiso   1.00
O85    O     0.44067   0.22627   0.32564   0.00000  Uiso   1.00
O86    O     0.45609   0.23130   0.48071   0.00000  Uiso   1.00
C87    C     0.45073   0.35368   0.19075   0.00000  Uiso   1.00
C88    C     0.42342   0.33774   0.11949   0.00000  Uiso   1.00
H89    H     0.44250   0.32506   0.07569   0.00000  Uiso   1.00
C90    C     0.37636   0.34091   0.09765   0.00000  Uiso   1.00
C91    C     0.28831   0.23229   0.24829   0.00000  Uiso   1.00
C92    C     0.50245   0.34971   0.20188   0.00000  Uiso   1.00
C93    C     0.55060   0.39224   0.23735   0.00000  Uiso   1.00
H94    H     0.55129   0.42930   0.25866   0.00000  Uiso   1.00
C95    C     0.59905   0.38765   0.24258   0.00000  Uiso   1.00
H96    H     0.63660   0.42123   0.26764   0.00000  Uiso   1.00
N97    N     0.59933   0.34161   0.21512   0.00000  Uiso   1.00
C98    C     0.55251   0.29895   0.18361   0.00000  Uiso   1.00
H99    H     0.55324   0.26250   0.16312   0.00000  Uiso   1.00
C100   C     0.50389   0.30224   0.17604   0.00000  Uiso   1.00
H101   H     0.46752   0.26764   0.15012   0.00000  Uiso   1.00
C102   C     0.35637   0.32973   0.01628   0.00000  Uiso   1.00
C103   C     0.29897   0.29859   1.00044   0.00000  Uiso   1.00
H104   H     0.26882   0.28318   1.04660   0.00000  Uiso   1.00
C105   C     0.28023   0.28539   0.92456   0.00000  Uiso   1.00
H106   H     0.23605   0.26009   0.91316   0.00000  Uiso   1.00
N107   N     0.31703   0.30364   0.86512   0.00000  Uiso   1.00
C108   C     0.37290   0.33490   0.87855   0.00000  Uiso   1.00
H109   H     0.40165   0.34903   0.83084   0.00000  Uiso   1.00
C110   C     0.39352   0.34815   0.95379   0.00000  Uiso   1.00
H111   H     0.43810   0.37281  -0.03710   0.00000  Uiso   1.00
C112   C     0.28634   0.17745   0.24652   0.00000  Uiso   1.00
C113   C     0.24219   0.12927   0.27967   0.00000  Uiso   1.00
H114   H     0.20750   0.13007   0.30683   0.00000  Uiso   1.00
C115   C     0.24378   0.07956   0.28049   0.00000  Uiso   1.00
H116   H     0.21019   0.04273   0.30690   0.00000  Uiso   1.00
N117   N     0.28791   0.07747   0.25000   0.00000  Uiso   1.00
C118   C     0.33151   0.12345   0.21820   0.00000  Uiso   1.00
H119   H     0.36642   0.12094   0.19499   0.00000  Uiso   1.00
C120   C     0.33145   0.17393   0.21567   0.00000  Uiso   1.00
H121   H     0.36656   0.21005   0.19013   0.00000  Uiso   1.00
O122   O     0.43163   0.36971   0.24622   0.00000  Uiso   1.00
O123   O     0.34838   0.35118   0.14643   0.00000  Uiso   1.00
O124   O     0.33636   0.27567   0.25154   0.00000  Uiso   1.00
C125   C     0.09808   0.64809   0.30326   0.00000  Uiso   1.00
C126   C     0.08761   0.66285   0.37590   0.00000  Uiso   1.00
H127   H     0.11888   0.67147   0.41897   0.00000  Uiso   1.00
C128   C     0.03829   0.66088   0.40011   0.00000  Uiso   1.00
C129   C     0.05742   0.77152   0.25216   0.00000  Uiso   1.00
C130   C     0.15341   0.65178   0.28995   0.00000  Uiso   1.00
C131   C     0.15880   0.61075   0.24963   0.00000  Uiso   1.00
H132   H     0.12239   0.57490   0.22594   0.00000  Uiso   1.00
C133   C     0.21174   0.61530   0.24229   0.00000  Uiso   1.00
H134   H     0.21563   0.58296   0.21308   0.00000  Uiso   1.00
N135   N     0.25804   0.65972   0.27288   0.00000  Uiso   1.00
C136   C     0.25395   0.70080   0.30965   0.00000  Uiso   1.00
H137   H     0.29088   0.73611   0.33271   0.00000  Uiso   1.00
C138   C     0.20235   0.69777   0.31857   0.00000  Uiso   1.00
H139   H     0.20083   0.73141   0.34798   0.00000  Uiso   1.00
C140   C     0.03074   0.67194   0.48263   0.00000  Uiso   1.00
C141   C     0.07642   0.70586   0.53056   0.00000  Uiso   1.00
H142   H     0.11887   0.72545   0.50992   0.00000  Uiso   1.00
C143   C     0.06769   0.71722   0.60600   0.00000  Uiso   1.00
H144   H     0.10330   0.74375   0.64128   0.00000  Uiso   1.00
N145   N     0.01515   0.69676   0.63426   0.00000  Uiso   1.00
C146   C     0.97017   0.66388   0.58931   0.00000  Uiso   1.00
H147   H     0.92856   0.64813   0.61122   0.00000  Uiso   1.00
C148   C     0.97703   0.65104   0.51362   0.00000  Uiso   1.00
H149   H     0.94041   0.62526   0.47934   0.00000  Uiso   1.00
C150   C     0.11097   0.82629   0.25379   0.00000  Uiso   1.00
C151   C     0.11461   0.87664   0.23005   0.00000  Uiso   1.00
H152   H     0.07862   0.87813   0.20928   0.00000  Uiso   1.00
C153   C     0.16620   0.92619   0.23075   0.00000  Uiso   1.00
H154   H     0.16877   0.96469   0.21231   0.00000  Uiso   1.00
N155   N     0.21328   0.92631   0.25344   0.00000  Uiso   1.00
C156   C     0.21149   0.87816   0.27448   0.00000  Uiso   1.00
H157   H     0.24939   0.87851   0.29000   0.00000  Uiso   1.00
C158   C     0.16074   0.82780   0.27553   0.00000  Uiso   1.00
H159   H     0.16057   0.79020   0.29306   0.00000  Uiso   1.00
O160   O     0.06270   0.63357   0.24845   0.00000  Uiso   1.00
O161   O     0.99915   0.65041   0.35263   0.00000  Uiso   1.00
O162   O     0.06171   0.72788   0.24877   0.00000  Uiso   1.00
O163   O     0.37569   0.73899   0.95897   0.00000  Uiso   1.00
C164   C     0.55276   0.90934   0.29578   0.00000  Uiso   1.00
C165   C     0.57789   0.91941   0.36837   0.00000  Uiso   1.00
H166   H     0.55538   0.88796   0.41120   0.00000  Uiso   1.00
C167   C     0.62628   0.96791   0.39201   0.00000  Uiso   1.00
C168   C     0.71759   0.94711   0.25100   0.00000  Uiso   1.00
C169   C     0.49890   0.85605   0.28350   0.00000  Uiso   1.00
C170   C     0.49139   0.82248   0.21915   0.00000  Uiso   1.00
H171   H     0.52263   0.83691   0.17444   0.00000  Uiso   1.00
C172   C     0.44448   0.76857   0.21443   0.00000  Uiso   1.00
H173   H     0.43949   0.74235   0.16575   0.00000  Uiso   1.00
N174   N     0.40585   0.74856   0.27165   0.00000  Uiso   1.00
C175   C     0.41125   0.78101   0.33319   0.00000  Uiso   1.00
H176   H     0.38041   0.76461   0.37814   0.00000  Uiso   1.00
C177   C     0.45714   0.83493   0.34001   0.00000  Uiso   1.00
H178   H     0.46058   0.85941   0.39016   0.00000  Uiso   1.00
C179   C     0.64489   0.97560   0.47455   0.00000  Uiso   1.00
C180   C     0.63131   0.92997   0.52356   0.00000  Uiso   1.00
H181   H     0.60695   0.88739   0.50394   0.00000  Uiso   1.00
C182   C     0.65161   0.93878   0.59887   0.00000  Uiso   1.00
H183   H     0.64122   0.90321   0.63502   0.00000  Uiso   1.00
N184   N     0.68573   0.99127   0.62588   0.00000  Uiso   1.00
C185   C     0.69956   0.03625   0.58003   0.00000  Uiso   1.00
H186   H     0.72710   0.07779   0.60110   0.00000  Uiso   1.00
C187   C     0.67957   0.02933   0.50447   0.00000  Uiso   1.00
H188   H     0.69176   0.06590   0.46940   0.00000  Uiso   1.00
C189   C     0.71972   0.89428   0.25408   0.00000  Uiso   1.00
C190   C     0.76666   0.89185   0.22848   0.00000  Uiso   1.00
H191   H     0.80315   0.92846   0.20656   0.00000  Uiso   1.00
C192   C     0.76599   0.84100   0.22891   0.00000  Uiso   1.00
H193   H     0.80208   0.83914   0.20924   0.00000  Uiso   1.00
N194   N     0.72016   0.79366   0.25341   0.00000  Uiso   1.00
C195   C     0.67392   0.79440   0.27795   0.00000  Uiso   1.00
H196   H     0.63799   0.75616   0.29723   0.00000  Uiso   1.00
C197   C     0.67276   0.84442   0.27851   0.00000  Uiso   1.00
H198   H     0.63548   0.84415   0.29806   0.00000  Uiso   1.00
O199   O     0.57557   0.94305   0.23964   0.00000  Uiso   1.00
O200   O     0.65594   0.00623   0.34402   0.00000  Uiso   1.00
O201   O     0.67004   0.94267   0.24064   0.00000  Uiso   1.00
C202   C     0.36530   0.79945   0.09106   0.00000  Uiso   1.00
C203   C     0.33821   0.80064   0.15800   0.00000  Uiso   1.00
C204   C     0.41599   0.84598   1.06918   0.00000  Uiso   1.00
C205   C     0.36180   0.84779   0.20456   0.00000  Uiso   1.00
C206   C     0.44085   0.89426   1.11410   0.00000  Uiso   1.00
C207   C     0.41543   0.89672   0.18201   0.00000  Uiso   1.00
C208   C     0.44194   0.94819   0.23034   0.00000  Uiso   1.00
O209   O     0.32084   0.67933   0.08688   0.00000  Uiso   1.00
O210   O     0.27205   0.72247  -0.00425   0.00000  Uiso   1.00
C211   C     0.36194   0.44989   0.31340   0.00000  Uiso   1.00
C212   C     0.35076   0.42655   0.38726   0.00000  Uiso   1.00
H213   H     0.34550   0.45103   0.43089   0.00000  Uiso   1.00
C214   C     0.35141   0.37842   0.41110   0.00000  Uiso   1.00
C215   C     0.23638   0.28442   0.25493   0.00000  Uiso   1.00
C216   C     0.35744   0.50124   0.29995   0.00000  Uiso   1.00
C217   C     0.39341   0.54418   0.25013   0.00000  Uiso   1.00
H218   H     0.42627   0.54156   0.22024   0.00000  Uiso   1.00
C219   C     0.38761   0.59169   0.24041   0.00000  Uiso   1.00
H220   H     0.41605   0.62516   0.20328   0.00000  Uiso   1.00
N221   N     0.34678   0.59612   0.27809   0.00000  Uiso   1.00
C222   C     0.31077   0.55462   0.32516   0.00000  Uiso   1.00
H223   H     0.27853   0.55871   0.35432   0.00000  Uiso   1.00
C224   C     0.31510   0.50690   0.33651   0.00000  Uiso   1.00
H225   H     0.28491   0.47434   0.37331   0.00000  Uiso   1.00
C226   C     0.34107   0.35995   0.49387   0.00000  Uiso   1.00
C227   C     0.31285   0.37703   0.54491   0.00000  Uiso   1.00
H228   H     0.29790   0.40466   0.52752   0.00000  Uiso   1.00
C229   C     0.30049   0.35593   0.61966   0.00000  Uiso   1.00
H230   H     0.27816   0.36896   0.65735   0.00000  Uiso   1.00
N231   N     0.31414   0.31765   0.64424   0.00000  Uiso   1.00
C232   C     0.34168   0.30040   0.59686   0.00000  Uiso   1.00
H233   H     0.35182   0.26953   0.61672   0.00000  Uiso   1.00
C234   C     0.35562   0.32110   0.52166   0.00000  Uiso   1.00
H235   H     0.37674   0.30593   0.48508   0.00000  Uiso   1.00
C236   C     0.18149   0.28224   0.25598   0.00000  Uiso   1.00
C237   C     0.13708   0.24509   0.20910   0.00000  Uiso   1.00
H238   H     0.14142   0.21679   0.17078   0.00000  Uiso   1.00
C239   C     0.08680   0.24560   0.20989   0.00000  Uiso   1.00
H240   H     0.05301   0.21755   0.17298   0.00000  Uiso   1.00
N241   N     0.08034   0.28160   0.25595   0.00000  Uiso   1.00
C242   C     0.12295   0.31882   0.30079   0.00000  Uiso   1.00
H243   H     0.11727   0.34771   0.33603   0.00000  Uiso   1.00
C244   C     0.17411   0.31999   0.30142   0.00000  Uiso   1.00
H245   H     0.20754   0.34991   0.33752   0.00000  Uiso   1.00
O246   O     0.37386   0.42757   0.25759   0.00000  Uiso   1.00
O247   O     0.35941   0.34841   0.36295   0.00000  Uiso   1.00
O248   O     0.27982   0.33215   0.26238   0.00000  Uiso   1.00
C249   C     0.35858   0.90640   0.81547   0.00000  Uiso   1.00
C250   C     0.34185   0.91701   0.88667   0.00000  Uiso   1.00
H251   H     0.32762   0.88411   0.92889   0.00000  Uiso   1.00
C252   C     0.34624   0.96765   0.90982   0.00000  Uiso   1.00
C253   C     0.23795   0.94858   0.75629   0.00000  Uiso   1.00
C254   C     0.35437   0.85080   0.80324   0.00000  Uiso   1.00
C255   C     0.39810   0.84544   0.77135   0.00000  Uiso   1.00
H256   H     0.43648   0.88210   0.75404   0.00000  Uiso   1.00
C257   C     0.39276   0.79218   0.76443   0.00000  Uiso   1.00
H258   H     0.42708   0.78826   0.74205   0.00000  Uiso   1.00
N259   N     0.34499   0.74551   0.78697   0.00000  Uiso   1.00
C260   C     0.30141   0.74962   0.81526   0.00000  Uiso   1.00
H261   H     0.26368   0.71230   0.83226   0.00000  Uiso   1.00
C262   C     0.30530   0.80170   0.82418   0.00000  Uiso   1.00
H263   H     0.26999   0.80353   0.84741   0.00000  Uiso   1.00
C264   C     0.33582   0.97697   0.99178   0.00000  Uiso   1.00
C265   C     0.34312   0.94864   0.05396   0.00000  Uiso   1.00
H266   H     0.35888   0.92035   0.04534   0.00000  Uiso   1.00
C267   C     0.33022   0.95710   0.12891   0.00000  Uiso   1.00
H268   H     0.33479   0.93449   0.17606   0.00000  Uiso   1.00
N269   N     0.31101   0.99290   0.14285   0.00000  Uiso   1.00
C270   C     0.30398   0.02115   0.08404   0.00000  Uiso   1.00
H271   H     0.28750   0.04853   0.09534   0.00000  Uiso   1.00
C272   C     0.31660   0.01421   0.00847   0.00000  Uiso   1.00
H273   H     0.30987   0.03681   0.96306   0.00000  Uiso   1.00
C274   C     0.18259   0.89634   0.75660   0.00000  Uiso   1.00
C275   C     0.13729   0.89202   0.71458   0.00000  Uiso   1.00
H276   H     0.14114   0.92698   0.68187   0.00000  Uiso   1.00
C277   C     0.08690   0.84130   0.71245   0.00000  Uiso   1.00
H278   H     0.05249   0.83781   0.67889   0.00000  Uiso   1.00
N279   N     0.08110   0.79605   0.75121   0.00000  Uiso   1.00
C280   C     0.12426   0.79897   0.79230   0.00000  Uiso   1.00
H281   H     0.11920   0.76258   0.82216   0.00000  Uiso   1.00
C282   C     0.17562   0.84876   0.79531   0.00000  Uiso   1.00
H283   H     0.20961   0.85014   0.82778   0.00000  Uiso   1.00
O284   O     0.37528   0.94202   0.76065   0.00000  Uiso   1.00
O285   O     0.35720   0.00629   0.86128   0.00000  Uiso   1.00
O286   O     0.28113   0.94344   0.75554   0.00000  Uiso   1.00
C287   C     0.09458   0.44885   0.81728   0.00000  Uiso   1.00
C288   C     0.08422   0.42395   0.89011   0.00000  Uiso   1.00
H289   H     0.11545   0.44680   0.93294   0.00000  Uiso   1.00
C290   C     0.03582   0.37521   0.91366   0.00000  Uiso   1.00
C291   C     0.05730   0.28372   0.74801   0.00000  Uiso   1.00
C292   C     0.14777   0.50308   0.80462   0.00000  Uiso   1.00
C293   C     0.18005   0.51123   0.73862   0.00000  Uiso   1.00
H294   H     0.16497   0.48013   0.69368   0.00000  Uiso   1.00
C295   C     0.23372   0.55837   0.73248   0.00000  Uiso   1.00
H296   H     0.25896   0.56333   0.68270   0.00000  Uiso   1.00
N297   N     0.25484   0.59693   0.78977   0.00000  Uiso   1.00
C298   C     0.22367   0.59110   0.85302   0.00000  Uiso   1.00
H299   H     0.24094   0.62203   0.89796   0.00000  Uiso   1.00
C300   C     0.17002   0.54474   0.86144   0.00000  Uiso   1.00
H301   H     0.14663   0.54104   0.91286   0.00000  Uiso   1.00
C302   C     0.02808   0.35624   0.99615   0.00000  Uiso   1.00
C303   C     0.07368   0.37186   0.04610   0.00000  Uiso   1.00
H304   H     0.11625   0.39811   0.02764   0.00000  Uiso   1.00
C305   C     0.06506   0.35128   0.12113   0.00000  Uiso   1.00
H306   H     0.10062   0.36344   0.15806   0.00000  Uiso   1.00
N307   N     0.01288   0.31478   0.14700   0.00000  Uiso   1.00
C308   C     0.96785   0.29873   0.10044   0.00000  Uiso   1.00
H309   H     0.92662   0.26928   0.12121   0.00000  Uiso   1.00
C310   C     0.97453   0.31901   0.02502   0.00000  Uiso   1.00
H311   H     0.93800   0.30503   0.98925   0.00000  Uiso   1.00
C312   C     0.11047   0.28224   0.74857   0.00000  Uiso   1.00
C313   C     0.11992   0.24814   0.69830   0.00000  Uiso   1.00
H314   H     0.08881   0.22176   0.65687   0.00000  Uiso   1.00
C315   C     0.17102   0.24919   0.69997   0.00000  Uiso   1.00
H316   H     0.17832   0.22330   0.66083   0.00000  Uiso   1.00
N317   N     0.21177   0.28295   0.74989   0.00000  Uiso   1.00
C318   C     0.20439   0.31746   0.79777   0.00000  Uiso   1.00
H319   H     0.23761   0.34472   0.83605   0.00000  Uiso   1.00
C320   C     0.15400   0.31781   0.79795   0.00000  Uiso   1.00
H321   H     0.14894   0.34541   0.83688   0.00000  Uiso   1.00
O322   O     0.06128   0.42539   0.76092   0.00000  Uiso   1.00
O323   O     0.99760   0.34540   0.86559   0.00000  Uiso   1.00
O324   O     0.06070   0.33024   0.76360   0.00000  Uiso   1.00
O325   O     0.31007   0.66500   0.45610   0.00000  Uiso   1.00
C326   C     0.55560   0.64360   0.81710   0.00000  Uiso   1.00
C327   C     0.58266   0.66015   0.88858   0.00000  Uiso   1.00
H328   H     0.56379   0.67363   0.93150   0.00000  Uiso   1.00
C329   C     0.63047   0.65835   0.91076   0.00000  Uiso   1.00
C330   C     0.71928   0.76974   0.74381   0.00000  Uiso   1.00
C331   C     0.50099   0.64224   0.80590   0.00000  Uiso   1.00
C332   C     0.48866   0.65918   0.73613   0.00000  Uiso   1.00
H333   H     0.51689   0.67029   0.68801   0.00000  Uiso   1.00
C334   C     0.44088   0.66464   0.72958   0.00000  Uiso   1.00
H335   H     0.43263   0.67932   0.67654   0.00000  Uiso   1.00
N336   N     0.40574   0.65310   0.79020   0.00000  Uiso   1.00
C337   C     0.41537   0.63438   0.85726   0.00000  Uiso   1.00
H338   H     0.38682   0.62494   0.90457   0.00000  Uiso   1.00
C339   C     0.46251   0.62844   0.86627   0.00000  Uiso   1.00
H340   H     0.46903   0.61385   0.92063   0.00000  Uiso   1.00
C341   C     0.65050   0.66959   0.99230   0.00000  Uiso   1.00
C342   C     0.61378   0.65571   0.05498   0.00000  Uiso   1.00
H343   H     0.56908   0.63430   0.04646   0.00000  Uiso   1.00
C344   C     0.63494   0.66936   0.12995   0.00000  Uiso   1.00
H345   H     0.60659   0.65913   0.17770   0.00000  Uiso   1.00
N346   N     0.69095   0.69604   0.14300   0.00000  Uiso   1.00
C347   C     0.72731   0.70945   0.08360   0.00000  Uiso   1.00
H348   H     0.77169   0.73126   0.09472   0.00000  Uiso   1.00
C349   C     0.70798   0.69616   0.00804   0.00000  Uiso   1.00
H350   H     0.73797   0.70796   0.96197   0.00000  Uiso   1.00
C351   C     0.72090   0.82446   0.74229   0.00000  Uiso   1.00
C352   C     0.75527   0.86720   0.69108   0.00000  Uiso   1.00
H353   H     0.78170   0.86172   0.65058   0.00000  Uiso   1.00
C354   C     0.75444   0.91736   0.69059   0.00000  Uiso   1.00
H355   H     0.78078   0.95015   0.65111   0.00000  Uiso   1.00
N356   N     0.72040   0.92512   0.73895   0.00000  Uiso   1.00
C357   C     0.68619   0.88431   0.78843   0.00000  Uiso   1.00
H358   H     0.65925   0.89103   0.82620   0.00000  Uiso   1.00
C359   C     0.68560   0.83346   0.79074   0.00000  Uiso   1.00
H360   H     0.65804   0.80153   0.83057   0.00000  Uiso   1.00
O361   O     0.57747   0.63181   0.76053   0.00000  Uiso   1.00
O362   O     0.65928   0.64922   0.86199   0.00000  Uiso   1.00
O363   O     0.67267   0.72667   0.75925   0.00000  Uiso   1.00
C364   C     0.39793   0.64008   0.49232   0.00000  Uiso   1.00
C365   C     0.38597   0.59019   0.52854   0.00000  Uiso   1.00
C366   C     0.43825   0.66196   0.43447   0.00000  Uiso   1.00
C367   C     0.41459   0.56255   0.50755   0.00000  Uiso   1.00
C368   C     0.46694   0.63440   0.41343   0.00000  Uiso   1.00
C369   C     0.45539   0.58458   0.44993   0.00000  Uiso   1.00
C370   C     0.48672   0.55562   0.42713   0.00000  Uiso   1.00
O371   O     0.40459   0.74702   0.52349   0.00000  Uiso   1.00
C372   C     0.91299   0.35626   0.69336   0.00000  Uiso   1.00
C373   C     0.92382   0.34032   0.62169   0.00000  Uiso   1.00
H374   H     0.89191   0.32787   0.57822   0.00000  Uiso   1.00
C375   C     0.97303   0.34114   0.60003   0.00000  Uiso   1.00
C376   C     0.95313   0.23095   0.73972   0.00000  Uiso   1.00
C377   C     0.85975   0.35773   0.70413   0.00000  Uiso   1.00
C378   C     0.82859   0.33787   0.77206   0.00000  Uiso   1.00
H379   H     0.84419   0.32421   0.81925   0.00000  Uiso   1.00
C380   C     0.77543   0.33277   0.77774   0.00000  Uiso   1.00
H381   H     0.75103   0.31577   0.82925   0.00000  Uiso   1.00
N382   N     0.75368   0.34752   0.71812   0.00000  Uiso   1.00
C383   C     0.78384   0.36890   0.65286   0.00000  Uiso   1.00
H384   H     0.76619   0.38070   0.60619   0.00000  Uiso   1.00
C385   C     0.83687   0.37444   0.64470   0.00000  Uiso   1.00
H386   H     0.85940   0.39099   0.59169   0.00000  Uiso   1.00
C387   C     0.98148   0.32922   0.51875   0.00000  Uiso   1.00
C388   C     1.00875   0.29894   0.50354   0.00000  Uiso   1.00
H389   H     1.02435   0.28461   0.54998   0.00000  Uiso   1.00
C390   C     1.01447   0.28533   0.42797   0.00000  Uiso   1.00
H391   H     1.03434   0.26086   0.41714   0.00000  Uiso   1.00
N392   N     0.99489   0.30214   0.36813   0.00000  Uiso   1.00
C393   C    -0.03088   0.33240   0.38082   0.00000  Uiso   1.00
H394   H    -0.04622   0.34546   0.33278   0.00000  Uiso   1.00
C395   C    -0.03822   0.34625   0.45577   0.00000  Uiso   1.00
H396   H    -0.05878   0.37037   0.46415   0.00000  Uiso   1.00
C397   C     0.89984   0.17616   0.73327   0.00000  Uiso   1.00
C398   C     0.89746   0.12424   0.73974   0.00000  Uiso   1.00
H399   H     0.93428   0.12103   0.74927   0.00000  Uiso   1.00
C400   C     0.84589   0.07477   0.73712   0.00000  Uiso   1.00
H401   H     0.84411   0.03505   0.74355   0.00000  Uiso   1.00
N402   N     0.79773   0.07622   0.72956   0.00000  Uiso   1.00
C403   C     0.79844   0.12550   0.72369   0.00000  Uiso   1.00
H404   H     0.75958   0.12578   0.71995   0.00000  Uiso   1.00
C405   C     0.84903   0.17588   0.72461   0.00000  Uiso   1.00
H406   H     0.84812   0.21443   0.71996   0.00000  Uiso   1.00
O407   O     0.94628   0.36744   0.75031   0.00000  Uiso   1.00
O408   O     0.01082   0.34994   0.64890   0.00000  Uiso   1.00
O409   O     0.94819   0.27351   0.75285   0.00000  Uiso   1.00
O410   O     0.65200   0.35419   1.05216   0.00000  Uiso   1.00
C411   C     0.45622   0.09188   0.69455   0.00000  Uiso   1.00
C412   C     0.43083   0.08241   0.62210   0.00000  Uiso   1.00
H413   H     0.45178   0.11470   0.57934   0.00000  Uiso   1.00
C414   C     0.38378   0.03306   0.59768   0.00000  Uiso   1.00
C415   C     0.29063   0.05276   0.75027   0.00000  Uiso   1.00
C416   C     0.51015   0.14515   0.70742   0.00000  Uiso   1.00
C417   C     0.51720   0.17903   0.77121   0.00000  Uiso   1.00
H418   H     0.48532   0.16509   0.81500   0.00000  Uiso   1.00
C419   C     0.56425   0.23289   0.77611   0.00000  Uiso   1.00
H420   H     0.56820   0.25955   0.82363   0.00000  Uiso   1.00
N421   N     0.60387   0.25251   0.72007   0.00000  Uiso   1.00
C422   C     0.59916   0.21958   0.65938   0.00000  Uiso   1.00
H423   H     0.63097   0.23557   0.61547   0.00000  Uiso   1.00
C424   C     0.55269   0.16584   0.65200   0.00000  Uiso   1.00
H425   H     0.54940   0.14093   0.60255   0.00000  Uiso   1.00
C426   C     0.36577   0.02698   0.51569   0.00000  Uiso   1.00
C427   C     0.36019   0.06923   0.47953   0.00000  Uiso   1.00
H428   H     0.37019   0.10724   0.50981   0.00000  Uiso   1.00
C429   C     0.33945   0.06175   0.40465   0.00000  Uiso   1.00
H430   H     0.33451   0.09447   0.37912   0.00000  Uiso   1.00
N431   N     0.32519   0.01401   0.36485   0.00000  Uiso   1.00
C432   C     0.33197   0.97306   0.39786   0.00000  Uiso   1.00
H433   H     0.32172   0.93576   0.36604   0.00000  Uiso   1.00
C434   C     0.35136   0.97834   0.47369   0.00000  Uiso   1.00
H435   H     0.35520   0.94478   0.49921   0.00000  Uiso   1.00
C436   C     0.28926   0.10612   0.74934   0.00000  Uiso   1.00
C437   C     0.24229   0.10876   0.72442   0.00000  Uiso   1.00
H438   H     0.20548   0.07237   0.70288   0.00000  Uiso   1.00
C439   C     0.24294   0.15960   0.72595   0.00000  Uiso   1.00
H440   H     0.20650   0.16120   0.70770   0.00000  Uiso   1.00
N441   N     0.28892   0.20694   0.75022   0.00000  Uiso   1.00
C442   C     0.33552   0.20614   0.77283   0.00000  Uiso   1.00
H443   H     0.37184   0.24430   0.79126   0.00000  Uiso   1.00
C444   C     0.33656   0.15608   0.77283   0.00000  Uiso   1.00
H445   H     0.37397   0.15643   0.79189   0.00000  Uiso   1.00
O446   O     0.43345   0.05738   0.75005   0.00000  Uiso   1.00
O447   O     0.35464   0.99354   0.64436   0.00000  Uiso   1.00
O448   O     0.33836   0.05666   0.74602   0.00000  Uiso   1.00
C449   C     0.58027   0.23989   1.00051   0.00000  Uiso   1.00
C450   C     0.60926   0.21056   1.00311   0.00000  Uiso   1.00
C451   C     0.52327   0.21248   0.01795   0.00000  Uiso   1.00
C452   C     0.58151   0.15417   1.02341   0.00000  Uiso   1.00
C453   C     0.49559   0.15623   0.03922   0.00000  Uiso   1.00
C454   C     0.52466   0.12677   1.04230   0.00000  Uiso   1.00
C455   C     0.49583   0.06663   1.06586   0.00000  Uiso   1.00
O456   O     0.57337   0.33641   0.94421   0.00000  Uiso   1.00
C457   C     0.64701   0.55279   0.69135   0.00000  Uiso   1.00
C458   C     0.66261   0.57938   0.61948   0.00000  Uiso   1.00
H459   H     0.67587   0.56035   0.57651   0.00000  Uiso   1.00
C460   C     0.66022   0.62688   0.59716   0.00000  Uiso   1.00
C461   C     0.77231   0.71855   0.73765   0.00000  Uiso   1.00
C462   C     0.64631   0.49843   0.70255   0.00000  Uiso   1.00
C463   C     0.66557   0.48725   0.77114   0.00000  Uiso   1.00
H464   H     0.67815   0.51625   0.81854   0.00000  Uiso   1.00
C465   C     0.67148   0.43966   0.77730   0.00000  Uiso   1.00
H466   H     0.68794   0.43234   0.82940   0.00000  Uiso   1.00
N467   N     0.65820   0.40356   0.71745   0.00000  Uiso   1.00
C468   C     0.63729   0.41212   0.65158   0.00000  Uiso   1.00
H469   H     0.62651   0.38292   0.60478   0.00000  Uiso   1.00
C470   C     0.63089   0.45908   0.64298   0.00000  Uiso   1.00
H471   H     0.61470   0.46484   0.58949   0.00000  Uiso   1.00
C472   C     0.67099   0.64681   0.51552   0.00000  Uiso   1.00
C473   C     0.65856   0.61025   0.45293   0.00000  Uiso   1.00
H474   H     0.63820   0.56560   0.46141   0.00000  Uiso   1.00
C475   C     0.67248   0.63152   0.37805   0.00000  Uiso   1.00
H476   H     0.66359   0.60333   0.33044   0.00000  Uiso   1.00
N477   N     0.69787   0.68746   0.36496   0.00000  Uiso   1.00
C478   C     0.70927   0.72362   0.42413   0.00000  Uiso   1.00
H479   H     0.72973   0.76794   0.41288   0.00000  Uiso   1.00
C480   C     0.69587   0.70417   0.49963   0.00000  Uiso   1.00
H481   H     0.70641   0.73407   0.54557   0.00000  Uiso   1.00
C482   C     0.82758   0.72075   0.73480   0.00000  Uiso   1.00
C483   C     0.87890   0.77066   0.74380   0.00000  Uiso   1.00
H484   H     0.88129   0.81036   0.75286   0.00000  Uiso   1.00
C485   C     0.92884   0.76949   0.74435   0.00000  Uiso   1.00
H486   H     0.96791   0.80779   0.75259   0.00000  Uiso   1.00
N487   N     0.92857   0.72045   0.73744   0.00000  Uiso   1.00
C488   C     0.87984   0.67139   0.73035   0.00000  Uiso   1.00
H489   H     0.88033   0.63261   0.72772   0.00000  Uiso   1.00
C490   C     0.82898   0.67068   0.72797   0.00000  Uiso   1.00
H491   H     0.79091   0.63091   0.72209   0.00000  Uiso   1.00
O492   O     0.63556   0.57486   0.74809   0.00000  Uiso   1.00
O493   O     0.65106   0.65566   0.64593   0.00000  Uiso   1.00
O494   O     0.72950   0.67076   0.74808   0.00000  Uiso   1.00
O495   O     0.66575   0.32905   0.90608   0.00000  Uiso   1.00
C496   C     0.76623  -0.00079   0.25898   0.00000  Uiso   1.00
H497   H     0.80365  -0.00112   0.27549   0.00000  Uiso   1.00
Fe498  Fe    0.65195  -0.00013   0.23540   0.00000  Uiso   1.00
C499   C     0.00508   0.76830   0.25450   0.00000  Uiso   1.00
H500   H     0.00480   0.80694   0.26011   0.00000  Uiso   1.00
Fe501  Fe    0.00516   0.65239   0.24404   0.00000  Uiso   1.00
C502   C     0.23936   0.23556   0.24665   0.00000  Uiso   1.00
H503   H     0.20031   0.19684   0.24104   0.00000  Uiso   1.00
Fe504  Fe    0.35532   0.35119   0.25455   0.00000  Uiso   1.00
C505   C     0.24148   0.00089   0.75673   0.00000  Uiso   1.00
H506   H     0.20265   0.00083   0.76357   0.00000  Uiso   1.00
Fe507  Fe    0.35699  -0.00014   0.75298   0.00000  Uiso   1.00
C508   C     0.00593   0.23563   0.73222   0.00000  Uiso   1.00
H509   H     0.00737   0.19850   0.71798   0.00000  Uiso   1.00
Fe510  Fe    0.00413   0.34902   0.75707   0.00000  Uiso   1.00
C511   C     0.76762   0.76660   0.72999   0.00000  Uiso   1.00
H512   H     0.80488   0.80531   0.71676   0.00000  Uiso   1.00
Fe513  Fe    0.65391   0.65115   0.75398   0.00000  Uiso   1.00
Ag514  Ag    0.67183   0.33474   0.21430   0.00000  Uiso   1.00
S515   S     0.48568   0.22922   0.39539   0.00000  Uiso   1.00
Ag516  Ag    0.33745   0.66685   0.26948   0.00000  Uiso   1.00
S517   S     0.33502   0.73730   0.03422   0.00000  Uiso   1.00
Ag518  Ag    0.33668   0.66556   0.78479   0.00000  Uiso   1.00
S519   S     0.36182   0.67598   0.51968   0.00000  Uiso   1.00
Ag520  Ag    0.67189   0.33500   0.72243   0.00000  Uiso   1.00
S521   S     0.61633   0.31250   0.97595   0.00000  Uiso   1.00
Ag522  Ag    0.72245   0.00143   0.73558   0.00000  Uiso   1.00
Ag523  Ag    0.00446   0.72199   0.74482   0.00000  Uiso   1.00
Ag524  Ag    0.28591   0.28054   0.75271   0.00000  Uiso   1.00
Ag525  Ag    0.28786   0.00238   0.25463   0.00000  Uiso   1.00
Ag526  Ag    0.00356   0.27859   0.25635   0.00000  Uiso   1.00
Ag527  Ag    0.72347   0.72043   0.25424   0.00000  Uiso   1.00
H528   H     0.43830   0.12640   0.30639   0.00000  Uiso   1.00
H529   H     0.56562   0.20974   0.47703   0.00000  Uiso   1.00
H530   H     0.45603   0.04780   0.30643   0.00000  Uiso   1.00
H531   H     0.58502   0.13209   0.47545   0.00000  Uiso   1.00
H532   H     0.56493   0.04200   0.43284   0.00000  Uiso   1.00
H533   H     0.54660   0.03190   0.33309   0.00000  Uiso   1.00
H534   H     0.49335  -0.00328   0.40516   0.00000  Uiso   1.00
H535   H     0.29890   0.76475   0.17409   0.00000  Uiso   1.00
H536   H     0.43654   0.84476   1.01716   0.00000  Uiso   1.00
H537   H     0.34075   0.84829   0.25651   0.00000  Uiso   1.00
H538   H     0.48008   0.92962   1.09612   0.00000  Uiso   1.00
H539   H     0.44485   0.98375   0.19733   0.00000  Uiso   1.00
H540   H     0.48441   0.95785   0.24721   0.00000  Uiso   1.00
H541   H     0.41716   0.94255   0.28293   0.00000  Uiso   1.00
H542   H     0.35470   0.57286   0.57312   0.00000  Uiso   1.00
H543   H     0.44750   0.70035   0.40589   0.00000  Uiso   1.00
H544   H     0.40501   0.52412   0.53632   0.00000  Uiso   1.00
H545   H     0.49811   0.65180   0.36870   0.00000  Uiso   1.00
H546   H     0.48008   0.54504   0.36535   0.00000  Uiso   1.00
H547   H     0.47257   0.51653   0.46009   0.00000  Uiso   1.00
H548   H     0.53197   0.58360   0.43773   0.00000  Uiso   1.00
H549   H     0.65332   0.23139   0.98969   0.00000  Uiso   1.00
H550   H     0.50049   0.23483   0.01611   0.00000  Uiso   1.00
H551   H     0.60437   0.13192   1.02502   0.00000  Uiso   1.00
H552   H     0.45164   0.13582   0.05340   0.00000  Uiso   1.00
H553   H     0.51745   0.06164   1.11617   0.00000  Uiso   1.00
H554   H     0.49694   0.04078   1.01806   0.00000  Uiso   1.00
H555   H     0.45164   0.05128   1.08151   0.00000  Uiso   1.00
O556   O     0.32991   0.65660   0.60736   0.00000  Uiso   1.00
loop_
_geom_bond_atom_site_label_1
_geom_bond_atom_site_label_2
_geom_bond_distance
_geom_bond_site_symmetry_2
_ccdc_geom_bond_type
C1     C2      1.409   .     A
C1     C6      1.503   .     S
C1     O36     1.285   .     A
C2     H3      1.084   .     S
C2     C4      1.400   .     A
C4     C16     1.492   .     S
C4     O37     1.275   1_545 A
C5     C26     1.497   .     S
C5     O38     1.272   .     A
C5     C496    1.405   .     A
C6     C7      1.406   .     A
C6     C14     1.409   .     A
C7     H8      1.081   .     S
C7     C9      1.411   .     A
C9     H10     1.081   .     S
C9     N11     1.366   .     A
N11    C12     1.360   .     A
N11    Ag514   2.112   .     S
C12    H13     1.081   .     S
C12    C14     1.401   .     A
C14    H15     1.083   .     S
C16    C17     1.402   1_554 S
C16    C24     1.405   1_544 A
C17    H18     1.084   .     S
C17    C19     1.401   .     A
C17    C16     1.402   1_556 S
C19    H20     1.079   .     S
C19    N21     1.365   .     A
N21    Ag522   2.124   .     S
N21    C22     1.366   1_545 A
C22    H23     1.082   .     S
C22    C24     1.411   .     A
C22    N21     1.366   1_565 A
C24    C16     1.405   1_566 A
C24    H25     1.083   1_556 A
H25    C24     1.083   1_554 A
C26    C27     1.408   .     A
C26    C34     1.410   .     A
C27    H28     1.081   .     S
C27    C29     1.399   .     A
C29    H30     1.080   .     S
C29    N31     1.360   .     A
N31    C32     1.359   .     A
N31    Ag526   2.081   1_655 A
C32    H33     1.082   .     S
C32    C34     1.401   .     A
C34    H35     1.083   .     S
O36    Fe498   1.914   .     S
O37    C4      1.275   1_565 A
O37    Fe498   1.900   1_565 S
O38    Fe498   1.887   .     S
C39    C40     1.399   .     A
C39    C41     1.399   .     A
C39    S515    1.791   .     S
C40    C42     1.398   .     A
C40    H528    1.082   .     S
C41    C43     1.398   .     A
C41    H529    1.083   .     S
C42    C44     1.403   .     A
C42    H530    1.081   .     S
C43    C44     1.403   .     A
C43    H531    1.083   .     S
C44    C45     1.501   .     S
C45    H532    1.111   .     S
C45    H533    1.109   .     S
C45    H534    1.110   .     S
O46    S515    1.716   .     S
C47    C48     1.410   .     A
C47    C52     1.506   .     S
C47    O82     1.286   .     A
C48    H49     1.084   .     S
C48    C50     1.400   .     A
C50    C62     1.492   .     S
C50    O83     1.274   1_655 A
C51    C72     1.497   .     S
C51    O84     1.272   .     A
C51    C499    1.407   1_655 S
C52    C53     1.408   .     A
C52    C60     1.409   .     A
C53    H54     1.083   .     S
C53    C55     1.410   .     A
C55    H56     1.082   .     S
C55    N57     1.364   .     A
N57    C58     1.362   .     A
N57    Ag514   2.113   .     S
C58    H59     1.082   .     S
C58    C60     1.404   .     A
C60    H61     1.082   .     S
C62    C63     1.402   1_554 A
C62    C70     1.405   1_654 A
C63    H64     1.084   .     S
C63    C65     1.403   .     A
C63    C62     1.402   1_556 A
C65    H66     1.079   .     S
C65    N67     1.365   .     A
N67    C68     1.365   1_655 S
N67    Ag523   2.123   1_655 A
C68    H69     1.081   .     S
C68    C70     1.410   .     A
C68    N67     1.365   1_455 S
C70    C62     1.405   1_456 A
C70    H71     1.083   1_556 A
H71    C70     1.083   1_554 A
C72    C73     1.408   .     A
C72    C80     1.409   .     A
C73    H74     1.081   .     S
C73    C75     1.401   .     A
C75    H76     1.082   .     S
C75    N77     1.360   .     A
N77    C78     1.359   .     A
N77    Ag527   2.079   .     S
C78    H79     1.082   .     S
C78    C80     1.400   .     A
C80    H81     1.083   .     S
O82    Fe501   1.913   1_655 A
O83    Fe501   1.900   .     S
O83    C50     1.274   1_455 A
O84    Fe501   1.885   1_655 S
O85    S515    1.716   .     S
O86    S515    1.716   .     S
C87    C88     1.409   .     A
C87    C92     1.502   .     S
C87    O122    1.285   .     A
C88    H89     1.083   .     S
C88    C90     1.402   .     A
C90    C102    1.501   .     S
C90    O123    1.276   .     A
C91    C112    1.492   .     S
C91    O124    1.272   .     A
C91    C502    1.403   .     A
C92    C93     1.406   .     A
C92    C100    1.409   .     A
C93    H94     1.083   .     S
C93    C95     1.412   .     A
C95    H96     1.082   .     S
C95    N97     1.366   .     A
N97    C98     1.359   .     A
N97    Ag514   2.109   .     S
C98    H99     1.080   .     S
C98    C100    1.400   .     A
C100   H101    1.083   .     S
C102   C103    1.405   1_554 A
C102   C110    1.409   1_554 A
C103   H104    1.083   .     S
C103   C105    1.404   .     A
C103   C102    1.405   1_556 A
C105   H106    1.081   .     S
C105   N107    1.363   .     A
N107   C108    1.363   .     A
N107   Ag524   2.112   .     S
C108   H109    1.082   .     S
C108   C110    1.407   .     A
C110   C102    1.409   1_556 A
C110   H111    1.083   1_556 A
H111   C110    1.083   1_554 A
C112   C113    1.407   .     A
C112   C120    1.408   .     A
C113   H114    1.081   .     S
C113   C115    1.399   .     A
C115   H116    1.081   .     S
C115   N117    1.360   .     A
N117   C118    1.360   .     A
N117   Ag525   2.080   .     S
C118   H119    1.082   .     S
C118   C120    1.399   .     A
C120   H121    1.083   .     S
O122   Fe504   1.914   .     S
O123   Fe504   1.900   .     S
O124   Fe504   1.885   .     S
C125   C126    1.408   .     A
C125   C130    1.501   .     S
C125   O160    1.283   .     A
C126   H127    1.080   .     S
C126   C128    1.404   .     A
C128   C140    1.511   .     S
C128   O161    1.278   1_455 A
C129   C150    1.500   .     S
C129   O162    1.273   .     A
C129   C499    1.407   .     A
C130   C131    1.407   .     A
C130   C138    1.408   .     A
C131   H132    1.083   .     S
C131   C133    1.413   .     A
C133   H134    1.082   .     S
C133   N135    1.366   .     A
N135   C136    1.359   .     A
N135   Ag516   2.107   .     S
C136   H137    1.079   .     S
C136   C138    1.397   .     A
C138   H139    1.083   .     S
C140   C141    1.413   .     A
C140   C148    1.407   1_455 A
C141   H142    1.081   .     S
C141   C143    1.404   .     A
C143   H144    1.081   .     S
C143   N145    1.363   .     A
N145   Ag523   2.125   .     S
N145   C146    1.365   1_455 S
C146   H147    1.078   .     S
C146   C148    1.407   .     A
C146   N145    1.365   1_655 S
C148   H149    1.083   .     S
C148   C140    1.407   1_655 A
C150   C151    1.409   .     A
C150   C158    1.410   .     A
C151   H152    1.080   .     S
C151   C153    1.401   .     A
C153   H154    1.081   .     S
C153   N155    1.361   .     A
N155   C156    1.360   .     A
N155   Ag525   2.086   1_565 S
C156   H157    1.079   .     S
C156   C158    1.400   .     A
C158   H159    1.083   .     S
O160   Fe501   1.909   .     S
O161   C128    1.278   1_655 A
O161   Fe501   1.904   1_655 A
O162   Fe501   1.885   .     S
O163   S517    1.717   1_556 A
C164   C165    1.406   .     A
C164   C169    1.499   .     S
C164   O199    1.282   .     A
C165   H166    1.079   .     S
C165   C167    1.403   .     A
C167   C179    1.511   .     S
C167   O200    1.278   1_565 S
C168   C189    1.494   .     S
C168   O201    1.272   .     A
C168   C496    1.404   1_565 A
C169   C170    1.407   .     A
C169   C177    1.406   .     A
C170   H171    1.083   .     S
C170   C172    1.408   .     A
C172   H173    1.082   .     S
C172   N174    1.363   .     A
N174   C175    1.361   .     A
N174   Ag516   2.103   .     S
C175   H176    1.079   .     S
C175   C177    1.400   .     A
C177   H178    1.083   .     S
C179   C180    1.413   .     A
C179   C187    1.407   1_565 S
C180   H181    1.080   .     S
C180   C182    1.404   .     A
C182   H183    1.081   .     S
C182   N184    1.362   .     A
N184   C185    1.365   1_565 A
N184   Ag522   2.122   1_565 S
C185   H186    1.078   .     S
C185   C187    1.408   .     A
C185   N184    1.365   1_545 A
C187   H188    1.083   .     S
C187   C179    1.407   1_545 S
C189   C190    1.407   .     A
C189   C197    1.408   .     A
C190   H191    1.082   .     S
C190   C192    1.399   .     A
C192   H193    1.082   .     S
C192   N194    1.359   .     A
N194   C195    1.360   .     A
N194   Ag527   2.075   .     S
C195   H196    1.082   .     S
C195   C197    1.401   .     A
C197   H198    1.084   .     S
O199   Fe498   1.904   1_565 A
O200   Fe498   1.905   .     S
O200   C167    1.278   1_545 S
O201   Fe498   1.887   1_565 S
C202   C203    1.399   .     A
C202   S517    1.791   .     S
C202   C204    1.403   1_554 S
C203   C205    1.393   .     A
C203   H535    1.081   .     S
C204   C206    1.399   .     A
C204   H536    1.082   .     S
C204   C202    1.403   1_556 S
C205   C207    1.478   .     S
C205   H537    1.083   .     S
C206   H538    1.083   .     S
C206   C207    1.399   1_556 S
C207   C208    1.496   .     S
C207   C206    1.399   1_554 S
C208   H539    1.109   .     S
C208   H540    1.107   .     S
C208   H541    1.110   .     S
O209   S517    1.717   .     S
O210   S517    1.716   .     S
C211   C212    1.407   .     A
C211   C216    1.506   .     S
C211   O246    1.283   .     A
C212   H213    1.077   .     S
C212   C214    1.405   .     A
C214   C226    1.513   .     S
C214   O247    1.277   .     A
C215   C236    1.490   .     S
C215   O248    1.273   .     A
C215   C502    1.403   .     A
C216   C217    1.407   .     A
C216   C224    1.411   .     A
C217   H218    1.082   .     S
C217   C219    1.413   .     A
C219   H220    1.082   .     S
C219   N221    1.366   .     A
N221   C222    1.358   .     A
N221   Ag516   2.105   .     S
C222   H223    1.082   .     S
C222   C224    1.399   .     A
C224   H225    1.082   .     S
C226   C227    1.414   .     A
C226   C234    1.410   .     A
C227   H228    1.080   .     S
C227   C229    1.402   .     A
C229   H230    1.081   .     S
C229   N231    1.360   .     A
N231   C232    1.364   .     A
N231   Ag524   2.111   .     S
C232   H233    1.081   .     S
C232   C234    1.409   .     A
C234   H235    1.083   .     S
C236   C237    1.406   .     A
C236   C244    1.407   .     A
C237   H238    1.082   .     S
C237   C239    1.399   .     A
C239   H240    1.081   .     S
C239   N241    1.361   .     A
N241   C242    1.361   .     A
N241   Ag526   2.085   .     S
C242   H243    1.081   .     S
C242   C244    1.400   .     A
C244   H245    1.084   .     S
O246   Fe504   1.911   .     S
O247   Fe504   1.902   .     S
O248   Fe504   1.888   .     S
C249   C250    1.409   .     A
C249   C254    1.500   .     S
C249   O284    1.284   .     A
C250   H251    1.082   .     S
C250   C252    1.405   .     A
C252   C264    1.509   .     S
C252   O285    1.277   1_565 A
C253   C274    1.491   .     S
C253   O286    1.273   .     A
C253   C505    1.402   1_565 S
C254   C255    1.406   .     A
C254   C262    1.407   .     A
C255   H256    1.083   .     S
C255   C257    1.412   .     A
C257   H258    1.082   .     S
C257   N259    1.366   .     A
N259   C260    1.360   .     A
N259   Ag518   2.108   .     S
C260   H261    1.081   .     S
C260   C262    1.400   .     A
C262   H263    1.083   .     S
C264   C265    1.413   1_556 A
C264   C272    1.407   1_566 S
C265   H266    1.081   .     S
C265   C267    1.408   .     A
C265   C264    1.413   1_554 A
C267   H268    1.080   .     S
C267   N269    1.361   .     A
N269   C270    1.363   1_565 S
N269   Ag525   2.113   1_565 S
C270   H271    1.081   .     S
C270   C272    1.404   .     A
C270   N269    1.363   1_545 S
C272   C264    1.407   1_544 S
C272   H273    1.083   1_554 A
H273   C272    1.083   1_556 A
C274   C275    1.406   .     A
C274   C282    1.406   .     A
C275   H276    1.083   .     S
C275   C277    1.400   .     A
C277   H278    1.081   .     S
C277   N279    1.361   .     A
N279   C280    1.361   .     A
N279   Ag523   2.090   .     S
C280   H281    1.080   .     S
C280   C282    1.402   .     A
C282   H283    1.083   .     S
O284   Fe507   1.910   1_565 A
O285   Fe507   1.901   .     S
O285   C252    1.277   1_545 A
O286   Fe507   1.890   1_565 A
C287   C288    1.407   .     A
C287   C292    1.503   .     S
C287   O322    1.282   .     A
C288   H289    1.078   .     S
C288   C290    1.406   .     A
C290   C302    1.513   .     S
C290   O323    1.278   1_455 A
C291   C312    1.493   .     S
C291   O324    1.273   .     A
C291   C508    1.406   .     A
C292   C293    1.407   .     A
C292   C300    1.409   .     A
C293   H294    1.083   .     S
C293   C295    1.408   .     A
C295   H296    1.081   .     S
C295   N297    1.364   .     A
N297   C298    1.362   .     A
N297   Ag518   2.109   .     S
C298   H299    1.081   .     S
C298   C300    1.403   .     A
C300   H301    1.082   .     S
C302   C303    1.413   1_556 S
C302   C310    1.410   1_456 S
C303   H304    1.079   .     S
C303   C305    1.402   .     A
C303   C302    1.413   1_554 S
C305   H306    1.081   .     S
C305   N307    1.361   .     A
N307   Ag526   2.113   .     S
N307   C308    1.364   1_455 S
C308   H309    1.081   .     S
C308   C310    1.408   .     A
C308   N307    1.364   1_655 S
C310   C302    1.410   1_654 S
C310   H311    1.083   1_554 S
H311   C310    1.083   1_556 S
C312   C313    1.407   .     A
C312   C320    1.407   .     A
C313   H314    1.082   .     S
C313   C315    1.401   .     A
C315   H316    1.081   .     S
C315   N317    1.361   .     A
N317   C318    1.360   .     A
N317   Ag524   2.087   .     S
C318   H319    1.081   .     S
C318   C320    1.400   .     A
C320   H321    1.083   .     S
O322   Fe510   1.906   .     S
O323   C290    1.278   1_655 A
O323   Fe510   1.903   1_655 A
O324   Fe510   1.884   .     S
O325   S519    1.716   .     S
C326   C327    1.410   .     A
C326   C331    1.506   .     S
C326   O361    1.284   .     A
C327   H328    1.082   .     S
C327   C329    1.404   .     A
C329   C341    1.504   .     S
C329   O362    1.276   .     A
C330   C351    1.493   .     S
C330   O363    1.273   .     A
C330   C511    1.405   .     A
C331   C332    1.409   .     A
C331   C339    1.410   .     A
C332   H333    1.083   .     S
C332   C334    1.409   .     A
C334   H335    1.082   .     S
C334   N336    1.364   .     A
N336   C337    1.361   .     A
N336   Ag518   2.108   .     S
C337   H338    1.082   .     S
C337   C339    1.403   .     A
C339   H340    1.082   .     S
C341   C342    1.411   1_556 A
C341   C349    1.407   1_556 A
C342   H343    1.082   .     S
C342   C344    1.408   .     A
C342   C341    1.411   1_554 A
C344   H345    1.082   .     S
C344   N346    1.363   .     A
N346   C347    1.362   .     A
N346   Ag527   2.107   .     S
C347   H348    1.082   .     S
C347   C349    1.403   .     A
C349   C341    1.407   1_554 A
C349   H350    1.083   1_554 S
H350   C349    1.083   1_556 S
C351   C352    1.407   .     A
C351   C359    1.406   .     A
C352   H353    1.082   .     S
C352   C354    1.400   .     A
C354   H355    1.082   .     S
C354   N356    1.361   .     A
N356   C357    1.361   .     A
N356   Ag522   2.086   1_565 A
C357   H358    1.080   .     S
C357   C359    1.400   .     A
C359   H360    1.083   .     S
O361   Fe513   1.909   .     S
O362   Fe513   1.897   .     S
O363   Fe513   1.888   .     S
C364   C365    1.400   .     A
C364   C366    1.400   .     A
C364   S519    1.791   .     S
C365   C367    1.398   .     A
C365   H542    1.082   .     S
C366   C368    1.398   .     A
C366   H543    1.083   .     S
C367   C369    1.405   .     A
C367   H544    1.083   .     S
C368   C369    1.404   .     A
C368   H545    1.083   .     S
C369   C370    1.500   .     S
C370   H546    1.110   .     S
C370   H547    1.110   .     S
C370   H548    1.111   .     S
O371   S519    1.716   .     S
C372   C373    1.409   .     A
C372   C377    1.506   .     S
C372   O407    1.285   .     A
C373   H374    1.083   .     S
C373   C375    1.403   .     A
C375   C387    1.503   .     S
C375   O408    1.276   1_655 S
C376   C397    1.501   .     S
C376   O409    1.273   .     A
C376   C508    1.408   1_655 S
C377   C378    1.408   .     A
C377   C385    1.410   .     A
C378   H379    1.083   .     S
C378   C380    1.410   .     A
C380   H381    1.082   .     S
C380   N382    1.364   .     A
N382   C383    1.362   .     A
N382   Ag520   2.114   .     S
C383   H384    1.082   .     S
C383   C385    1.405   .     A
C385   H386    1.082   .     S
C387   C388    1.406   .     A
C387   C395    1.410   1_655 A
C388   H389    1.084   .     S
C388   C390    1.404   .     A
C390   H391    1.082   .     S
C390   N392    1.363   .     A
N392   C393    1.363   1_655 S
N392   Ag526   2.111   1_655 S
C393   H394    1.082   .     S
C393   C395    1.408   .     A
C393   N392    1.363   1_455 S
C395   H396    1.082   .     S
C395   C387    1.410   1_455 A
C397   C398    1.410   .     A
C397   C405    1.411   .     A
C398   H399    1.079   .     S
C398   C400    1.400   .     A
C400   H401    1.082   .     S
C400   N402    1.360   .     A
N402   C403    1.358   .     A
N402   Ag522   2.080   .     S
C403   H404    1.082   .     S
C403   C405    1.398   .     A
C405   H406    1.083   .     S
O407   Fe510   1.912   1_655 A
O408   Fe510   1.899   .     S
O408   C375    1.276   1_455 S
O409   Fe510   1.881   1_655 A
O410   S521    1.715   .     S
C411   C412    1.408   .     A
C411   C416    1.501   .     S
C411   O446    1.284   .     A
C412   H413    1.084   .     S
C412   C414    1.402   .     A
C414   C426    1.499   .     S
C414   O447    1.277   1_545 S
C415   C436    1.497   .     S
C415   O448    1.273   .     A
C415   C505    1.404   .     A
C416   C417    1.406   .     A
C416   C424    1.407   .     A
C417   H418    1.083   .     S
C417   C419    1.409   .     A
C419   H420    1.080   .     S
C419   N421    1.365   .     A
N421   C422    1.362   .     A
N421   Ag520   2.112   .     S
C422   H423    1.082   .     S
C422   C424    1.404   .     A
C424   H425    1.081   .     S
C426   C427    1.404   .     A
C426   C434    1.405   1_545 A
C427   H428    1.083   .     S
C427   C429    1.402   .     A
C429   H430    1.078   .     S
C429   N431    1.366   .     A
N431   Ag525   2.133   .     S
N431   C432    1.366   1_545 S
C432   H433    1.079   .     S
C432   C434    1.410   .     A
C432   N431    1.366   1_565 S
C434   H435    1.083   .     S
C434   C426    1.405   1_565 A
C436   C437    1.407   .     A
C436   C444    1.409   .     A
C437   H438    1.081   .     S
C437   C439    1.399   .     A
C439   H440    1.080   .     S
C439   N441    1.360   .     A
N441   C442    1.360   .     A
N441   Ag524   2.081   .     S
C442   H443    1.081   .     S
C442   C444    1.400   .     A
C444   H445    1.083   .     S
O446   Fe507   1.910   .     S
O447   C414    1.277   1_565 S
O447   Fe507   1.905   1_565 A
O448   Fe507   1.888   .     S
C449   C450    1.399   .     A
C449   S521    1.793   .     S
C449   C451    1.400   1_556 A
C450   C452    1.398   .     A
C450   H549    1.083   .     S
C451   C453    1.399   .     A
C451   H550    1.082   .     S
C451   C449    1.400   1_554 A
C452   C454    1.403   .     A
C452   H551    1.082   .     S
C453   H552    1.083   .     S
C453   C454    1.404   1_554 S
C454   C455    1.500   .     S
C454   C453    1.404   1_556 S
C455   H553    1.111   .     S
C455   H554    1.110   .     S
C455   H555    1.110   .     S
O456   S521    1.717   .     S
C457   C458    1.410   .     A
C457   C462    1.508   .     S
C457   O492    1.285   .     A
C458   H459    1.082   .     S
C458   C460    1.405   .     A
C460   C472    1.505   .     S
C460   O493    1.276   .     A
C461   C482    1.501   .     S
C461   O494    1.273   .     A
C461   C511    1.406   .     A
C462   C463    1.408   .     A
C462   C470    1.410   .     A
C463   H464    1.083   .     S
C463   C465    1.411   .     A
C465   H466    1.082   .     S
C465   N467    1.364   .     A
N467   C468    1.362   .     A
N467   Ag520   2.115   .     S
C468   H469    1.082   .     S
C468   C470    1.405   .     A
C470   H471    1.083   .     S
C472   C473    1.411   .     A
C472   C480    1.407   .     A
C473   H474    1.082   .     S
C473   C475    1.408   .     A
C475   H476    1.082   .     S
C475   N477    1.362   .     A
N477   C478    1.362   .     A
N477   Ag527   2.106   .     S
C478   H479    1.082   .     S
C478   C480    1.403   .     A
C480   H481    1.083   .     S
C482   C483    1.410   .     A
C482   C490    1.411   .     A
C483   H484    1.079   .     S
C483   C485    1.399   .     A
C485   H486    1.081   .     S
C485   N487    1.359   .     A
N487   C488    1.359   .     A
N487   Ag523   2.084   1_655 S
C488   H489    1.081   .     S
C488   C490    1.399   .     A
C490   H491    1.083   .     S
O492   Fe513   1.912   .     S
O493   Fe513   1.897   .     S
O494   Fe513   1.884   .     S
O495   S521    1.717   .     S
C496   H497    1.080   .     S
C496   C168    1.404   1_545 A
Fe498  O37     1.900   1_545 S
Fe498  O199    1.904   1_545 A
Fe498  O201    1.887   1_545 S
C499   H500    1.078   .     S
C499   C51     1.407   1_455 S
Fe501  O82     1.913   1_455 A
Fe501  O84     1.885   1_455 S
Fe501  O161    1.904   1_455 A
C502   H503    1.081   .     S
C505   H506    1.081   .     S
C505   C253    1.402   1_545 S
Fe507  O284    1.910   1_545 A
Fe507  O286    1.890   1_545 A
Fe507  O447    1.905   1_545 A
C508   H509    1.078   .     S
C508   C376    1.408   1_455 S
Fe510  O323    1.903   1_455 A
Fe510  O407    1.912   1_455 A
Fe510  O409    1.881   1_455 A
C511   H512    1.077   .     S
S517   O163    1.717   1_554 A
S519   O556    1.716   .     S
Ag522  N184    2.122   1_545 S
Ag522  N356    2.086   1_545 A
Ag523  N67     2.123   1_455 A
Ag523  N487    2.084   1_455 S
Ag525  N155    2.086   1_545 S
Ag525  N269    2.113   1_545 S
Ag526  N31     2.081   1_455 A
Ag526  N392    2.111   1_455 S
