data_image0
_cell_length_a       22.92
_cell_length_b       28.738
_cell_length_c       22.999
_cell_angle_alpha    90
_cell_angle_beta     94.908
_cell_angle_gamma    90

_symmetry_space_group_name_H-M    "P 1"
_symmetry_int_tables_number       1

loop_
  _symmetry_equiv_pos_as_xyz
  'x, y, z'

loop_
  _atom_site_label
  _atom_site_occupancy
  _atom_site_fract_x
  _atom_site_fract_y
  _atom_site_fract_z
  _atom_site_thermal_displace_type
  _atom_site_B_iso_or_equiv
  _atom_site_type_symbol
  Cd1      1.0000 0.23255  0.43646  0.34208  Biso   1.000  Cd
  Cd2      1.0000 0.73113  0.68736  0.34666  Biso   1.000  Cd
  C1       1.0000 0.90310  0.62990  0.34710  Biso   1.000  C
  O1       1.0000 0.81050  0.64860  0.37990  Biso   1.000  O
  O2       1.0000 0.27130  0.39380  0.27230  Biso   1.000  O
  O3       1.0000 0.20680  0.44410  0.22930  Biso   1.000  O
  O4       1.0000 0.20610  0.39150  0.41320  Biso   1.000  O
  C2       1.0000 0.23710  0.37060  0.50840  Biso   1.000  C
  O5       1.0000 0.27350  0.43610  0.46060  Biso   1.000  O
  O6       1.0000 0.65760  0.64170  0.30370  Biso   1.000  O
  C3       1.0000 0.56520  0.62600  0.33640  Biso   1.000  C
  O7       1.0000 0.62660  0.69010  0.36660  Biso   1.000  O
  O8       1.0000 0.84400  0.69350  0.31220  Biso   1.000  O
  C4       1.0000 0.18710  0.31330  0.56350  Biso   1.000  C
  H1       1.0000 0.15390  0.29400  0.56620  Biso   1.000  H
  C5       1.0000 0.28210  0.37160  0.55410  Biso   1.000  C
  H2       1.0000 0.31460  0.39170  0.55100  Biso   1.000  H
  C6       1.0000 0.94150  0.63450  0.30330  Biso   1.000  C
  H3       1.0000 0.93380  0.65620  0.27240  Biso   1.000  H
  C7       1.0000 0.28860  0.32450  0.11540  Biso   1.000  C
  H4       1.0000 0.31770  0.30120  0.11270  Biso   1.000  H
  C8       1.0000 0.84870  0.66140  0.34490  Biso   1.000  C
  C9       1.0000 0.28560  0.34880  0.16700  Biso   1.000  C
  H5       1.0000 0.31100  0.34040  0.20010  Biso   1.000  H
  C10      1.0000 0.00470  0.57410  0.34860  Biso   1.000  C
  C11      1.0000 0.99190  0.60620  0.30630  Biso   1.000  C
  H6       1.0000 0.01830  0.60980  0.27700  Biso   1.000  H
  C12      1.0000 0.96200  0.56830  0.39070  Biso   1.000  C
  H7       1.0000 0.96750  0.54480  0.41960  Biso   1.000  H
  C13      1.0000 0.91440  0.59570  0.38930  Biso   1.000  C
  H8       1.0000 0.88760  0.59160  0.41810  Biso   1.000  H
  C14      1.0000 0.24650  0.38520  0.17140  Biso   1.000  C
  C15      1.0000 0.19110  0.33980  0.51370  Biso   1.000  C
  H9       1.0000 0.16160  0.33680  0.48230  Biso   1.000  H
  C16      1.0000 0.23740  0.40850  0.22710  Biso   1.000  C
  C17      1.0000 0.52630  0.63520  0.37960  Biso   1.000  C
  H10      1.0000 0.53420  0.66000  0.40640  Biso   1.000  H
  C18      1.0000 0.61910  0.65530  0.33590  Biso   1.000  C
  C19      1.0000 0.55120  0.59300  0.29610  Biso   1.000  C
  H11      1.0000 0.57510  0.58890  0.26480  Biso   1.000  H
  C20      1.0000 0.24160  0.40170  0.45790  Biso   1.000  C
  N1       1.0000 0.15560  0.48580  0.34730  Biso   1.000  N
  C21      1.0000 0.05470  0.54470  0.34900  Biso   1.000  C
  C22      1.0000 0.08830  0.54160  0.30110  Biso   1.000  C
  H12      1.0000 0.07680  0.55900  0.26690  Biso   1.000  H
  C23      1.0000 0.13750  0.51410  0.30220  Biso   1.000  C
  H13      1.0000 0.16020  0.51500  0.26940  Biso   1.000  H
  C24      1.0000 0.07470  0.51480  0.39530  Biso   1.000  C
  H14      1.0000 0.05480  0.51410  0.42990  Biso   1.000  H
  C25      1.0000 0.12290  0.48640  0.39080  Biso   1.000  C
  H15      1.0000 0.13290  0.46560  0.42220  Biso   1.000  H
  N2       1.0000 0.22200  0.23600  0.76730  Biso   1.000  N
  C26      1.0000 0.26020  0.29930  0.71680  Biso   1.000  C
  H16      1.0000 0.28470  0.32600  0.71850  Biso   1.000  H
  C27      1.0000 0.19200  0.22500  0.71870  Biso   1.000  C
  H17      1.0000 0.16730  0.19850  0.71900  Biso   1.000  H
  C28      1.0000 0.22860  0.28750  0.66440  Biso   1.000  C
  C29      1.0000 0.25650  0.27320  0.76500  Biso   1.000  C
  H18      1.0000 0.27980  0.28190  0.79940  Biso   1.000  H
  C30      1.0000 0.23170  0.31430  0.61120  Biso   1.000  C
  C31      1.0000 0.19310  0.24900  0.66650  Biso   1.000  C
  H19      1.0000 0.16980  0.23890  0.63270  Biso   1.000  H
  C32      1.0000 0.28050  0.34440  0.60330  Biso   1.000  C
  H20      1.0000 0.31240  0.34550  0.63250  Biso   1.000  H
  C33      1.0000 0.50250  0.56500  0.29940  Biso   1.000  C
  H21      1.0000 0.49640  0.53930  0.27360  Biso   1.000  H
  N3       1.0000 0.30700  0.49120  0.34550  Biso   1.000  N
  C34      1.0000 0.46230  0.57390  0.34020  Biso   1.000  C
  C35      1.0000 0.37960  0.53840  0.39230  Biso   1.000  C
  H22      1.0000 0.39380  0.55260  0.42800  Biso   1.000  H
  C36      1.0000 0.40750  0.54620  0.34330  Biso   1.000  C
  C37      1.0000 0.33280  0.51140  0.39050  Biso   1.000  C
  H23      1.0000 0.31640  0.50640  0.42650  Biso   1.000  H
  C38      1.0000 0.38110  0.52530  0.29030  Biso   1.000  C
  H24      1.0000 0.39540  0.53120  0.25350  Biso   1.000  H
  C39      1.0000 0.47630  0.60790  0.38270  Biso   1.000  C
  H25      1.0000 0.45190  0.61240  0.41360  Biso   1.000  H
  C40      1.0000 0.33470  0.49700  0.29590  Biso   1.000  C
  H26      1.0000 0.32040  0.47960  0.26250  Biso   1.000  H
  N4       1.0000 0.24130  0.24410  0.91680  Biso   1.000  N
  C41      1.0000 0.19790  0.27110  0.93120  Biso   1.000  C
  H27      1.0000 0.16260  0.26950  0.90630  Biso   1.000  H
  C42      1.0000 0.20830  0.37030  0.07030  Biso   1.000  C
  H28      1.0000 0.18170  0.37760  0.03750  Biso   1.000  H
  C43      1.0000 0.24950  0.33380  0.06780  Biso   1.000  C
  C44      1.0000 0.20760  0.39520  0.12190  Biso   1.000  C
  H29      1.0000 0.18020  0.41980  0.12400  Biso   1.000  H
  C45      1.0000 0.24860  0.30520  0.01380  Biso   1.000  C
  C46      1.0000 0.29220  0.24900  0.95300  Biso   1.000  C
  H30      1.0000 0.32500  0.23030  0.94560  Biso   1.000  H
  C47      1.0000 0.19770  0.30110  0.97760  Biso   1.000  C
  H31      1.0000 0.16370  0.31840  0.98450  Biso   1.000  H
  C48      1.0000 0.29780  0.27910  0.99860  Biso   1.000  C
  H32      1.0000 0.33460  0.28280  0.02040  Biso   1.000  H
  Cd3      1.0000 0.73255  0.93646  0.84208  Biso   1.000  Cd
  Cd4      1.0000 0.23113  0.18736  0.84666  Biso   1.000  Cd
  C49      1.0000 0.40310  0.12990  0.84710  Biso   1.000  C
  O9       1.0000 0.31050  0.14860  0.87990  Biso   1.000  O
  O10      1.0000 0.77130  0.89380  0.77230  Biso   1.000  O
  O11      1.0000 0.70680  0.94410  0.72930  Biso   1.000  O
  O12      1.0000 0.70610  0.89150  0.91320  Biso   1.000  O
  C50      1.0000 0.73710  0.87060  0.00840  Biso   1.000  C
  O13      1.0000 0.77350  0.93610  0.96060  Biso   1.000  O
  O14      1.0000 0.15760  0.14170  0.80370  Biso   1.000  O
  C51      1.0000 0.06520  0.12600  0.83640  Biso   1.000  C
  O15      1.0000 0.12660  0.19010  0.86660  Biso   1.000  O
  O16      1.0000 0.34400  0.19350  0.81220  Biso   1.000  O
  C52      1.0000 0.68710  0.81330  0.06350  Biso   1.000  C
  H33      1.0000 0.65390  0.79400  0.06620  Biso   1.000  H
  C53      1.0000 0.78210  0.87160  0.05410  Biso   1.000  C
  H34      1.0000 0.81460  0.89170  0.05100  Biso   1.000  H
  C54      1.0000 0.44150  0.13450  0.80330  Biso   1.000  C
  H35      1.0000 0.43380  0.15620  0.77240  Biso   1.000  H
  C55      1.0000 0.78860  0.82450  0.61540  Biso   1.000  C
  H36      1.0000 0.81770  0.80120  0.61270  Biso   1.000  H
  C56      1.0000 0.34870  0.16140  0.84490  Biso   1.000  C
  C57      1.0000 0.78560  0.84880  0.66700  Biso   1.000  C
  H37      1.0000 0.81100  0.84040  0.70010  Biso   1.000  H
  C58      1.0000 0.50470  0.07410  0.84860  Biso   1.000  C
  C59      1.0000 0.49190  0.10620  0.80630  Biso   1.000  C
  H38      1.0000 0.51830  0.10980  0.77700  Biso   1.000  H
  C60      1.0000 0.46200  0.06830  0.89070  Biso   1.000  C
  H39      1.0000 0.46750  0.04480  0.91960  Biso   1.000  H
  C61      1.0000 0.41440  0.09570  0.88930  Biso   1.000  C
  H40      1.0000 0.38760  0.09160  0.91810  Biso   1.000  H
  C62      1.0000 0.74650  0.88520  0.67140  Biso   1.000  C
  C63      1.0000 0.69110  0.83980  0.01370  Biso   1.000  C
  H41      1.0000 0.66160  0.83680  0.98230  Biso   1.000  H
  C64      1.0000 0.73740  0.90850  0.72710  Biso   1.000  C
  C65      1.0000 0.02630  0.13520  0.87960  Biso   1.000  C
  H42      1.0000 0.03420  0.16000  0.90640  Biso   1.000  H
  C66      1.0000 0.11910  0.15530  0.83590  Biso   1.000  C
  C67      1.0000 0.05120  0.09300  0.79610  Biso   1.000  C
  H43      1.0000 0.07510  0.08890  0.76480  Biso   1.000  H
  C68      1.0000 0.74160  0.90170  0.95790  Biso   1.000  C
  N5       1.0000 0.65560  0.98580  0.84730  Biso   1.000  N
  C69      1.0000 0.55470  0.04470  0.84900  Biso   1.000  C
  C70      1.0000 0.58830  0.04160  0.80110  Biso   1.000  C
  H44      1.0000 0.57680  0.05900  0.76690  Biso   1.000  H
  C71      1.0000 0.63750  0.01410  0.80220  Biso   1.000  C
  H45      1.0000 0.66020  0.01500  0.76940  Biso   1.000  H
  C72      1.0000 0.57470  0.01480  0.89530  Biso   1.000  C
  H46      1.0000 0.55480  0.01410  0.92990  Biso   1.000  H
  C73      1.0000 0.62290  0.98640  0.89080  Biso   1.000  C
  H47      1.0000 0.63290  0.96560  0.92220  Biso   1.000  H
  N6       1.0000 0.72200  0.73600  0.26730  Biso   1.000  N
  C74      1.0000 0.76020  0.79930  0.21680  Biso   1.000  C
  H48      1.0000 0.78470  0.82600  0.21850  Biso   1.000  H
  C75      1.0000 0.69200  0.72500  0.21870  Biso   1.000  C
  H49      1.0000 0.66730  0.69850  0.21900  Biso   1.000  H
  C76      1.0000 0.72860  0.78750  0.16440  Biso   1.000  C
  C77      1.0000 0.75650  0.77320  0.26500  Biso   1.000  C
  H50      1.0000 0.77980  0.78190  0.29940  Biso   1.000  H
  C78      1.0000 0.73170  0.81430  0.11120  Biso   1.000  C
  C79      1.0000 0.69310  0.74900  0.16650  Biso   1.000  C
  H51      1.0000 0.66980  0.73890  0.13270  Biso   1.000  H
  C80      1.0000 0.78050  0.84440  0.10330  Biso   1.000  C
  H52      1.0000 0.81240  0.84550  0.13250  Biso   1.000  H
  C81      1.0000 0.00250  0.06500  0.79940  Biso   1.000  C
  H53      1.0000 0.99640  0.03930  0.77360  Biso   1.000  H
  N7       1.0000 0.80700  0.99120  0.84550  Biso   1.000  N
  C82      1.0000 0.96230  0.07390  0.84020  Biso   1.000  C
  C83      1.0000 0.87960  0.03840  0.89230  Biso   1.000  C
  H54      1.0000 0.89380  0.05260  0.92800  Biso   1.000  H
  C84      1.0000 0.90750  0.04620  0.84330  Biso   1.000  C
  C85      1.0000 0.83280  0.01140  0.89050  Biso   1.000  C
  H55      1.0000 0.81640  0.00640  0.92650  Biso   1.000  H
  C86      1.0000 0.88110  0.02530  0.79030  Biso   1.000  C
  H56      1.0000 0.89540  0.03120  0.75350  Biso   1.000  H
  C87      1.0000 0.97630  0.10790  0.88270  Biso   1.000  C
  H57      1.0000 0.95190  0.11240  0.91360  Biso   1.000  H
  C88      1.0000 0.83470  0.99700  0.79590  Biso   1.000  C
  H58      1.0000 0.82040  0.97960  0.76250  Biso   1.000  H
  N8       1.0000 0.74130  0.74410  0.41680  Biso   1.000  N
  C89      1.0000 0.69790  0.77110  0.43120  Biso   1.000  C
  H59      1.0000 0.66260  0.76950  0.40630  Biso   1.000  H
  C90      1.0000 0.70830  0.87030  0.57030  Biso   1.000  C
  H60      1.0000 0.68170  0.87760  0.53750  Biso   1.000  H
  C91      1.0000 0.74950  0.83380  0.56780  Biso   1.000  C
  C92      1.0000 0.70760  0.89520  0.62190  Biso   1.000  C
  H61      1.0000 0.68020  0.91980  0.62400  Biso   1.000  H
  C93      1.0000 0.74860  0.80520  0.51380  Biso   1.000  C
  C94      1.0000 0.79220  0.74900  0.45300  Biso   1.000  C
  H62      1.0000 0.82500  0.73030  0.44560  Biso   1.000  H
  C95      1.0000 0.69770  0.80110  0.47760  Biso   1.000  C
  H63      1.0000 0.66370  0.81840  0.48450  Biso   1.000  H
  C96      1.0000 0.79780  0.77910  0.49860  Biso   1.000  C
  H64      1.0000 0.83460  0.78280  0.52040  Biso   1.000  H
  Cd5      1.0000 0.88350  0.12700  0.04901  Biso   1.000  Cd
  O17      1.0000 0.86100  0.14150  0.95220  Biso   1.000  O
  O18      1.0000 0.98290  0.11440  0.05050  Biso   1.000  O
  C97      1.0000 0.87720  0.18220  0.95560  Biso   1.000  C
  O19      1.0000 0.89420  0.20230  0.00360  Biso   1.000  O
  C98      1.0000 0.88380  0.21090  0.90030  Biso   1.000  C
  C99      1.0000 0.13700  0.99090  0.05330  Biso   1.000  C
  O20      1.0000 0.93070  0.05200  0.05260  Biso   1.000  O
  C100     1.0000 0.98090  0.07030  0.05430  Biso   1.000  C
  C101     1.0000 0.03260  0.04300  0.05330  Biso   1.000  C
  C102     1.0000 0.18970  0.96360  0.05310  Biso   1.000  C
  C103     1.0000 0.13830  0.03940  0.04940  Biso   1.000  C
  H65      1.0000 0.17440  0.05510  0.04690  Biso   1.000  H
  C104     1.0000 0.86900  0.18570  0.84630  Biso   1.000  C
  H66      1.0000 0.85930  0.15360  0.84570  Biso   1.000  H
  C105     1.0000 0.08590  0.06480  0.04930  Biso   1.000  C
  H67      1.0000 0.08720  0.09780  0.04650  Biso   1.000  H
  C106     1.0000 0.90000  0.25390  0.90020  Biso   1.000  C
  H68      1.0000 0.90920  0.26900  0.93660  Biso   1.000  H
  C107     1.0000 0.03070  0.99490  0.05700  Biso   1.000  C
  H69      1.0000 0.99450  0.97950  0.06040  Biso   1.000  H
  C108     1.0000 0.08440  0.96840  0.05550  Biso   1.000  C
  H70      1.0000 0.08320  0.93530  0.05610  Biso   1.000  H
  C109     1.0000 0.24680  0.98330  0.07230  Biso   1.000  C
  H71      1.0000 0.24930  0.01510  0.08320  Biso   1.000  H
  C110     1.0000 0.19360  0.92130  0.03230  Biso   1.000  C
  H72      1.0000 0.15920  0.90750  0.01360  Biso   1.000  H
  N9       1.0000 0.29630  0.91420  0.05380  Biso   1.000  N
  C111     1.0000 0.29670  0.95710  0.07500  Biso   1.000  C
  H73      1.0000 0.33230  0.96990  0.09230  Biso   1.000  H
  C112     1.0000 0.24670  0.89480  0.03600  Biso   1.000  C
  H74      1.0000 0.24570  0.86280  0.02550  Biso   1.000  H
  N10      1.0000 0.88170  0.33290  0.63330  Biso   1.000  N
  C113     1.0000 0.88810  0.25750  0.79420  Biso   1.000  C
  C114     1.0000 0.88660  0.28360  0.74030  Biso   1.000  C
  C115     1.0000 0.90460  0.27880  0.84950  Biso   1.000  C
  H75      1.0000 0.91850  0.31000  0.85120  Biso   1.000  H
  C116     1.0000 0.87010  0.21250  0.79470  Biso   1.000  C
  H76      1.0000 0.85750  0.19820  0.75850  Biso   1.000  H
  C117     1.0000 0.88560  0.33320  0.73830  Biso   1.000  C
  H77      1.0000 0.88570  0.35080  0.77330  Biso   1.000  H
  C118     1.0000 0.88450  0.35480  0.68670  Biso   1.000  C
  H78      1.0000 0.88580  0.38780  0.68690  Biso   1.000  H
  C119     1.0000 0.88770  0.26180  0.68640  Biso   1.000  C
  H79      1.0000 0.88950  0.22880  0.68490  Biso   1.000  H
  C120     1.0000 0.88610  0.28740  0.63400  Biso   1.000  C
  H80      1.0000 0.88840  0.27120  0.59820  Biso   1.000  H
  Cd6      1.0000 0.38350  0.62700  0.54901  Biso   1.000  Cd
  O21      1.0000 0.36100  0.64150  0.45220  Biso   1.000  O
  O22      1.0000 0.48290  0.61440  0.55050  Biso   1.000  O
  C121     1.0000 0.37720  0.68220  0.45560  Biso   1.000  C
  O23      1.0000 0.39420  0.70230  0.50360  Biso   1.000  O
  C122     1.0000 0.38380  0.71090  0.40030  Biso   1.000  C
  C123     1.0000 0.63700  0.49090  0.55330  Biso   1.000  C
  O24      1.0000 0.43070  0.55200  0.55260  Biso   1.000  O
  C124     1.0000 0.48090  0.57030  0.55430  Biso   1.000  C
  C125     1.0000 0.53260  0.54300  0.55330  Biso   1.000  C
  C126     1.0000 0.68970  0.46360  0.55310  Biso   1.000  C
  C127     1.0000 0.63830  0.53940  0.54940  Biso   1.000  C
  H81      1.0000 0.67440  0.55510  0.54690  Biso   1.000  H
  C128     1.0000 0.36900  0.68570  0.34630  Biso   1.000  C
  H82      1.0000 0.35930  0.65360  0.34570  Biso   1.000  H
  C129     1.0000 0.58590  0.56480  0.54930  Biso   1.000  C
  H83      1.0000 0.58720  0.59780  0.54650  Biso   1.000  H
  C130     1.0000 0.40000  0.75390  0.40020  Biso   1.000  C
  H84      1.0000 0.40920  0.76900  0.43660  Biso   1.000  H
  C131     1.0000 0.53070  0.49490  0.55700  Biso   1.000  C
  H85      1.0000 0.49450  0.47950  0.56040  Biso   1.000  H
  C132     1.0000 0.58440  0.46840  0.55550  Biso   1.000  C
  H86      1.0000 0.58320  0.43530  0.55610  Biso   1.000  H
  C133     1.0000 0.74680  0.48330  0.57230  Biso   1.000  C
  H87      1.0000 0.74930  0.51510  0.58320  Biso   1.000  H
  C134     1.0000 0.69360  0.42130  0.53230  Biso   1.000  C
  H88      1.0000 0.65920  0.40750  0.51360  Biso   1.000  H
  N11      1.0000 0.79630  0.41420  0.55380  Biso   1.000  N
  C135     1.0000 0.79670  0.45710  0.57500  Biso   1.000  C
  H89      1.0000 0.83230  0.46990  0.59230  Biso   1.000  H
  C136     1.0000 0.74670  0.39480  0.53600  Biso   1.000  C
  H90      1.0000 0.74570  0.36280  0.52550  Biso   1.000  H
  N12      1.0000 0.38170  0.83290  0.13330  Biso   1.000  N
  C137     1.0000 0.38810  0.75750  0.29420  Biso   1.000  C
  C138     1.0000 0.38660  0.78360  0.24030  Biso   1.000  C
  C139     1.0000 0.40460  0.77880  0.34950  Biso   1.000  C
  H91      1.0000 0.41850  0.81000  0.35120  Biso   1.000  H
  C140     1.0000 0.37010  0.71250  0.29470  Biso   1.000  C
  H92      1.0000 0.35750  0.69820  0.25850  Biso   1.000  H
  C141     1.0000 0.38560  0.83320  0.23830  Biso   1.000  C
  H93      1.0000 0.38570  0.85080  0.27330  Biso   1.000  H
  C142     1.0000 0.38450  0.85480  0.18670  Biso   1.000  C
  H94      1.0000 0.38580  0.88780  0.18690  Biso   1.000  H
  C143     1.0000 0.38770  0.76180  0.18640  Biso   1.000  C
  H95      1.0000 0.38950  0.72880  0.18490  Biso   1.000  H
  C144     1.0000 0.38610  0.78740  0.13400  Biso   1.000  C
  H96      1.0000 0.38840  0.77120  0.09820  Biso   1.000  H
  Cd7      1.0000 0.38350  0.87300  0.04901  Biso   1.000  Cd
  O25      1.0000 0.36100  0.85850  0.95220  Biso   1.000  O
  O26      1.0000 0.48290  0.88560  0.05050  Biso   1.000  O
  C145     1.0000 0.37720  0.81780  0.95560  Biso   1.000  C
  O27      1.0000 0.39420  0.79770  0.00360  Biso   1.000  O
  C146     1.0000 0.38380  0.78910  0.90030  Biso   1.000  C
  C147     1.0000 0.63700  0.00910  0.05330  Biso   1.000  C
  O28      1.0000 0.43070  0.94800  0.05260  Biso   1.000  O
  C148     1.0000 0.48090  0.92970  0.05430  Biso   1.000  C
  C149     1.0000 0.53260  0.95700  0.05330  Biso   1.000  C
  C150     1.0000 0.68970  0.03640  0.05310  Biso   1.000  C
  C151     1.0000 0.63830  0.96060  0.04940  Biso   1.000  C
  H97      1.0000 0.67440  0.94490  0.04690  Biso   1.000  H
  C152     1.0000 0.36900  0.81430  0.84630  Biso   1.000  C
  H98      1.0000 0.35930  0.84640  0.84570  Biso   1.000  H
  C153     1.0000 0.58590  0.93520  0.04930  Biso   1.000  C
  H99      1.0000 0.58720  0.90220  0.04650  Biso   1.000  H
  C154     1.0000 0.40000  0.74610  0.90020  Biso   1.000  C
  H100     1.0000 0.40920  0.73100  0.93660  Biso   1.000  H
  C155     1.0000 0.53070  0.00510  0.05700  Biso   1.000  C
  H101     1.0000 0.49450  0.02050  0.06040  Biso   1.000  H
  C156     1.0000 0.58440  0.03160  0.05550  Biso   1.000  C
  H102     1.0000 0.58320  0.06470  0.05610  Biso   1.000  H
  C157     1.0000 0.74680  0.01670  0.07230  Biso   1.000  C
  H103     1.0000 0.74930  0.98490  0.08320  Biso   1.000  H
  C158     1.0000 0.69360  0.07870  0.03230  Biso   1.000  C
  H104     1.0000 0.65920  0.09250  0.01360  Biso   1.000  H
  N13      1.0000 0.79630  0.08580  0.05380  Biso   1.000  N
  C159     1.0000 0.79670  0.04290  0.07500  Biso   1.000  C
  H105     1.0000 0.83230  0.03010  0.09230  Biso   1.000  H
  C160     1.0000 0.74670  0.10520  0.03600  Biso   1.000  C
  H106     1.0000 0.74570  0.13720  0.02550  Biso   1.000  H
  N14      1.0000 0.38170  0.66710  0.63330  Biso   1.000  N
  C161     1.0000 0.38810  0.74250  0.79420  Biso   1.000  C
  C162     1.0000 0.38660  0.71640  0.74030  Biso   1.000  C
  C163     1.0000 0.40460  0.72120  0.84950  Biso   1.000  C
  H107     1.0000 0.41850  0.69000  0.85120  Biso   1.000  H
  C164     1.0000 0.37010  0.78750  0.79470  Biso   1.000  C
  H108     1.0000 0.35750  0.80180  0.75850  Biso   1.000  H
  C165     1.0000 0.38560  0.66680  0.73830  Biso   1.000  C
  H109     1.0000 0.38570  0.64920  0.77330  Biso   1.000  H
  C166     1.0000 0.38450  0.64520  0.68670  Biso   1.000  C
  H110     1.0000 0.38580  0.61220  0.68690  Biso   1.000  H
  C167     1.0000 0.38770  0.73820  0.68640  Biso   1.000  C
  H111     1.0000 0.38950  0.77120  0.68490  Biso   1.000  H
  C168     1.0000 0.38610  0.71260  0.63400  Biso   1.000  C
  H112     1.0000 0.38840  0.72880  0.59820  Biso   1.000  H
  Cd8      1.0000 0.88350  0.37300  0.54901  Biso   1.000  Cd
  O29      1.0000 0.86100  0.35850  0.45220  Biso   1.000  O
  O30      1.0000 0.98290  0.38560  0.55050  Biso   1.000  O
  C169     1.0000 0.87720  0.31780  0.45560  Biso   1.000  C
  O31      1.0000 0.89420  0.29770  0.50360  Biso   1.000  O
  C170     1.0000 0.88380  0.28910  0.40030  Biso   1.000  C
  C171     1.0000 0.13700  0.50910  0.55330  Biso   1.000  C
  O32      1.0000 0.93070  0.44800  0.55260  Biso   1.000  O
  C172     1.0000 0.98090  0.42970  0.55430  Biso   1.000  C
  C173     1.0000 0.03260  0.45700  0.55330  Biso   1.000  C
  C174     1.0000 0.18970  0.53640  0.55310  Biso   1.000  C
  C175     1.0000 0.13830  0.46060  0.54940  Biso   1.000  C
  H113     1.0000 0.17440  0.44490  0.54690  Biso   1.000  H
  C176     1.0000 0.86900  0.31430  0.34630  Biso   1.000  C
  H114     1.0000 0.85930  0.34640  0.34570  Biso   1.000  H
  C177     1.0000 0.08590  0.43520  0.54930  Biso   1.000  C
  H115     1.0000 0.08720  0.40220  0.54650  Biso   1.000  H
  C178     1.0000 0.90000  0.24610  0.40020  Biso   1.000  C
  H116     1.0000 0.90920  0.23100  0.43660  Biso   1.000  H
  C179     1.0000 0.03070  0.50510  0.55700  Biso   1.000  C
  H117     1.0000 0.99450  0.52050  0.56040  Biso   1.000  H
  C180     1.0000 0.08440  0.53160  0.55550  Biso   1.000  C
  H118     1.0000 0.08320  0.56470  0.55610  Biso   1.000  H
  C181     1.0000 0.24680  0.51670  0.57230  Biso   1.000  C
  H119     1.0000 0.24930  0.48490  0.58320  Biso   1.000  H
  C182     1.0000 0.19360  0.57870  0.53230  Biso   1.000  C
  H120     1.0000 0.15920  0.59250  0.51360  Biso   1.000  H
  N15      1.0000 0.29630  0.58580  0.55380  Biso   1.000  N
  C183     1.0000 0.29670  0.54290  0.57500  Biso   1.000  C
  H121     1.0000 0.33230  0.53010  0.59230  Biso   1.000  H
  C184     1.0000 0.24670  0.60520  0.53600  Biso   1.000  C
  H122     1.0000 0.24570  0.63720  0.52550  Biso   1.000  H
  N16      1.0000 0.88170  0.16710  0.13330  Biso   1.000  N
  C185     1.0000 0.88810  0.24250  0.29420  Biso   1.000  C
  C186     1.0000 0.88660  0.21640  0.24030  Biso   1.000  C
  C187     1.0000 0.90460  0.22120  0.34950  Biso   1.000  C
  H123     1.0000 0.91850  0.19000  0.35120  Biso   1.000  H
  C188     1.0000 0.87010  0.28750  0.29470  Biso   1.000  C
  H124     1.0000 0.85750  0.30180  0.25850  Biso   1.000  H
  C189     1.0000 0.88560  0.16680  0.23830  Biso   1.000  C
  H125     1.0000 0.88570  0.14920  0.27330  Biso   1.000  H
  C190     1.0000 0.88450  0.14520  0.18670  Biso   1.000  C
  H126     1.0000 0.88580  0.11220  0.18690  Biso   1.000  H
  C191     1.0000 0.88770  0.23820  0.18640  Biso   1.000  C
  H127     1.0000 0.88950  0.27120  0.18490  Biso   1.000  H
  C192     1.0000 0.88610  0.21260  0.13400  Biso   1.000  C
  H128     1.0000 0.88840  0.22880  0.09820  Biso   1.000  H
  Cd9      1.0000 0.04579  0.37430  0.87058  Biso   1.000  Cd
  O33      1.0000 0.05990  0.36750  0.97090  Biso   1.000  O
  O34      1.0000 0.03930  0.30500  0.92110  Biso   1.000  O
  O35      1.0000 0.94860  0.39300  0.86380  Biso   1.000  O
  C193     1.0000 0.04580  0.29980  0.02420  Biso   1.000  C
  C194     1.0000 0.04760  0.32570  0.96860  Biso   1.000  C
  C195     1.0000 0.05520  0.31870  0.07860  Biso   1.000  C
  H129     1.0000 0.06500  0.35080  0.08140  Biso   1.000  H
  C196     1.0000 0.95570  0.43610  0.86770  Biso   1.000  C
  C197     1.0000 0.90120  0.46650  0.86900  Biso   1.000  C
  O36      1.0000 0.00630  0.45280  0.86560  Biso   1.000  O
  C198     1.0000 0.84740  0.44460  0.87440  Biso   1.000  C
  H130     1.0000 0.84520  0.41170  0.87740  Biso   1.000  H
  N17      1.0000 0.63550  0.59380  0.86710  Biso   1.000  N
  C199     1.0000 0.90330  0.51390  0.86720  Biso   1.000  C
  H131     1.0000 0.94010  0.52880  0.86550  Biso   1.000  H
  C200     1.0000 0.80260  0.52010  0.87180  Biso   1.000  C
  C201     1.0000 0.74440  0.54680  0.87210  Biso   1.000  C
  C202     1.0000 0.79800  0.47130  0.87540  Biso   1.000  C
  H132     1.0000 0.76100  0.45710  0.87850  Biso   1.000  H
  C203     1.0000 0.85690  0.53900  0.86750  Biso   1.000  C
  H133     1.0000 0.86040  0.57180  0.86480  Biso   1.000  H
  C204     1.0000 0.69640  0.53000  0.89800  Biso   1.000  C
  H134     1.0000 0.69990  0.50270  0.92120  Biso   1.000  H
  C205     1.0000 0.73790  0.59110  0.84740  Biso   1.000  C
  H135     1.0000 0.77000  0.60600  0.83180  Biso   1.000  H
  C206     1.0000 0.64540  0.55190  0.89040  Biso   1.000  C
  H136     1.0000 0.61240  0.53600  0.90290  Biso   1.000  H
  C207     1.0000 0.68540  0.61220  0.84590  Biso   1.000  C
  H137     1.0000 0.68230  0.64240  0.82880  Biso   1.000  H
  N18      1.0000 0.04590  0.16670  0.28580  Biso   1.000  N
  C208     1.0000 0.04000  0.24850  0.12870  Biso   1.000  C
  C209     1.0000 0.03930  0.21990  0.18330  Biso   1.000  C
  C210     1.0000 0.02930  0.22530  0.07510  Biso   1.000  C
  H138     1.0000 0.02060  0.19300  0.07340  Biso   1.000  H
  C211     1.0000 0.03210  0.25290  0.02250  Biso   1.000  C
  H139     1.0000 0.02430  0.23820  0.98560  Biso   1.000  H
  C212     1.0000 0.05050  0.21330  0.28680  Biso   1.000  C
  H140     1.0000 0.05870  0.22810  0.32350  Biso   1.000  H
  C213     1.0000 0.04120  0.14610  0.23300  Biso   1.000  C
  H141     1.0000 0.03890  0.11310  0.23050  Biso   1.000  H
  C214     1.0000 0.05150  0.29430  0.12920  Biso   1.000  C
  H142     1.0000 0.05730  0.31020  0.16550  Biso   1.000  H
  C215     1.0000 0.03960  0.17160  0.18290  Biso   1.000  C
  H143     1.0000 0.03860  0.15590  0.14650  Biso   1.000  H
  C216     1.0000 0.04440  0.23990  0.23910  Biso   1.000  C
  H144     1.0000 0.04340  0.27280  0.24310  Biso   1.000  H
  Cd10     1.0000 0.54579  0.87430  0.37058  Biso   1.000  Cd
  O37      1.0000 0.55990  0.86750  0.47090  Biso   1.000  O
  O38      1.0000 0.53930  0.80500  0.42110  Biso   1.000  O
  O39      1.0000 0.44860  0.89300  0.36380  Biso   1.000  O
  C217     1.0000 0.54580  0.79980  0.52420  Biso   1.000  C
  C218     1.0000 0.54760  0.82570  0.46860  Biso   1.000  C
  C219     1.0000 0.55520  0.81870  0.57860  Biso   1.000  C
  H145     1.0000 0.56500  0.85080  0.58140  Biso   1.000  H
  C220     1.0000 0.45570  0.93610  0.36770  Biso   1.000  C
  C221     1.0000 0.40120  0.96650  0.36900  Biso   1.000  C
  O40      1.0000 0.50630  0.95280  0.36560  Biso   1.000  O
  C222     1.0000 0.34740  0.94460  0.37440  Biso   1.000  C
  H146     1.0000 0.34520  0.91170  0.37740  Biso   1.000  H
  N19      1.0000 0.13550  0.09380  0.36710  Biso   1.000  N
  C223     1.0000 0.40330  0.01390  0.36720  Biso   1.000  C
  H147     1.0000 0.44010  0.02880  0.36550  Biso   1.000  H
  C224     1.0000 0.30260  0.02010  0.37180  Biso   1.000  C
  C225     1.0000 0.24440  0.04680  0.37210  Biso   1.000  C
  C226     1.0000 0.29800  0.97130  0.37540  Biso   1.000  C
  H148     1.0000 0.26100  0.95710  0.37850  Biso   1.000  H
  C227     1.0000 0.35690  0.03900  0.36750  Biso   1.000  C
  H149     1.0000 0.36040  0.07180  0.36480  Biso   1.000  H
  C228     1.0000 0.19640  0.03000  0.39800  Biso   1.000  C
  H150     1.0000 0.19990  0.00270  0.42120  Biso   1.000  H
  C229     1.0000 0.23790  0.09110  0.34740  Biso   1.000  C
  H151     1.0000 0.27000  0.10600  0.33180  Biso   1.000  H
  C230     1.0000 0.14540  0.05190  0.39040  Biso   1.000  C
  H152     1.0000 0.11240  0.03600  0.40290  Biso   1.000  H
  C231     1.0000 0.18540  0.11220  0.34590  Biso   1.000  C
  H153     1.0000 0.18230  0.14240  0.32880  Biso   1.000  H
  N20      1.0000 0.54590  0.66670  0.78580  Biso   1.000  N
  C232     1.0000 0.54000  0.74850  0.62870  Biso   1.000  C
  C233     1.0000 0.53930  0.71990  0.68330  Biso   1.000  C
  C234     1.0000 0.52930  0.72530  0.57510  Biso   1.000  C
  H154     1.0000 0.52060  0.69300  0.57340  Biso   1.000  H
  C235     1.0000 0.53210  0.75290  0.52250  Biso   1.000  C
  H155     1.0000 0.52430  0.73820  0.48560  Biso   1.000  H
  C236     1.0000 0.55050  0.71330  0.78680  Biso   1.000  C
  H156     1.0000 0.55870  0.72810  0.82350  Biso   1.000  H
  C237     1.0000 0.54120  0.64610  0.73300  Biso   1.000  C
  H157     1.0000 0.53890  0.61310  0.73050  Biso   1.000  H
  C238     1.0000 0.55150  0.79430  0.62920  Biso   1.000  C
  H158     1.0000 0.55730  0.81020  0.66550  Biso   1.000  H
  C239     1.0000 0.53960  0.67160  0.68290  Biso   1.000  C
  H159     1.0000 0.53860  0.65590  0.64650  Biso   1.000  H
  C240     1.0000 0.54440  0.73990  0.73910  Biso   1.000  C
  H160     1.0000 0.54340  0.77280  0.74310  Biso   1.000  H
  Cd11     1.0000 0.54579  0.62570  0.87058  Biso   1.000  Cd
  O41      1.0000 0.55990  0.63250  0.97090  Biso   1.000  O
  O42      1.0000 0.53930  0.69500  0.92110  Biso   1.000  O
  O43      1.0000 0.44860  0.60700  0.86380  Biso   1.000  O
  C241     1.0000 0.54580  0.70020  0.02420  Biso   1.000  C
  C242     1.0000 0.54760  0.67430  0.96860  Biso   1.000  C
  C243     1.0000 0.55520  0.68130  0.07860  Biso   1.000  C
  H161     1.0000 0.56500  0.64920  0.08140  Biso   1.000  H
  C244     1.0000 0.45570  0.56390  0.86770  Biso   1.000  C
  C245     1.0000 0.40120  0.53350  0.86900  Biso   1.000  C
  O44      1.0000 0.50630  0.54720  0.86560  Biso   1.000  O
  C246     1.0000 0.34740  0.55540  0.87440  Biso   1.000  C
  H162     1.0000 0.34520  0.58830  0.87740  Biso   1.000  H
  N21      1.0000 0.13550  0.40620  0.86710  Biso   1.000  N
  C247     1.0000 0.40330  0.48610  0.86720  Biso   1.000  C
  H163     1.0000 0.44010  0.47120  0.86550  Biso   1.000  H
  C248     1.0000 0.30260  0.47990  0.87180  Biso   1.000  C
  C249     1.0000 0.24440  0.45320  0.87210  Biso   1.000  C
  C250     1.0000 0.29800  0.52870  0.87540  Biso   1.000  C
  H164     1.0000 0.26100  0.54290  0.87850  Biso   1.000  H
  C251     1.0000 0.35690  0.46100  0.86750  Biso   1.000  C
  H165     1.0000 0.36040  0.42820  0.86480  Biso   1.000  H
  C252     1.0000 0.19640  0.47000  0.89800  Biso   1.000  C
  H166     1.0000 0.19990  0.49730  0.92120  Biso   1.000  H
  C253     1.0000 0.23790  0.40890  0.84740  Biso   1.000  C
  H167     1.0000 0.27000  0.39400  0.83180  Biso   1.000  H
  C254     1.0000 0.14540  0.44810  0.89040  Biso   1.000  C
  H168     1.0000 0.11240  0.46400  0.90290  Biso   1.000  H
  C255     1.0000 0.18540  0.38780  0.84590  Biso   1.000  C
  H169     1.0000 0.18230  0.35760  0.82880  Biso   1.000  H
  N22      1.0000 0.54590  0.83330  0.28580  Biso   1.000  N
  C256     1.0000 0.54000  0.75150  0.12870  Biso   1.000  C
  C257     1.0000 0.53930  0.78010  0.18330  Biso   1.000  C
  C258     1.0000 0.52930  0.77470  0.07510  Biso   1.000  C
  H170     1.0000 0.52060  0.80700  0.07340  Biso   1.000  H
  C259     1.0000 0.53210  0.74710  0.02250  Biso   1.000  C
  H171     1.0000 0.52430  0.76180  0.98560  Biso   1.000  H
  C260     1.0000 0.55050  0.78670  0.28680  Biso   1.000  C
  H172     1.0000 0.55870  0.77190  0.32350  Biso   1.000  H
  C261     1.0000 0.54120  0.85390  0.23300  Biso   1.000  C
  H173     1.0000 0.53890  0.88690  0.23050  Biso   1.000  H
  C262     1.0000 0.55150  0.70570  0.12920  Biso   1.000  C
  H174     1.0000 0.55730  0.68980  0.16550  Biso   1.000  H
  C263     1.0000 0.53960  0.82840  0.18290  Biso   1.000  C
  H175     1.0000 0.53860  0.84410  0.14650  Biso   1.000  H
  C264     1.0000 0.54440  0.76010  0.23910  Biso   1.000  C
  H176     1.0000 0.54340  0.72720  0.24310  Biso   1.000  H
  Cd12     1.0000 0.04579  0.12570  0.37058  Biso   1.000  Cd
  O45      1.0000 0.05990  0.13250  0.47090  Biso   1.000  O
  O46      1.0000 0.03930  0.19500  0.42110  Biso   1.000  O
  O47      1.0000 0.94860  0.10700  0.36380  Biso   1.000  O
  C265     1.0000 0.04580  0.20020  0.52420  Biso   1.000  C
  C266     1.0000 0.04760  0.17430  0.46860  Biso   1.000  C
  C267     1.0000 0.05520  0.18130  0.57860  Biso   1.000  C
  H177     1.0000 0.06500  0.14920  0.58140  Biso   1.000  H
  C268     1.0000 0.95570  0.06390  0.36770  Biso   1.000  C
  C269     1.0000 0.90120  0.03350  0.36900  Biso   1.000  C
  O48      1.0000 0.00630  0.04720  0.36560  Biso   1.000  O
  C270     1.0000 0.84740  0.05540  0.37440  Biso   1.000  C
  H178     1.0000 0.84520  0.08830  0.37740  Biso   1.000  H
  N23      1.0000 0.63550  0.90620  0.36710  Biso   1.000  N
  C271     1.0000 0.90330  0.98610  0.36720  Biso   1.000  C
  H179     1.0000 0.94010  0.97120  0.36550  Biso   1.000  H
  C272     1.0000 0.80260  0.97990  0.37180  Biso   1.000  C
  C273     1.0000 0.74440  0.95320  0.37210  Biso   1.000  C
  C274     1.0000 0.79800  0.02870  0.37540  Biso   1.000  C
  H180     1.0000 0.76100  0.04290  0.37850  Biso   1.000  H
  C275     1.0000 0.85690  0.96100  0.36750  Biso   1.000  C
  H181     1.0000 0.86040  0.92820  0.36480  Biso   1.000  H
  C276     1.0000 0.69640  0.97000  0.39800  Biso   1.000  C
  H182     1.0000 0.69990  0.99730  0.42120  Biso   1.000  H
  C277     1.0000 0.73790  0.90890  0.34740  Biso   1.000  C
  H183     1.0000 0.77000  0.89400  0.33180  Biso   1.000  H
  C278     1.0000 0.64540  0.94810  0.39040  Biso   1.000  C
  H184     1.0000 0.61240  0.96400  0.40290  Biso   1.000  H
  C279     1.0000 0.68540  0.88780  0.34590  Biso   1.000  C
  H185     1.0000 0.68230  0.85760  0.32880  Biso   1.000  H
  N24      1.0000 0.04590  0.33330  0.78580  Biso   1.000  N
  C280     1.0000 0.04000  0.25150  0.62870  Biso   1.000  C
  C281     1.0000 0.03930  0.28010  0.68330  Biso   1.000  C
  C282     1.0000 0.02930  0.27470  0.57510  Biso   1.000  C
  H186     1.0000 0.02060  0.30700  0.57340  Biso   1.000  H
  C283     1.0000 0.03210  0.24710  0.52250  Biso   1.000  C
  H187     1.0000 0.02430  0.26180  0.48560  Biso   1.000  H
  C284     1.0000 0.05050  0.28670  0.78680  Biso   1.000  C
  H188     1.0000 0.05870  0.27190  0.82350  Biso   1.000  H
  C285     1.0000 0.04120  0.35390  0.73300  Biso   1.000  C
  H189     1.0000 0.03890  0.38690  0.73050  Biso   1.000  H
  C286     1.0000 0.05150  0.20570  0.62920  Biso   1.000  C
  H190     1.0000 0.05730  0.18980  0.66550  Biso   1.000  H
  C287     1.0000 0.03960  0.32840  0.68290  Biso   1.000  C
  H191     1.0000 0.03860  0.34410  0.64650  Biso   1.000  H
  C288     1.0000 0.04440  0.26010  0.73910  Biso   1.000  C
  H192     1.0000 0.04340  0.22720  0.74310  Biso   1.000  H
  Cd13     1.0000 0.73255  0.56354  0.34208  Biso   1.000  Cd
  Cd14     1.0000 0.23113  0.31264  0.34666  Biso   1.000  Cd
  C289     1.0000 0.40310  0.37010  0.34710  Biso   1.000  C
  O49      1.0000 0.31050  0.35140  0.37990  Biso   1.000  O
  O50      1.0000 0.77130  0.60620  0.27230  Biso   1.000  O
  O51      1.0000 0.70680  0.55590  0.22930  Biso   1.000  O
  O52      1.0000 0.70610  0.60850  0.41320  Biso   1.000  O
  C290     1.0000 0.73710  0.62940  0.50840  Biso   1.000  C
  O53      1.0000 0.77350  0.56390  0.46060  Biso   1.000  O
  O54      1.0000 0.15760  0.35830  0.30370  Biso   1.000  O
  C291     1.0000 0.06520  0.37400  0.33640  Biso   1.000  C
  O55      1.0000 0.12660  0.30990  0.36660  Biso   1.000  O
  O56      1.0000 0.34400  0.30650  0.31220  Biso   1.000  O
  C292     1.0000 0.68710  0.68670  0.56350  Biso   1.000  C
  H193     1.0000 0.65390  0.70600  0.56620  Biso   1.000  H
  C293     1.0000 0.78210  0.62840  0.55410  Biso   1.000  C
  H194     1.0000 0.81460  0.60830  0.55100  Biso   1.000  H
  C294     1.0000 0.44150  0.36550  0.30330  Biso   1.000  C
  H195     1.0000 0.43380  0.34380  0.27240  Biso   1.000  H
  C295     1.0000 0.78860  0.67550  0.11540  Biso   1.000  C
  H196     1.0000 0.81770  0.69880  0.11270  Biso   1.000  H
  C296     1.0000 0.34870  0.33860  0.34490  Biso   1.000  C
  C297     1.0000 0.78560  0.65120  0.16700  Biso   1.000  C
  H197     1.0000 0.81100  0.65960  0.20010  Biso   1.000  H
  C298     1.0000 0.50470  0.42590  0.34860  Biso   1.000  C
  C299     1.0000 0.49190  0.39380  0.30630  Biso   1.000  C
  H198     1.0000 0.51830  0.39020  0.27700  Biso   1.000  H
  C300     1.0000 0.46200  0.43170  0.39070  Biso   1.000  C
  H199     1.0000 0.46750  0.45520  0.41960  Biso   1.000  H
  C301     1.0000 0.41440  0.40430  0.38930  Biso   1.000  C
  H200     1.0000 0.38760  0.40840  0.41810  Biso   1.000  H
  C302     1.0000 0.74650  0.61480  0.17140  Biso   1.000  C
  C303     1.0000 0.69110  0.66020  0.51370  Biso   1.000  C
  H201     1.0000 0.66160  0.66320  0.48230  Biso   1.000  H
  C304     1.0000 0.73740  0.59150  0.22710  Biso   1.000  C
  C305     1.0000 0.02630  0.36480  0.37960  Biso   1.000  C
  H202     1.0000 0.03420  0.34000  0.40640  Biso   1.000  H
  C306     1.0000 0.11910  0.34470  0.33590  Biso   1.000  C
  C307     1.0000 0.05120  0.40700  0.29610  Biso   1.000  C
  H203     1.0000 0.07510  0.41110  0.26480  Biso   1.000  H
  C308     1.0000 0.74160  0.59830  0.45790  Biso   1.000  C
  N25      1.0000 0.65560  0.51420  0.34730  Biso   1.000  N
  C309     1.0000 0.55470  0.45530  0.34900  Biso   1.000  C
  C310     1.0000 0.58830  0.45840  0.30110  Biso   1.000  C
  H204     1.0000 0.57680  0.44100  0.26690  Biso   1.000  H
  C311     1.0000 0.63750  0.48590  0.30220  Biso   1.000  C
  H205     1.0000 0.66020  0.48500  0.26940  Biso   1.000  H
  C312     1.0000 0.57470  0.48520  0.39530  Biso   1.000  C
  H206     1.0000 0.55480  0.48590  0.42990  Biso   1.000  H
  C313     1.0000 0.62290  0.51360  0.39080  Biso   1.000  C
  H207     1.0000 0.63290  0.53440  0.42220  Biso   1.000  H
  N26      1.0000 0.72200  0.76400  0.76730  Biso   1.000  N
  C314     1.0000 0.76020  0.70070  0.71680  Biso   1.000  C
  H208     1.0000 0.78470  0.67400  0.71850  Biso   1.000  H
  C315     1.0000 0.69200  0.77500  0.71870  Biso   1.000  C
  H209     1.0000 0.66730  0.80150  0.71900  Biso   1.000  H
  C316     1.0000 0.72860  0.71250  0.66440  Biso   1.000  C
  C317     1.0000 0.75650  0.72680  0.76500  Biso   1.000  C
  H210     1.0000 0.77980  0.71810  0.79940  Biso   1.000  H
  C318     1.0000 0.73170  0.68570  0.61120  Biso   1.000  C
  C319     1.0000 0.69310  0.75100  0.66650  Biso   1.000  C
  H211     1.0000 0.66980  0.76110  0.63270  Biso   1.000  H
  C320     1.0000 0.78050  0.65560  0.60330  Biso   1.000  C
  H212     1.0000 0.81240  0.65450  0.63250  Biso   1.000  H
  C321     1.0000 0.00250  0.43500  0.29940  Biso   1.000  C
  H213     1.0000 0.99640  0.46070  0.27360  Biso   1.000  H
  N27      1.0000 0.80700  0.50880  0.34550  Biso   1.000  N
  C322     1.0000 0.96230  0.42610  0.34020  Biso   1.000  C
  C323     1.0000 0.87960  0.46160  0.39230  Biso   1.000  C
  H214     1.0000 0.89380  0.44740  0.42800  Biso   1.000  H
  C324     1.0000 0.90750  0.45380  0.34330  Biso   1.000  C
  C325     1.0000 0.83280  0.48860  0.39050  Biso   1.000  C
  H215     1.0000 0.81640  0.49360  0.42650  Biso   1.000  H
  C326     1.0000 0.88110  0.47470  0.29030  Biso   1.000  C
  H216     1.0000 0.89540  0.46880  0.25350  Biso   1.000  H
  C327     1.0000 0.97630  0.39210  0.38270  Biso   1.000  C
  H217     1.0000 0.95190  0.38760  0.41360  Biso   1.000  H
  C328     1.0000 0.83470  0.50300  0.29590  Biso   1.000  C
  H218     1.0000 0.82040  0.52040  0.26250  Biso   1.000  H
  N28      1.0000 0.74130  0.75590  0.91680  Biso   1.000  N
  C329     1.0000 0.69790  0.72890  0.93120  Biso   1.000  C
  H219     1.0000 0.66260  0.73050  0.90630  Biso   1.000  H
  C330     1.0000 0.70830  0.62970  0.07030  Biso   1.000  C
  H220     1.0000 0.68170  0.62240  0.03750  Biso   1.000  H
  C331     1.0000 0.74950  0.66620  0.06780  Biso   1.000  C
  C332     1.0000 0.70760  0.60480  0.12190  Biso   1.000  C
  H221     1.0000 0.68020  0.58020  0.12400  Biso   1.000  H
  C333     1.0000 0.74860  0.69480  0.01380  Biso   1.000  C
  C334     1.0000 0.79220  0.75100  0.95300  Biso   1.000  C
  H222     1.0000 0.82500  0.76970  0.94560  Biso   1.000  H
  C335     1.0000 0.69770  0.69890  0.97760  Biso   1.000  C
  H223     1.0000 0.66370  0.68160  0.98450  Biso   1.000  H
  C336     1.0000 0.79780  0.72090  0.99860  Biso   1.000  C
  H224     1.0000 0.83460  0.71720  0.02040  Biso   1.000  H
  Cd15     1.0000 0.23255  0.06354  0.84208  Biso   1.000  Cd
  Cd16     1.0000 0.73113  0.81264  0.84666  Biso   1.000  Cd
  C337     1.0000 0.90310  0.87010  0.84710  Biso   1.000  C
  O57      1.0000 0.81050  0.85140  0.87990  Biso   1.000  O
  O58      1.0000 0.27130  0.10620  0.77230  Biso   1.000  O
  O59      1.0000 0.20680  0.05590  0.72930  Biso   1.000  O
  O60      1.0000 0.20610  0.10850  0.91320  Biso   1.000  O
  C338     1.0000 0.23710  0.12940  0.00840  Biso   1.000  C
  O61      1.0000 0.27350  0.06390  0.96060  Biso   1.000  O
  O62      1.0000 0.65760  0.85830  0.80370  Biso   1.000  O
  C339     1.0000 0.56520  0.87400  0.83640  Biso   1.000  C
  O63      1.0000 0.62660  0.80990  0.86660  Biso   1.000  O
  O64      1.0000 0.84400  0.80650  0.81220  Biso   1.000  O
  C340     1.0000 0.18710  0.18670  0.06350  Biso   1.000  C
  H225     1.0000 0.15390  0.20600  0.06620  Biso   1.000  H
  C341     1.0000 0.28210  0.12840  0.05410  Biso   1.000  C
  H226     1.0000 0.31460  0.10830  0.05100  Biso   1.000  H
  C342     1.0000 0.94150  0.86550  0.80330  Biso   1.000  C
  H227     1.0000 0.93380  0.84380  0.77240  Biso   1.000  H
  C343     1.0000 0.28860  0.17550  0.61540  Biso   1.000  C
  H228     1.0000 0.31770  0.19880  0.61270  Biso   1.000  H
  C344     1.0000 0.84870  0.83860  0.84490  Biso   1.000  C
  C345     1.0000 0.28560  0.15120  0.66700  Biso   1.000  C
  H229     1.0000 0.31100  0.15960  0.70010  Biso   1.000  H
  C346     1.0000 0.00470  0.92590  0.84860  Biso   1.000  C
  C347     1.0000 0.99190  0.89380  0.80630  Biso   1.000  C
  H230     1.0000 0.01830  0.89020  0.77700  Biso   1.000  H
  C348     1.0000 0.96200  0.93170  0.89070  Biso   1.000  C
  H231     1.0000 0.96750  0.95520  0.91960  Biso   1.000  H
  C349     1.0000 0.91440  0.90430  0.88930  Biso   1.000  C
  H232     1.0000 0.88760  0.90840  0.91810  Biso   1.000  H
  C350     1.0000 0.24650  0.11480  0.67140  Biso   1.000  C
  C351     1.0000 0.19110  0.16020  0.01370  Biso   1.000  C
  H233     1.0000 0.16160  0.16320  0.98230  Biso   1.000  H
  C352     1.0000 0.23740  0.09150  0.72710  Biso   1.000  C
  C353     1.0000 0.52630  0.86480  0.87960  Biso   1.000  C
  H234     1.0000 0.53420  0.84000  0.90640  Biso   1.000  H
  C354     1.0000 0.61910  0.84470  0.83590  Biso   1.000  C
  C355     1.0000 0.55120  0.90700  0.79610  Biso   1.000  C
  H235     1.0000 0.57510  0.91110  0.76480  Biso   1.000  H
  C356     1.0000 0.24160  0.09830  0.95790  Biso   1.000  C
  N29      1.0000 0.15560  0.01420  0.84730  Biso   1.000  N
  C357     1.0000 0.05470  0.95530  0.84900  Biso   1.000  C
  C358     1.0000 0.08830  0.95840  0.80110  Biso   1.000  C
  H236     1.0000 0.07680  0.94100  0.76690  Biso   1.000  H
  C359     1.0000 0.13750  0.98590  0.80220  Biso   1.000  C
  H237     1.0000 0.16020  0.98500  0.76940  Biso   1.000  H
  C360     1.0000 0.07470  0.98520  0.89530  Biso   1.000  C
  H238     1.0000 0.05480  0.98590  0.92990  Biso   1.000  H
  C361     1.0000 0.12290  0.01360  0.89080  Biso   1.000  C
  H239     1.0000 0.13290  0.03440  0.92220  Biso   1.000  H
  N30      1.0000 0.22200  0.26400  0.26730  Biso   1.000  N
  C362     1.0000 0.26020  0.20070  0.21680  Biso   1.000  C
  H240     1.0000 0.28470  0.17400  0.21850  Biso   1.000  H
  C363     1.0000 0.19200  0.27500  0.21870  Biso   1.000  C
  H241     1.0000 0.16730  0.30150  0.21900  Biso   1.000  H
  C364     1.0000 0.22860  0.21250  0.16440  Biso   1.000  C
  C365     1.0000 0.25650  0.22680  0.26500  Biso   1.000  C
  H242     1.0000 0.27980  0.21810  0.29940  Biso   1.000  H
  C366     1.0000 0.23170  0.18570  0.11120  Biso   1.000  C
  C367     1.0000 0.19310  0.25100  0.16650  Biso   1.000  C
  H243     1.0000 0.16980  0.26110  0.13270  Biso   1.000  H
  C368     1.0000 0.28050  0.15560  0.10330  Biso   1.000  C
  H244     1.0000 0.31240  0.15450  0.13250  Biso   1.000  H
  C369     1.0000 0.50250  0.93500  0.79940  Biso   1.000  C
  H245     1.0000 0.49640  0.96070  0.77360  Biso   1.000  H
  N31      1.0000 0.30700  0.00880  0.84550  Biso   1.000  N
  C370     1.0000 0.46230  0.92610  0.84020  Biso   1.000  C
  C371     1.0000 0.37960  0.96160  0.89230  Biso   1.000  C
  H246     1.0000 0.39380  0.94740  0.92800  Biso   1.000  H
  C372     1.0000 0.40750  0.95380  0.84330  Biso   1.000  C
  C373     1.0000 0.33280  0.98860  0.89050  Biso   1.000  C
  H247     1.0000 0.31640  0.99360  0.92650  Biso   1.000  H
  C374     1.0000 0.38110  0.97470  0.79030  Biso   1.000  C
  H248     1.0000 0.39540  0.96880  0.75350  Biso   1.000  H
  C375     1.0000 0.47630  0.89210  0.88270  Biso   1.000  C
  H249     1.0000 0.45190  0.88760  0.91360  Biso   1.000  H
  C376     1.0000 0.33470  0.00300  0.79590  Biso   1.000  C
  H250     1.0000 0.32040  0.02040  0.76250  Biso   1.000  H
  N32      1.0000 0.24130  0.25590  0.41680  Biso   1.000  N
  C377     1.0000 0.19790  0.22890  0.43120  Biso   1.000  C
  H251     1.0000 0.16260  0.23050  0.40630  Biso   1.000  H
  C378     1.0000 0.20830  0.12970  0.57030  Biso   1.000  C
  H252     1.0000 0.18170  0.12240  0.53750  Biso   1.000  H
  C379     1.0000 0.24950  0.16620  0.56780  Biso   1.000  C
  C380     1.0000 0.20760  0.10480  0.62190  Biso   1.000  C
  H253     1.0000 0.18020  0.08020  0.62400  Biso   1.000  H
  C381     1.0000 0.24860  0.19480  0.51380  Biso   1.000  C
  C382     1.0000 0.29220  0.25100  0.45300  Biso   1.000  C
  H254     1.0000 0.32500  0.26970  0.44560  Biso   1.000  H
  C383     1.0000 0.19770  0.19890  0.47760  Biso   1.000  C
  H255     1.0000 0.16370  0.18160  0.48450  Biso   1.000  H
  C384     1.0000 0.29780  0.22090  0.49860  Biso   1.000  C
  H256     1.0000 0.33460  0.21720  0.52040  Biso   1.000  H
  Cd17     1.0000 0.19182  0.56523  0.08872  Biso   1.000  Cd
  Cd18     1.0000 0.68983  0.31347  0.09238  Biso   1.000  Cd
  N33      1.0000 0.26960  0.51610  0.08610  Biso   1.000  N
  O65      1.0000 0.22300  0.56280  0.20240  Biso   1.000  O
  C385     1.0000 0.52390  0.37540  0.08060  Biso   1.000  C
  C386     1.0000 0.85870  0.37080  0.09930  Biso   1.000  C
  O66      1.0000 0.58030  0.30900  0.11270  Biso   1.000  O
  O67      1.0000 0.16610  0.61300  0.15720  Biso   1.000  O
  C387     1.0000 0.14580  0.65710  0.26460  Biso   1.000  C
  H257     1.0000 0.11850  0.66380  0.23220  Biso   1.000  H
  C388     1.0000 0.22150  0.64070  0.35850  Biso   1.000  C
  H258     1.0000 0.24840  0.63460  0.39130  Biso   1.000  H
  C389     1.0000 0.14120  0.68110  0.31520  Biso   1.000  C
  H259     1.0000 0.11040  0.70310  0.31680  Biso   1.000  H
  C390     1.0000 0.18800  0.62370  0.25800  Biso   1.000  C
  C391     1.0000 0.43390  0.39200  0.12470  Biso   1.000  C
  H260     1.0000 0.40780  0.38730  0.15410  Biso   1.000  H
  C392     1.0000 0.36850  0.45730  0.08150  Biso   1.000  C
  C393     1.0000 0.48300  0.36480  0.12440  Biso   1.000  C
  H261     1.0000 0.49030  0.34020  0.15160  Biso   1.000  H
  C394     1.0000 0.42080  0.42820  0.08050  Biso   1.000  C
  O68      1.0000 0.61640  0.35940  0.04670  Biso   1.000  O
  C395     1.0000 0.51080  0.40780  0.03870  Biso   1.000  C
  H262     1.0000 0.53730  0.41340  0.00980  Biso   1.000  H
  C396     1.0000 0.17940  0.67480  0.36380  Biso   1.000  C
  C397     1.0000 0.19040  0.59780  0.20150  Biso   1.000  C
  C398     1.0000 0.80930  0.34160  0.10510  Biso   1.000  C
  C399     1.0000 0.22670  0.61460  0.30710  Biso   1.000  C
  H263     1.0000 0.25590  0.59130  0.30590  Biso   1.000  H
  C400     1.0000 0.57610  0.34820  0.07990  Biso   1.000  C
  C401     1.0000 0.45830  0.43340  0.03770  Biso   1.000  C
  H264     1.0000 0.44880  0.45460  0.00670  Biso   1.000  H
  C402     1.0000 0.29510  0.49670  0.13210  Biso   1.000  C
  H265     1.0000 0.27980  0.50300  0.16840  Biso   1.000  H
  C403     1.0000 0.34390  0.46690  0.13240  Biso   1.000  C
  H266     1.0000 0.35980  0.45340  0.16800  Biso   1.000  H
  C404     1.0000 0.29050  0.50500  0.03590  Biso   1.000  C
  H267     1.0000 0.27210  0.51790  0.00090  Biso   1.000  H
  C405     1.0000 0.17940  0.67610  0.82080  Biso   1.000  C
  C406     1.0000 0.13160  0.64820  0.83010  Biso   1.000  C
  H268     1.0000 0.09820  0.64800  0.80250  Biso   1.000  H
  C407     1.0000 0.13240  0.62050  0.87970  Biso   1.000  C
  H269     1.0000 0.09980  0.60140  0.88600  Biso   1.000  H
  C408     1.0000 0.18120  0.62080  0.92010  Biso   1.000  C
  C409     1.0000 0.22900  0.64870  0.91080  Biso   1.000  C
  H270     1.0000 0.26230  0.64890  0.93840  Biso   1.000  H
  C410     1.0000 0.22810  0.67640  0.86120  Biso   1.000  C
  H271     1.0000 0.26080  0.69550  0.85480  Biso   1.000  H
  C411     1.0000 0.33810  0.47550  0.03190  Biso   1.000  C
  H272     1.0000 0.35000  0.46770  0.99460  Biso   1.000  H
  C412     1.0000 0.88780  0.38920  0.14790  Biso   1.000  C
  H273     1.0000 0.87520  0.38240  0.18530  Biso   1.000  H
  C413     1.0000 0.88690  0.38020  0.05170  Biso   1.000  C
  H274     1.0000 0.87060  0.36710  0.01610  Biso   1.000  H
  N34      1.0000 0.18460  0.76170  0.51510  Biso   1.000  N
  C414     1.0000 0.17960  0.70340  0.41550  Biso   1.000  C
  C415     1.0000 0.12950  0.72200  0.43470  Biso   1.000  C
  H275     1.0000 0.09210  0.71640  0.41480  Biso   1.000  H
  C416     1.0000 0.23080  0.71600  0.44820  Biso   1.000  C
  H276     1.0000 0.26690  0.70450  0.43670  Biso   1.000  H
  C417     1.0000 0.23190  0.74360  0.49500  Biso   1.000  C
  H277     1.0000 0.26890  0.75060  0.51500  Biso   1.000  H
  C418     1.0000 0.13660  0.75020  0.48630  Biso   1.000  C
  H278     1.0000 0.10170  0.76170  0.50060  Biso   1.000  H
  C419     1.0000 0.23650  0.75340  0.70680  Biso   1.000  C
  H279     1.0000 0.27210  0.76780  0.69840  Biso   1.000  H
  N35      1.0000 0.18630  0.75920  0.66920  Biso   1.000  N
  C420     1.0000 0.13420  0.73810  0.68150  Biso   1.000  C
  H280     1.0000 0.09990  0.74200  0.65580  Biso   1.000  H
  C421     1.0000 0.13230  0.71120  0.73150  Biso   1.000  C
  H281     1.0000 0.09670  0.69680  0.74000  Biso   1.000  H
  C422     1.0000 0.18250  0.70540  0.76920  Biso   1.000  C
  C423     1.0000 0.23460  0.72650  0.75690  Biso   1.000  C
  H282     1.0000 0.26890  0.72250  0.78260  Biso   1.000  H
  N36      1.0000 0.11600  0.51450  0.09180  Biso   1.000  N
  C424     1.0000 0.04720  0.45740  0.04630  Biso   1.000  C
  H283     1.0000 0.03750  0.43770  0.01370  Biso   1.000  H
  C425     1.0000 0.96320  0.42740  0.09540  Biso   1.000  C
  C426     1.0000 0.01340  0.45640  0.09430  Biso   1.000  C
  C427     1.0000 0.03410  0.48620  0.14010  Biso   1.000  C
  H284     1.0000 0.01420  0.48610  0.17460  Biso   1.000  H
  C428     1.0000 0.93640  0.41830  0.14300  Biso   1.000  C
  H285     1.0000 0.95190  0.43310  0.17780  Biso   1.000  H
  C429     1.0000 0.09660  0.48810  0.04610  Biso   1.000  C
  H286     1.0000 0.11660  0.48980  0.01160  Biso   1.000  H
  C430     1.0000 0.08210  0.51610  0.13820  Biso   1.000  C
  H287     1.0000 0.09120  0.53750  0.16900  Biso   1.000  H
  C431     1.0000 0.93770  0.40730  0.04840  Biso   1.000  C
  H288     1.0000 0.95370  0.41120  0.01190  Biso   1.000  H
  O69      1.0000 0.76890  0.35610  0.12880  Biso   1.000  O
  O70      1.0000 0.80260  0.30910  0.06720  Biso   1.000  O
  Cd19     1.0000 0.69182  0.06523  0.58872  Biso   1.000  Cd
  Cd20     1.0000 0.18983  0.81347  0.59238  Biso   1.000  Cd
  N37      1.0000 0.76960  0.01610  0.58610  Biso   1.000  N
  O71      1.0000 0.72300  0.06280  0.70240  Biso   1.000  O
  C432     1.0000 0.02390  0.87540  0.58060  Biso   1.000  C
  C433     1.0000 0.35870  0.87080  0.59930  Biso   1.000  C
  O72      1.0000 0.08030  0.80900  0.61270  Biso   1.000  O
  O73      1.0000 0.66610  0.11300  0.65720  Biso   1.000  O
  C434     1.0000 0.64580  0.15710  0.76460  Biso   1.000  C
  H289     1.0000 0.61850  0.16380  0.73220  Biso   1.000  H
  C435     1.0000 0.72150  0.14070  0.85850  Biso   1.000  C
  H290     1.0000 0.74840  0.13460  0.89130  Biso   1.000  H
  C436     1.0000 0.64120  0.18110  0.81520  Biso   1.000  C
  H291     1.0000 0.61040  0.20310  0.81680  Biso   1.000  H
  C437     1.0000 0.68800  0.12370  0.75800  Biso   1.000  C
  C438     1.0000 0.93390  0.89200  0.62470  Biso   1.000  C
  H292     1.0000 0.90780  0.88730  0.65410  Biso   1.000  H
  C439     1.0000 0.86850  0.95730  0.58150  Biso   1.000  C
  C440     1.0000 0.98300  0.86480  0.62440  Biso   1.000  C
  H293     1.0000 0.99030  0.84020  0.65160  Biso   1.000  H
  C441     1.0000 0.92080  0.92820  0.58050  Biso   1.000  C
  O74      1.0000 0.11640  0.85940  0.54670  Biso   1.000  O
  C442     1.0000 0.01080  0.90780  0.53870  Biso   1.000  C
  H294     1.0000 0.03730  0.91340  0.50980  Biso   1.000  H
  C443     1.0000 0.67940  0.17480  0.86380  Biso   1.000  C
  C444     1.0000 0.69040  0.09780  0.70150  Biso   1.000  C
  C445     1.0000 0.30930  0.84160  0.60510  Biso   1.000  C
  C446     1.0000 0.72670  0.11460  0.80710  Biso   1.000  C
  H295     1.0000 0.75590  0.09130  0.80590  Biso   1.000  H
  C447     1.0000 0.07610  0.84820  0.57990  Biso   1.000  C
  C448     1.0000 0.95830  0.93340  0.53770  Biso   1.000  C
  H296     1.0000 0.94880  0.95460  0.50670  Biso   1.000  H
  C449     1.0000 0.79510  0.99670  0.63210  Biso   1.000  C
  H297     1.0000 0.77980  0.00300  0.66840  Biso   1.000  H
  C450     1.0000 0.84390  0.96690  0.63240  Biso   1.000  C
  H298     1.0000 0.85980  0.95340  0.66800  Biso   1.000  H
  C451     1.0000 0.79050  0.00500  0.53590  Biso   1.000  C
  H299     1.0000 0.77210  0.01790  0.50090  Biso   1.000  H
  C452     1.0000 0.67940  0.17610  0.32080  Biso   1.000  C
  C453     1.0000 0.63160  0.14820  0.33010  Biso   1.000  C
  H300     1.0000 0.59820  0.14800  0.30250  Biso   1.000  H
  C454     1.0000 0.63240  0.12050  0.37970  Biso   1.000  C
  H301     1.0000 0.59980  0.10140  0.38600  Biso   1.000  H
  C455     1.0000 0.68120  0.12080  0.42010  Biso   1.000  C
  C456     1.0000 0.72900  0.14870  0.41080  Biso   1.000  C
  H302     1.0000 0.76230  0.14890  0.43840  Biso   1.000  H
  C457     1.0000 0.72810  0.17640  0.36120  Biso   1.000  C
  H303     1.0000 0.76080  0.19550  0.35480  Biso   1.000  H
  C458     1.0000 0.83810  0.97550  0.53190  Biso   1.000  C
  H304     1.0000 0.85000  0.96770  0.49460  Biso   1.000  H
  C459     1.0000 0.38780  0.88920  0.64790  Biso   1.000  C
  H305     1.0000 0.37520  0.88240  0.68530  Biso   1.000  H
  C460     1.0000 0.38690  0.88020  0.55170  Biso   1.000  C
  H306     1.0000 0.37060  0.86710  0.51610  Biso   1.000  H
  N38      1.0000 0.68460  0.26170  0.01510  Biso   1.000  N
  C461     1.0000 0.67960  0.20340  0.91550  Biso   1.000  C
  C462     1.0000 0.62950  0.22200  0.93470  Biso   1.000  C
  H307     1.0000 0.59210  0.21640  0.91480  Biso   1.000  H
  C463     1.0000 0.73080  0.21600  0.94820  Biso   1.000  C
  H308     1.0000 0.76690  0.20450  0.93670  Biso   1.000  H
  C464     1.0000 0.73190  0.24360  0.99500  Biso   1.000  C
  H309     1.0000 0.76890  0.25060  0.01500  Biso   1.000  H
  C465     1.0000 0.63660  0.25020  0.98630  Biso   1.000  C
  H310     1.0000 0.60170  0.26170  0.00060  Biso   1.000  H
  C466     1.0000 0.73650  0.25340  0.20680  Biso   1.000  C
  H311     1.0000 0.77210  0.26780  0.19840  Biso   1.000  H
  N39      1.0000 0.68630  0.25920  0.16920  Biso   1.000  N
  C467     1.0000 0.63420  0.23810  0.18150  Biso   1.000  C
  H312     1.0000 0.59990  0.24200  0.15580  Biso   1.000  H
  C468     1.0000 0.63230  0.21120  0.23150  Biso   1.000  C
  H313     1.0000 0.59670  0.19680  0.24000  Biso   1.000  H
  C469     1.0000 0.68250  0.20540  0.26920  Biso   1.000  C
  C470     1.0000 0.73460  0.22650  0.25690  Biso   1.000  C
  H314     1.0000 0.76890  0.22250  0.28260  Biso   1.000  H
  N40      1.0000 0.61600  0.01450  0.59180  Biso   1.000  N
  C471     1.0000 0.54720  0.95740  0.54630  Biso   1.000  C
  H315     1.0000 0.53750  0.93770  0.51370  Biso   1.000  H
  C472     1.0000 0.46320  0.92740  0.59540  Biso   1.000  C
  C473     1.0000 0.51340  0.95640  0.59430  Biso   1.000  C
  C474     1.0000 0.53410  0.98620  0.64010  Biso   1.000  C
  H316     1.0000 0.51420  0.98610  0.67460  Biso   1.000  H
  C475     1.0000 0.43640  0.91830  0.64300  Biso   1.000  C
  H317     1.0000 0.45190  0.93310  0.67780  Biso   1.000  H
  C476     1.0000 0.59660  0.98810  0.54610  Biso   1.000  C
  H318     1.0000 0.61660  0.98980  0.51160  Biso   1.000  H
  C477     1.0000 0.58210  0.01610  0.63820  Biso   1.000  C
  H319     1.0000 0.59120  0.03750  0.66900  Biso   1.000  H
  C478     1.0000 0.43770  0.90730  0.54840  Biso   1.000  C
  H320     1.0000 0.45370  0.91120  0.51190  Biso   1.000  H
  O75      1.0000 0.26890  0.85610  0.62880  Biso   1.000  O
  O76      1.0000 0.30260  0.80910  0.56720  Biso   1.000  O
  Cd21     1.0000 0.69182  0.43477  0.08872  Biso   1.000  Cd
  Cd22     1.0000 0.18983  0.68653  0.09238  Biso   1.000  Cd
  N41      1.0000 0.76960  0.48390  0.08610  Biso   1.000  N
  O77      1.0000 0.72300  0.43720  0.20240  Biso   1.000  O
  C479     1.0000 0.02390  0.62460  0.08060  Biso   1.000  C
  C480     1.0000 0.35870  0.62920  0.09930  Biso   1.000  C
  O78      1.0000 0.08030  0.69100  0.11270  Biso   1.000  O
  O79      1.0000 0.66610  0.38700  0.15720  Biso   1.000  O
  C481     1.0000 0.64580  0.34290  0.26460  Biso   1.000  C
  H321     1.0000 0.61850  0.33620  0.23220  Biso   1.000  H
  C482     1.0000 0.72150  0.35930  0.35850  Biso   1.000  C
  H322     1.0000 0.74840  0.36540  0.39130  Biso   1.000  H
  C483     1.0000 0.64120  0.31890  0.31520  Biso   1.000  C
  H323     1.0000 0.61040  0.29690  0.31680  Biso   1.000  H
  C484     1.0000 0.68800  0.37630  0.25800  Biso   1.000  C
  C485     1.0000 0.93390  0.60800  0.12470  Biso   1.000  C
  H324     1.0000 0.90780  0.61270  0.15410  Biso   1.000  H
  C486     1.0000 0.86850  0.54270  0.08150  Biso   1.000  C
  C487     1.0000 0.98300  0.63520  0.12440  Biso   1.000  C
  H325     1.0000 0.99030  0.65980  0.15160  Biso   1.000  H
  C488     1.0000 0.92080  0.57180  0.08050  Biso   1.000  C
  O80      1.0000 0.11640  0.64060  0.04670  Biso   1.000  O
  C489     1.0000 0.01080  0.59220  0.03870  Biso   1.000  C
  H326     1.0000 0.03730  0.58660  0.00980  Biso   1.000  H
  C490     1.0000 0.67940  0.32520  0.36380  Biso   1.000  C
  C491     1.0000 0.69040  0.40220  0.20150  Biso   1.000  C
  C492     1.0000 0.30930  0.65840  0.10510  Biso   1.000  C
  C493     1.0000 0.72670  0.38540  0.30710  Biso   1.000  C
  H327     1.0000 0.75590  0.40870  0.30590  Biso   1.000  H
  C494     1.0000 0.07610  0.65180  0.07990  Biso   1.000  C
  C495     1.0000 0.95830  0.56660  0.03770  Biso   1.000  C
  H328     1.0000 0.94880  0.54540  0.00670  Biso   1.000  H
  C496     1.0000 0.79510  0.50330  0.13210  Biso   1.000  C
  H329     1.0000 0.77980  0.49700  0.16840  Biso   1.000  H
  C497     1.0000 0.84390  0.53310  0.13240  Biso   1.000  C
  H330     1.0000 0.85980  0.54660  0.16800  Biso   1.000  H
  C498     1.0000 0.79050  0.49500  0.03590  Biso   1.000  C
  H331     1.0000 0.77210  0.48210  0.00090  Biso   1.000  H
  C499     1.0000 0.67940  0.32390  0.82080  Biso   1.000  C
  C500     1.0000 0.63160  0.35180  0.83010  Biso   1.000  C
  H332     1.0000 0.59820  0.35200  0.80250  Biso   1.000  H
  C501     1.0000 0.63240  0.37950  0.87970  Biso   1.000  C
  H333     1.0000 0.59980  0.39860  0.88600  Biso   1.000  H
  C502     1.0000 0.68120  0.37920  0.92010  Biso   1.000  C
  C503     1.0000 0.72900  0.35130  0.91080  Biso   1.000  C
  H334     1.0000 0.76230  0.35110  0.93840  Biso   1.000  H
  C504     1.0000 0.72810  0.32360  0.86120  Biso   1.000  C
  H335     1.0000 0.76080  0.30450  0.85480  Biso   1.000  H
  C505     1.0000 0.83810  0.52450  0.03190  Biso   1.000  C
  H336     1.0000 0.85000  0.53230  0.99460  Biso   1.000  H
  C506     1.0000 0.38780  0.61080  0.14790  Biso   1.000  C
  H337     1.0000 0.37520  0.61760  0.18530  Biso   1.000  H
  C507     1.0000 0.38690  0.61980  0.05170  Biso   1.000  C
  H338     1.0000 0.37060  0.63290  0.01610  Biso   1.000  H
  N42      1.0000 0.68460  0.23830  0.51510  Biso   1.000  N
  C508     1.0000 0.67960  0.29660  0.41550  Biso   1.000  C
  C509     1.0000 0.62950  0.27800  0.43470  Biso   1.000  C
  H339     1.0000 0.59210  0.28360  0.41480  Biso   1.000  H
  C510     1.0000 0.73080  0.28400  0.44820  Biso   1.000  C
  H340     1.0000 0.76690  0.29550  0.43670  Biso   1.000  H
  C511     1.0000 0.73190  0.25640  0.49500  Biso   1.000  C
  H341     1.0000 0.76890  0.24940  0.51500  Biso   1.000  H
  C512     1.0000 0.63660  0.24980  0.48630  Biso   1.000  C
  H342     1.0000 0.60170  0.23830  0.50060  Biso   1.000  H
  C513     1.0000 0.73650  0.24660  0.70680  Biso   1.000  C
  H343     1.0000 0.77210  0.23220  0.69840  Biso   1.000  H
  N43      1.0000 0.68630  0.24080  0.66920  Biso   1.000  N
  C514     1.0000 0.63420  0.26190  0.68150  Biso   1.000  C
  H344     1.0000 0.59990  0.25800  0.65580  Biso   1.000  H
  C515     1.0000 0.63230  0.28880  0.73150  Biso   1.000  C
  H345     1.0000 0.59670  0.30320  0.74000  Biso   1.000  H
  C516     1.0000 0.68250  0.29460  0.76920  Biso   1.000  C
  C517     1.0000 0.73460  0.27350  0.75690  Biso   1.000  C
  H346     1.0000 0.76890  0.27750  0.78260  Biso   1.000  H
  N44      1.0000 0.61600  0.48550  0.09180  Biso   1.000  N
  C518     1.0000 0.54720  0.54260  0.04630  Biso   1.000  C
  H347     1.0000 0.53750  0.56230  0.01370  Biso   1.000  H
  C519     1.0000 0.46320  0.57260  0.09540  Biso   1.000  C
  C520     1.0000 0.51340  0.54360  0.09430  Biso   1.000  C
  C521     1.0000 0.53410  0.51380  0.14010  Biso   1.000  C
  H348     1.0000 0.51420  0.51390  0.17460  Biso   1.000  H
  C522     1.0000 0.43640  0.58170  0.14300  Biso   1.000  C
  H349     1.0000 0.45190  0.56690  0.17780  Biso   1.000  H
  C523     1.0000 0.59660  0.51190  0.04610  Biso   1.000  C
  H350     1.0000 0.61660  0.51020  0.01160  Biso   1.000  H
  C524     1.0000 0.58210  0.48390  0.13820  Biso   1.000  C
  H351     1.0000 0.59120  0.46250  0.16900  Biso   1.000  H
  C525     1.0000 0.43770  0.59270  0.04840  Biso   1.000  C
  H352     1.0000 0.45370  0.58880  0.01190  Biso   1.000  H
  O81      1.0000 0.26890  0.64390  0.12880  Biso   1.000  O
  O82      1.0000 0.30260  0.69090  0.06720  Biso   1.000  O
  Cd23     1.0000 0.19182  0.93477  0.58872  Biso   1.000  Cd
  Cd24     1.0000 0.68983  0.18653  0.59238  Biso   1.000  Cd
  N45      1.0000 0.26960  0.98390  0.58610  Biso   1.000  N
  O83      1.0000 0.22300  0.93720  0.70240  Biso   1.000  O
  C526     1.0000 0.52390  0.12460  0.58060  Biso   1.000  C
  C527     1.0000 0.85870  0.12920  0.59930  Biso   1.000  C
  O84      1.0000 0.58030  0.19100  0.61270  Biso   1.000  O
  O85      1.0000 0.16610  0.88700  0.65720  Biso   1.000  O
  C528     1.0000 0.14580  0.84290  0.76460  Biso   1.000  C
  H353     1.0000 0.11850  0.83620  0.73220  Biso   1.000  H
  C529     1.0000 0.22150  0.85930  0.85850  Biso   1.000  C
  H354     1.0000 0.24840  0.86540  0.89130  Biso   1.000  H
  C530     1.0000 0.14120  0.81890  0.81520  Biso   1.000  C
  H355     1.0000 0.11040  0.79690  0.81680  Biso   1.000  H
  C531     1.0000 0.18800  0.87630  0.75800  Biso   1.000  C
  C532     1.0000 0.43390  0.10800  0.62470  Biso   1.000  C
  H356     1.0000 0.40780  0.11270  0.65410  Biso   1.000  H
  C533     1.0000 0.36850  0.04270  0.58150  Biso   1.000  C
  C534     1.0000 0.48300  0.13520  0.62440  Biso   1.000  C
  H357     1.0000 0.49030  0.15980  0.65160  Biso   1.000  H
  C535     1.0000 0.42080  0.07180  0.58050  Biso   1.000  C
  O86      1.0000 0.61640  0.14060  0.54670  Biso   1.000  O
  C536     1.0000 0.51080  0.09220  0.53870  Biso   1.000  C
  H358     1.0000 0.53730  0.08660  0.50980  Biso   1.000  H
  C537     1.0000 0.17940  0.82520  0.86380  Biso   1.000  C
  C538     1.0000 0.19040  0.90220  0.70150  Biso   1.000  C
  C539     1.0000 0.80930  0.15840  0.60510  Biso   1.000  C
  C540     1.0000 0.22670  0.88540  0.80710  Biso   1.000  C
  H359     1.0000 0.25590  0.90870  0.80590  Biso   1.000  H
  C541     1.0000 0.57610  0.15180  0.57990  Biso   1.000  C
  C542     1.0000 0.45830  0.06660  0.53770  Biso   1.000  C
  H360     1.0000 0.44880  0.04540  0.50670  Biso   1.000  H
  C543     1.0000 0.29510  0.00330  0.63210  Biso   1.000  C
  H361     1.0000 0.27980  0.99700  0.66840  Biso   1.000  H
  C544     1.0000 0.34390  0.03310  0.63240  Biso   1.000  C
  H362     1.0000 0.35980  0.04660  0.66800  Biso   1.000  H
  C545     1.0000 0.29050  0.99500  0.53590  Biso   1.000  C
  H363     1.0000 0.27210  0.98210  0.50090  Biso   1.000  H
  C546     1.0000 0.17940  0.82390  0.32080  Biso   1.000  C
  C547     1.0000 0.13160  0.85180  0.33010  Biso   1.000  C
  H364     1.0000 0.09820  0.85200  0.30250  Biso   1.000  H
  C548     1.0000 0.13240  0.87950  0.37970  Biso   1.000  C
  H365     1.0000 0.09980  0.89860  0.38600  Biso   1.000  H
  C549     1.0000 0.18120  0.87920  0.42010  Biso   1.000  C
  C550     1.0000 0.22900  0.85130  0.41080  Biso   1.000  C
  H366     1.0000 0.26230  0.85110  0.43840  Biso   1.000  H
  C551     1.0000 0.22810  0.82360  0.36120  Biso   1.000  C
  H367     1.0000 0.26080  0.80450  0.35480  Biso   1.000  H
  C552     1.0000 0.33810  0.02450  0.53190  Biso   1.000  C
  H368     1.0000 0.35000  0.03230  0.49460  Biso   1.000  H
  C553     1.0000 0.88780  0.11080  0.64790  Biso   1.000  C
  H369     1.0000 0.87520  0.11760  0.68530  Biso   1.000  H
  C554     1.0000 0.88690  0.11980  0.55170  Biso   1.000  C
  H370     1.0000 0.87060  0.13290  0.51610  Biso   1.000  H
  N46      1.0000 0.18460  0.73830  0.01510  Biso   1.000  N
  C555     1.0000 0.17960  0.79660  0.91550  Biso   1.000  C
  C556     1.0000 0.12950  0.77800  0.93470  Biso   1.000  C
  H371     1.0000 0.09210  0.78360  0.91480  Biso   1.000  H
  C557     1.0000 0.23080  0.78400  0.94820  Biso   1.000  C
  H372     1.0000 0.26690  0.79550  0.93670  Biso   1.000  H
  C558     1.0000 0.23190  0.75640  0.99500  Biso   1.000  C
  H373     1.0000 0.26890  0.74940  0.01500  Biso   1.000  H
  C559     1.0000 0.13660  0.74980  0.98630  Biso   1.000  C
  H374     1.0000 0.10170  0.73830  0.00060  Biso   1.000  H
  C560     1.0000 0.23650  0.74660  0.20680  Biso   1.000  C
  H375     1.0000 0.27210  0.73220  0.19840  Biso   1.000  H
  N47      1.0000 0.18630  0.74080  0.16920  Biso   1.000  N
  C561     1.0000 0.13420  0.76190  0.18150  Biso   1.000  C
  H376     1.0000 0.09990  0.75800  0.15580  Biso   1.000  H
  C562     1.0000 0.13230  0.78880  0.23150  Biso   1.000  C
  H377     1.0000 0.09670  0.80320  0.24000  Biso   1.000  H
  C563     1.0000 0.18250  0.79460  0.26920  Biso   1.000  C
  C564     1.0000 0.23460  0.77350  0.25690  Biso   1.000  C
  H378     1.0000 0.26890  0.77750  0.28260  Biso   1.000  H
  N48      1.0000 0.11600  0.98550  0.59180  Biso   1.000  N
  C565     1.0000 0.04720  0.04260  0.54630  Biso   1.000  C
  H379     1.0000 0.03750  0.06230  0.51370  Biso   1.000  H
  C566     1.0000 0.96320  0.07260  0.59540  Biso   1.000  C
  C567     1.0000 0.01340  0.04360  0.59430  Biso   1.000  C
  C568     1.0000 0.03410  0.01380  0.64010  Biso   1.000  C
  H380     1.0000 0.01420  0.01390  0.67460  Biso   1.000  H
  C569     1.0000 0.93640  0.08170  0.64300  Biso   1.000  C
  H381     1.0000 0.95190  0.06690  0.67780  Biso   1.000  H
  C570     1.0000 0.09660  0.01190  0.54610  Biso   1.000  C
  H382     1.0000 0.11660  0.01020  0.51160  Biso   1.000  H
  C571     1.0000 0.08210  0.98390  0.63820  Biso   1.000  C
  H383     1.0000 0.09120  0.96250  0.66900  Biso   1.000  H
  C572     1.0000 0.93770  0.09270  0.54840  Biso   1.000  C
  H384     1.0000 0.95370  0.08880  0.51190  Biso   1.000  H
  O87      1.0000 0.76890  0.14390  0.62880  Biso   1.000  O
  O88      1.0000 0.80260  0.19090  0.56720  Biso   1.000  O
