data_EDORIY_charged
_audit_creation_date              2014-07-02
_audit_creation_method            'Materials Studio'
_symmetry_space_group_name_H-M    'P1'
_symmetry_Int_Tables_number       1
_symmetry_cell_setting            triclinic
loop_
_symmetry_equiv_pos_as_xyz
  x,y,z
_cell_length_a                    14.1894
_cell_length_b                    26.7346
_cell_length_c                    27.1323
_cell_angle_alpha                 79.4555
_cell_angle_beta                  74.8418
_cell_angle_gamma                 74.6108
loop_
_atom_site_label
_atom_site_type_symbol
_atom_site_fract_x
_atom_site_fract_y
_atom_site_fract_z
_atom_site_U_iso_or_equiv
_atom_site_adp_type
_atom_site_occupancy
Cu1    Cu    0.94973   0.38893   0.88527   0.01267  Uiso   1.00
Cu2    Cu    0.67796   0.17044   0.98262   0.01267  Uiso   1.00
Cu3    Cu    0.64245   0.17822   0.39588   0.01267  Uiso   1.00
Cu4    Cu    0.22393   0.11107   0.61473   0.01267  Uiso   1.00
Cu5    Cu    0.83102   0.32956   0.51738   0.01267  Uiso   1.00
Cu6    Cu    0.21655   0.32178   0.10412   0.01267  Uiso   1.00
Cu7    Cu    0.05027   0.61107   0.11473   0.01267  Uiso   1.00
Cu8    Cu    0.32204   0.82956   0.01738   0.01267  Uiso   1.00
Cu9    Cu    0.35755   0.82178   0.60412   0.01267  Uiso   1.00
Cu10   Cu    0.77607   0.88893   0.38527   0.01267  Uiso   1.00
Cu11   Cu    0.16898   0.67044   0.48262   0.01267  Uiso   1.00
Cu12   Cu    0.78345   0.67822   0.89588   0.01267  Uiso   1.00
H1     H     0.85580   0.54370   0.76350   0.01267  Uiso   1.00
H2     H     0.87920   0.57370   0.80310   0.01267  Uiso   1.00
H3     H     0.96850   0.54710   0.75950   0.01267  Uiso   1.00
H4     H     0.13620   0.41790   0.89070   0.01267  Uiso   1.00
H5     H     0.29290   0.37530   0.90950   0.01267  Uiso   1.00
H6     H     0.19330   0.24310   0.95270   0.01267  Uiso   1.00
H7     H     0.04730   0.28560   0.92980   0.01267  Uiso   1.00
H8     H     0.87650   0.32080   0.98320   0.01267  Uiso   1.00
H9     H     0.72020   0.31050   0.03610   0.01267  Uiso   1.00
H10    H     0.58870   0.44100   0.95680   0.01267  Uiso   1.00
H11    H     0.74550   0.45120   0.91040   0.01267  Uiso   1.00
H12    H     0.99890   0.11990   0.66390   0.01267  Uiso   1.00
H13    H     0.89240   0.13450   0.74210   0.01267  Uiso   1.00
H14    H     0.09370   0.20220   0.77380   0.01267  Uiso   1.00
H15    H     0.19390   0.18980   0.69400   0.01267  Uiso   1.00
H16    H     0.63120   0.38230   0.58130   0.01267  Uiso   1.00
H17    H     0.49410   0.44000   0.57460   0.01267  Uiso   1.00
H18    H     0.64190   0.49540   0.43340   0.01267  Uiso   1.00
H19    H     0.77960   0.43060   0.44680   0.01267  Uiso   1.00
H20    H     0.59350   0.27470   0.91850   0.01267  Uiso   1.00
H21    H     0.44240   0.32060   0.89780   0.01267  Uiso   1.00
H22    H     0.30550   0.22120   0.00280   0.01267  Uiso   1.00
H23    H     0.45690   0.17390   0.01990   0.01267  Uiso   1.00
H24    H     0.54420   0.21100   0.07300   0.01267  Uiso   1.00
H25    H     0.53980   0.21390   0.15990   0.01267  Uiso   1.00
H26    H     0.83110   0.14070   0.13530   0.01267  Uiso   1.00
H27    H     0.82840   0.13940   0.05040   0.01267  Uiso   1.00
H28    H     0.81020   0.17980   0.29440   0.01267  Uiso   1.00
H29    H     0.82360   0.18020   0.20800   0.01267  Uiso   1.00
H30    H     0.53720   0.16570   0.23990   0.01267  Uiso   1.00
H31    H     0.52780   0.16860   0.32600   0.01267  Uiso   1.00
H32    H     0.70060   0.12610   0.49270   0.01267  Uiso   1.00
H33    H     0.83030   0.10250   0.53010   0.01267  Uiso   1.00
H34    H     0.57200   0.32560   0.09420   0.01267  Uiso   1.00
H35    H     0.85130   0.19910   0.37250   0.01267  Uiso   1.00
H36    H     0.43900   0.14540   0.44360   0.01267  Uiso   1.00
H37    H     0.38100   0.07530   0.49130   0.01267  Uiso   1.00
H38    H     0.66680   0.98960   0.46540   0.01267  Uiso   1.00
H39    H     0.71610   0.06420   0.42180   0.01267  Uiso   1.00
H40    H     0.32650   0.27790   0.36850   0.01267  Uiso   1.00
H41    H     0.29770   0.29080   0.42660   0.01267  Uiso   1.00
H42    H     0.35260   0.32800   0.38160   0.01267  Uiso   1.00
H43    H     0.81110   0.09070   0.92070   0.01267  Uiso   1.00
H44    H     0.91860   0.08940   0.83900   0.01267  Uiso   1.00
H45    H     0.89800   0.24470   0.83050   0.01267  Uiso   1.00
H46    H     0.79040   0.24600   0.91220   0.01267  Uiso   1.00
H47    H     0.16300   0.95630   0.73650   0.01267  Uiso   1.00
H48    H     0.25600   0.92630   0.69690   0.01267  Uiso   1.00
H49    H     0.27510   0.95290   0.74050   0.01267  Uiso   1.00
H50    H     0.44480   0.08210   0.60930   0.01267  Uiso   1.00
H51    H     0.57770   0.12470   0.59050   0.01267  Uiso   1.00
H52    H     0.38910   0.25690   0.54730   0.01267  Uiso   1.00
H53    H     0.26270   0.21440   0.57020   0.01267  Uiso   1.00
H54    H     0.18050   0.17920   0.51680   0.01267  Uiso   1.00
H55    H     0.06680   0.18950   0.46390   0.01267  Uiso   1.00
H56    H     0.98650   0.05900   0.54320   0.01267  Uiso   1.00
H57    H     0.10710   0.04880   0.58960   0.01267  Uiso   1.00
H58    H     0.78270   0.38010   0.83610   0.01267  Uiso   1.00
H59    H     0.76900   0.36550   0.75790   0.01267  Uiso   1.00
H60    H     0.06970   0.29780   0.72620   0.01267  Uiso   1.00
H61    H     0.07770   0.31020   0.80600   0.01267  Uiso   1.00
H62    H     0.59480   0.11770   0.91870   0.01267  Uiso   1.00
H63    H     0.50870   0.06000   0.92540   0.01267  Uiso   1.00
H64    H     0.57070   0.00460   0.06660   0.01267  Uiso   1.00
H65    H     0.65700   0.06940   0.05320   0.01267  Uiso   1.00
H66    H     0.78670   0.22530   0.58150   0.01267  Uiso   1.00
H67    H     0.66080   0.17940   0.60220   0.01267  Uiso   1.00
H68    H     0.52950   0.27880   0.49720   0.01267  Uiso   1.00
H69    H     0.65070   0.32610   0.48010   0.01267  Uiso   1.00
H70    H     0.82820   0.28900   0.42700   0.01267  Uiso   1.00
H71    H     0.91360   0.28610   0.34010   0.01267  Uiso   1.00
H72    H     0.10710   0.35930   0.36470   0.01267  Uiso   1.00
H73    H     0.01820   0.36060   0.44960   0.01267  Uiso   1.00
H74    H     0.28440   0.32020   0.20560   0.01267  Uiso   1.00
H75    H     0.21180   0.31980   0.29200   0.01267  Uiso   1.00
H76    H     0.94280   0.33430   0.26010   0.01267  Uiso   1.00
H77    H     0.02240   0.33140   0.17400   0.01267  Uiso   1.00
H78    H     0.31940   0.37390   0.00730   0.01267  Uiso   1.00
H79    H     0.46290   0.39750   0.96990   0.01267  Uiso   1.00
H80    H     0.99180   0.17440   0.40580   0.01267  Uiso   1.00
H81    H     0.42290   0.30090   0.12750   0.01267  Uiso   1.00
H82    H     0.02800   0.35460   0.05640   0.01267  Uiso   1.00
H83    H     0.94760   0.42470   0.00870   0.01267  Uiso   1.00
H84    H     0.12180   0.51040   0.03460   0.01267  Uiso   1.00
H85    H     0.20210   0.43580   0.07820   0.01267  Uiso   1.00
H86    H     0.97290   0.22210   0.13150   0.01267  Uiso   1.00
H87    H     0.01510   0.20920   0.07340   0.01267  Uiso   1.00
H88    H     0.06220   0.17200   0.11840   0.01267  Uiso   1.00
H89    H     0.82250   0.40930   0.57930   0.01267  Uiso   1.00
H90    H     0.84700   0.41060   0.66100   0.01267  Uiso   1.00
H91    H     0.97320   0.25530   0.66950   0.01267  Uiso   1.00
H92    H     0.94860   0.25400   0.58780   0.01267  Uiso   1.00
H93    H     0.14420   0.45630   0.23650   0.01267  Uiso   1.00
H94    H     0.12080   0.42630   0.19690   0.01267  Uiso   1.00
H95    H     0.03150   0.45290   0.24050   0.01267  Uiso   1.00
H96    H     0.86380   0.58210   0.10930   0.01267  Uiso   1.00
H97    H     0.70710   0.62470   0.09050   0.01267  Uiso   1.00
H98    H     0.80670   0.75690   0.04730   0.01267  Uiso   1.00
H99    H     0.95270   0.71440   0.07020   0.01267  Uiso   1.00
H100   H     0.12350   0.67920   0.01680   0.01267  Uiso   1.00
H101   H     0.27980   0.68950   0.96390   0.01267  Uiso   1.00
H102   H     0.41130   0.55900   0.04320   0.01267  Uiso   1.00
H103   H     0.25450   0.54880   0.08960   0.01267  Uiso   1.00
H104   H     0.00110   0.88010   0.33610   0.01267  Uiso   1.00
H105   H     0.10760   0.86550   0.25790   0.01267  Uiso   1.00
H106   H     0.90630   0.79780   0.22620   0.01267  Uiso   1.00
H107   H     0.80610   0.81020   0.30600   0.01267  Uiso   1.00
H108   H     0.36880   0.61770   0.41870   0.01267  Uiso   1.00
H109   H     0.50590   0.56000   0.42540   0.01267  Uiso   1.00
H110   H     0.35810   0.50460   0.56660   0.01267  Uiso   1.00
H111   H     0.22040   0.56940   0.55320   0.01267  Uiso   1.00
H112   H     0.40650   0.72530   0.08150   0.01267  Uiso   1.00
H113   H     0.55760   0.67940   0.10220   0.01267  Uiso   1.00
H114   H     0.69450   0.77880   0.99720   0.01267  Uiso   1.00
H115   H     0.54310   0.82610   0.98010   0.01267  Uiso   1.00
H116   H     0.45580   0.78900   0.92700   0.01267  Uiso   1.00
H117   H     0.46020   0.78610   0.84010   0.01267  Uiso   1.00
H118   H     0.16890   0.85930   0.86470   0.01267  Uiso   1.00
H119   H     0.17160   0.86060   0.94960   0.01267  Uiso   1.00
H120   H     0.18980   0.82020   0.70560   0.01267  Uiso   1.00
H121   H     0.17640   0.81980   0.79200   0.01267  Uiso   1.00
H122   H     0.46280   0.83430   0.76010   0.01267  Uiso   1.00
H123   H     0.47220   0.83140   0.67400   0.01267  Uiso   1.00
H124   H     0.29940   0.87390   0.50730   0.01267  Uiso   1.00
H125   H     0.16970   0.89750   0.46990   0.01267  Uiso   1.00
H126   H     0.42800   0.67440   0.90580   0.01267  Uiso   1.00
H127   H     0.14870   0.80090   0.62750   0.01267  Uiso   1.00
H128   H     0.56100   0.85460   0.55640   0.01267  Uiso   1.00
H129   H     0.61900   0.92470   0.50870   0.01267  Uiso   1.00
H130   H     0.33320   0.01040   0.53460   0.01267  Uiso   1.00
H131   H     0.28390   0.93580   0.57820   0.01267  Uiso   1.00
H132   H     0.67350   0.72210   0.63150   0.01267  Uiso   1.00
H133   H     0.70230   0.70920   0.57340   0.01267  Uiso   1.00
H134   H     0.64740   0.67200   0.61840   0.01267  Uiso   1.00
H135   H     0.18890   0.90930   0.07930   0.01267  Uiso   1.00
H136   H     0.08140   0.91060   0.16100   0.01267  Uiso   1.00
H137   H     0.10200   0.75530   0.16950   0.01267  Uiso   1.00
H138   H     0.20960   0.75400   0.08780   0.01267  Uiso   1.00
H139   H     0.83700   0.04370   0.26350   0.01267  Uiso   1.00
H140   H     0.74400   0.07370   0.30310   0.01267  Uiso   1.00
H141   H     0.72490   0.04710   0.25950   0.01267  Uiso   1.00
H142   H     0.55520   0.91790   0.39070   0.01267  Uiso   1.00
H143   H     0.42230   0.87530   0.40950   0.01267  Uiso   1.00
H144   H     0.61090   0.74310   0.45270   0.01267  Uiso   1.00
H145   H     0.73730   0.78560   0.42980   0.01267  Uiso   1.00
H146   H     0.81950   0.82080   0.48320   0.01267  Uiso   1.00
H147   H     0.93320   0.81050   0.53610   0.01267  Uiso   1.00
H148   H     0.01350   0.94100   0.45680   0.01267  Uiso   1.00
H149   H     0.89290   0.95120   0.41040   0.01267  Uiso   1.00
H150   H     0.21730   0.61990   0.16390   0.01267  Uiso   1.00
H151   H     0.23100   0.63450   0.24210   0.01267  Uiso   1.00
H152   H     0.93030   0.70220   0.27380   0.01267  Uiso   1.00
H153   H     0.92230   0.68980   0.19400   0.01267  Uiso   1.00
H154   H     0.40520   0.88230   0.08130   0.01267  Uiso   1.00
H155   H     0.49130   0.94000   0.07460   0.01267  Uiso   1.00
H156   H     0.42930   0.99540   0.93340   0.01267  Uiso   1.00
H157   H     0.34300   0.93060   0.94680   0.01267  Uiso   1.00
H158   H     0.21330   0.77470   0.41850   0.01267  Uiso   1.00
H159   H     0.33920   0.82060   0.39780   0.01267  Uiso   1.00
H160   H     0.47050   0.72120   0.50280   0.01267  Uiso   1.00
H161   H     0.34930   0.67390   0.51990   0.01267  Uiso   1.00
H162   H     0.17180   0.71100   0.57300   0.01267  Uiso   1.00
H163   H     0.08640   0.71390   0.65990   0.01267  Uiso   1.00
H164   H     0.89290   0.64070   0.63530   0.01267  Uiso   1.00
H165   H     0.98180   0.63940   0.55040   0.01267  Uiso   1.00
H166   H     0.71560   0.67980   0.79440   0.01267  Uiso   1.00
H167   H     0.78820   0.68020   0.70800   0.01267  Uiso   1.00
H168   H     0.05720   0.66570   0.73990   0.01267  Uiso   1.00
H169   H     0.97760   0.66860   0.82600   0.01267  Uiso   1.00
H170   H     0.68060   0.62610   0.99270   0.01267  Uiso   1.00
H171   H     0.53710   0.60250   0.03010   0.01267  Uiso   1.00
H172   H     0.00820   0.82560   0.59420   0.01267  Uiso   1.00
H173   H     0.57710   0.69910   0.87250   0.01267  Uiso   1.00
H174   H     0.97200   0.64540   0.94360   0.01267  Uiso   1.00
H175   H     0.05240   0.57530   0.99130   0.01267  Uiso   1.00
H176   H     0.87820   0.48960   0.96540   0.01267  Uiso   1.00
H177   H     0.79790   0.56420   0.92180   0.01267  Uiso   1.00
H178   H     0.02710   0.77790   0.86850   0.01267  Uiso   1.00
H179   H     0.98490   0.79080   0.92660   0.01267  Uiso   1.00
H180   H     0.93780   0.82800   0.88160   0.01267  Uiso   1.00
H181   H     0.17750   0.59070   0.42070   0.01267  Uiso   1.00
H182   H     0.15300   0.58940   0.33900   0.01267  Uiso   1.00
H183   H     0.02680   0.74470   0.33050   0.01267  Uiso   1.00
H184   H     0.05140   0.74600   0.41220   0.01267  Uiso   1.00
C1     C     0.91950   0.49560   0.81800   0.01267  Uiso   1.00
C2     C     0.90450   0.54400   0.78320   0.01267  Uiso   1.00
C3     C     0.14960   0.38140   0.90160   0.01267  Uiso   1.00
C4     C     0.24280   0.35630   0.91410   0.01267  Uiso   1.00
C5     C     0.26080   0.30320   0.93320   0.01267  Uiso   1.00
C6     C     0.18500   0.27880   0.93880   0.01267  Uiso   1.00
C7     C     0.09770   0.30450   0.92490   0.01267  Uiso   1.00
C8     C     0.81710   0.34600   0.97840   0.01267  Uiso   1.00
C9     C     0.72310   0.33840   0.00880   0.01267  Uiso   1.00
C10    C     0.63670   0.37110   0.99890   0.01267  Uiso   1.00
C11    C     0.64660   0.41530   0.96270   0.01267  Uiso   1.00
C12    C     0.74120   0.42140   0.93540   0.01267  Uiso   1.00
C13    C     0.01710   0.13710   0.68650   0.01267  Uiso   1.00
C14    C     0.95350   0.14560   0.73340   0.01267  Uiso   1.00
C15    C     0.97590   0.17020   0.76880   0.01267  Uiso   1.00
C16    C     0.07300   0.18600   0.75140   0.01267  Uiso   1.00
C17    C     0.13330   0.17800   0.70420   0.01267  Uiso   1.00
C18    C     0.63270   0.40540   0.55020   0.01267  Uiso   1.00
C19    C     0.55160   0.44000   0.54720   0.01267  Uiso   1.00
C20    C     0.54550   0.47930   0.50330   0.01267  Uiso   1.00
C21    C     0.63740   0.47240   0.46480   0.01267  Uiso   1.00
C22    C     0.71950   0.43280   0.47280   0.01267  Uiso   1.00
C23    C     0.53390   0.26340   0.93600   0.01267  Uiso   1.00
C24    C     0.44400   0.29120   0.92340   0.01267  Uiso   1.00
C25    C     0.35950   0.27570   0.94790   0.01267  Uiso   1.00
C26    C     0.36520   0.23220   0.98480   0.01267  Uiso   1.00
C27    C     0.45410   0.20460   0.99580   0.01267  Uiso   1.00
C28    C     0.60340   0.19660   0.08560   0.01267  Uiso   1.00
C29    C     0.60030   0.19790   0.13810   0.01267  Uiso   1.00
C30    C     0.68600   0.17540   0.15820   0.01267  Uiso   1.00
C31    C     0.77020   0.15510   0.12410   0.01267  Uiso   1.00
C32    C     0.76870   0.15490   0.07310   0.01267  Uiso   1.00
C33    C     0.75350   0.17760   0.28320   0.01267  Uiso   1.00
C34    C     0.76170   0.17800   0.23140   0.01267  Uiso   1.00
C35    C     0.68060   0.17510   0.21270   0.01267  Uiso   1.00
C36    C     0.59360   0.17000   0.25000   0.01267  Uiso   1.00
C37    C     0.58880   0.17080   0.30160   0.01267  Uiso   1.00
C38    C     0.76030   0.13700   0.47460   0.01267  Uiso   1.00
C39    C     0.83620   0.12330   0.49750   0.01267  Uiso   1.00
C40    C     0.53860   0.36090   0.02590   0.01267  Uiso   1.00
C41    C     0.52190   0.33440   0.07480   0.01267  Uiso   1.00
C42    C     0.84690   0.17860   0.40520   0.01267  Uiso   1.00
C43    C     0.48630   0.11350   0.44910   0.01267  Uiso   1.00
C44    C     0.45080   0.07170   0.47710   0.01267  Uiso   1.00
C45    C     0.51900   0.02260   0.48500   0.01267  Uiso   1.00
C46    C     0.61770   0.02130   0.46270   0.01267  Uiso   1.00
C47    C     0.64660   0.06650   0.43590   0.01267  Uiso   1.00
C48    C     0.44450   0.26030   0.40130   0.01267  Uiso   1.00
C49    C     0.34730   0.29190   0.39390   0.01267  Uiso   1.00
C50    C     0.82890   0.12180   0.90240   0.01267  Uiso   1.00
C51    C     0.89250   0.12120   0.85380   0.01267  Uiso   1.00
C52    C     0.91800   0.16690   0.82710   0.01267  Uiso   1.00
C53    C     0.87990   0.21340   0.84880   0.01267  Uiso   1.00
C54    C     0.81620   0.21420   0.89740   0.01267  Uiso   1.00
C55    C     0.23310   0.00440   0.68200   0.01267  Uiso   1.00
C56    C     0.23170   0.95600   0.71680   0.01267  Uiso   1.00
C57    C     0.43260   0.11860   0.59840   0.01267  Uiso   1.00
C58    C     0.51320   0.14370   0.58590   0.01267  Uiso   1.00
C59    C     0.49720   0.19680   0.56680   0.01267  Uiso   1.00
C60    C     0.40260   0.22120   0.56120   0.01267  Uiso   1.00
C61    C     0.32710   0.19550   0.57510   0.01267  Uiso   1.00
C62    C     0.14150   0.15400   0.52160   0.01267  Uiso   1.00
C63    C     0.07030   0.16160   0.49120   0.01267  Uiso   1.00
C64    C     0.00670   0.12890   0.50110   0.01267  Uiso   1.00
C65    C     0.02460   0.08470   0.53730   0.01267  Uiso   1.00
C66    C     0.09800   0.07860   0.56460   0.01267  Uiso   1.00
C67    C     0.84070   0.36290   0.81350   0.01267  Uiso   1.00
C68    C     0.83250   0.35440   0.76660   0.01267  Uiso   1.00
C69    C     0.91490   0.32980   0.73120   0.01267  Uiso   1.00
C70    C     0.01040   0.31400   0.74860   0.01267  Uiso   1.00
C71    C     0.01550   0.32200   0.79580   0.01267  Uiso   1.00
C72    C     0.58830   0.09460   0.94980   0.01267  Uiso   1.00
C73    C     0.53880   0.06000   0.95280   0.01267  Uiso   1.00
C74    C     0.52810   0.02070   0.99670   0.01267  Uiso   1.00
C75    C     0.57460   0.02760   0.03520   0.01267  Uiso   1.00
C76    C     0.62510   0.06720   0.02720   0.01267  Uiso   1.00
C77    C     0.73330   0.23660   0.56400   0.01267  Uiso   1.00
C78    C     0.65860   0.20880   0.57660   0.01267  Uiso   1.00
C79    C     0.58310   0.22430   0.55210   0.01267  Uiso   1.00
C80    C     0.58220   0.26780   0.51520   0.01267  Uiso   1.00
C81    C     0.65450   0.29540   0.50420   0.01267  Uiso   1.00
C82    C     0.88560   0.30340   0.41440   0.01267  Uiso   1.00
C83    C     0.93630   0.30210   0.36190   0.01267  Uiso   1.00
C84    C     0.01960   0.32460   0.34180   0.01267  Uiso   1.00
C85    C     0.04940   0.34490   0.37590   0.01267  Uiso   1.00
C86    C     0.99670   0.34510   0.42690   0.01267  Uiso   1.00
C87    C     0.21430   0.32240   0.21680   0.01267  Uiso   1.00
C88    C     0.17110   0.32200   0.26860   0.01267  Uiso   1.00
C89    C     0.06840   0.32490   0.28730   0.01267  Uiso   1.00
C90    C     0.01360   0.33000   0.25000   0.01267  Uiso   1.00
C91    C     0.06120   0.32920   0.19840   0.01267  Uiso   1.00
C92    C     0.37190   0.36300   0.02540   0.01267  Uiso   1.00
C93    C     0.45700   0.37670   0.00250   0.01267  Uiso   1.00
C94    C     0.92540   0.13910   0.47410   0.01267  Uiso   1.00
C95    C     0.93110   0.16560   0.42520   0.01267  Uiso   1.00
C96    C     0.43070   0.32140   0.09480   0.01267  Uiso   1.00
C97    C     0.04890   0.38650   0.05090   0.01267  Uiso   1.00
C98    C     0.99960   0.42830   0.02290   0.01267  Uiso   1.00
C99    C     0.02660   0.47740   0.01500   0.01267  Uiso   1.00
C100   C     0.10170   0.47870   0.03730   0.01267  Uiso   1.00
C101   C     0.14900   0.43350   0.06410   0.01267  Uiso   1.00
C102   C     0.10610   0.23970   0.09870   0.01267  Uiso   1.00
C103   C     0.03310   0.20810   0.10610   0.01267  Uiso   1.00
C104   C     0.85310   0.37820   0.59760   0.01267  Uiso   1.00
C105   C     0.86750   0.37880   0.64620   0.01267  Uiso   1.00
C106   C     0.91200   0.33310   0.67290   0.01267  Uiso   1.00
C107   C     0.94210   0.28660   0.65120   0.01267  Uiso   1.00
C108   C     0.92780   0.28580   0.60260   0.01267  Uiso   1.00
C109   C     0.08050   0.50440   0.18200   0.01267  Uiso   1.00
C110   C     0.09550   0.45600   0.21680   0.01267  Uiso   1.00
C111   C     0.85040   0.61860   0.09840   0.01267  Uiso   1.00
C112   C     0.75720   0.64370   0.08590   0.01267  Uiso   1.00
C113   C     0.73920   0.69680   0.06680   0.01267  Uiso   1.00
C114   C     0.81500   0.72120   0.06120   0.01267  Uiso   1.00
C115   C     0.90230   0.69550   0.07510   0.01267  Uiso   1.00
C116   C     0.18290   0.65400   0.02160   0.01267  Uiso   1.00
C117   C     0.27690   0.66160   0.99120   0.01267  Uiso   1.00
C118   C     0.36330   0.62890   0.00110   0.01267  Uiso   1.00
C119   C     0.35340   0.58470   0.03730   0.01267  Uiso   1.00
C120   C     0.25880   0.57860   0.06460   0.01267  Uiso   1.00
C121   C     0.98290   0.86290   0.31350   0.01267  Uiso   1.00
C122   C     0.04650   0.85440   0.26660   0.01267  Uiso   1.00
C123   C     0.02410   0.82980   0.23120   0.01267  Uiso   1.00
C124   C     0.92700   0.81400   0.24860   0.01267  Uiso   1.00
C125   C     0.86670   0.82200   0.29580   0.01267  Uiso   1.00
C126   C     0.36730   0.59460   0.44980   0.01267  Uiso   1.00
C127   C     0.44840   0.56000   0.45280   0.01267  Uiso   1.00
C128   C     0.45450   0.52070   0.49670   0.01267  Uiso   1.00
C129   C     0.36260   0.52760   0.53520   0.01267  Uiso   1.00
C130   C     0.28050   0.56720   0.52720   0.01267  Uiso   1.00
C131   C     0.46610   0.73660   0.06400   0.01267  Uiso   1.00
C132   C     0.55600   0.70880   0.07660   0.01267  Uiso   1.00
C133   C     0.64050   0.72430   0.05210   0.01267  Uiso   1.00
C134   C     0.63480   0.76780   0.01520   0.01267  Uiso   1.00
C135   C     0.54590   0.79540   0.00420   0.01267  Uiso   1.00
C136   C     0.39660   0.80340   0.91440   0.01267  Uiso   1.00
C137   C     0.39970   0.80210   0.86190   0.01267  Uiso   1.00
C138   C     0.31400   0.82460   0.84180   0.01267  Uiso   1.00
C139   C     0.22980   0.84490   0.87590   0.01267  Uiso   1.00
C140   C     0.23130   0.84510   0.92690   0.01267  Uiso   1.00
C141   C     0.24650   0.82240   0.71680   0.01267  Uiso   1.00
C142   C     0.23830   0.82200   0.76860   0.01267  Uiso   1.00
C143   C     0.31940   0.82490   0.78730   0.01267  Uiso   1.00
C144   C     0.40640   0.83000   0.75000   0.01267  Uiso   1.00
C145   C     0.41120   0.82920   0.69840   0.01267  Uiso   1.00
C146   C     0.23970   0.86300   0.52540   0.01267  Uiso   1.00
C147   C     0.16380   0.87670   0.50250   0.01267  Uiso   1.00
C148   C     0.46140   0.63910   0.97410   0.01267  Uiso   1.00
C149   C     0.47810   0.66560   0.92520   0.01267  Uiso   1.00
C150   C     0.15310   0.82140   0.59480   0.01267  Uiso   1.00
C151   C     0.51370   0.88650   0.55090   0.01267  Uiso   1.00
C152   C     0.54920   0.92830   0.52290   0.01267  Uiso   1.00
C153   C     0.48100   0.97740   0.51500   0.01267  Uiso   1.00
C154   C     0.38230   0.97870   0.53730   0.01267  Uiso   1.00
C155   C     0.35340   0.93350   0.56410   0.01267  Uiso   1.00
C156   C     0.55550   0.73970   0.59870   0.01267  Uiso   1.00
C157   C     0.65270   0.70810   0.60610   0.01267  Uiso   1.00
C158   C     0.17110   0.87820   0.09760   0.01267  Uiso   1.00
C159   C     0.10750   0.87880   0.14620   0.01267  Uiso   1.00
C160   C     0.08200   0.83310   0.17290   0.01267  Uiso   1.00
C161   C     0.12010   0.78660   0.15120   0.01267  Uiso   1.00
C162   C     0.18380   0.78580   0.10260   0.01267  Uiso   1.00
C163   C     0.76690   0.99560   0.31800   0.01267  Uiso   1.00
C164   C     0.76830   0.04400   0.28320   0.01267  Uiso   1.00
C165   C     0.56740   0.88140   0.40160   0.01267  Uiso   1.00
C166   C     0.48680   0.85630   0.41410   0.01267  Uiso   1.00
C167   C     0.50280   0.80320   0.43320   0.01267  Uiso   1.00
C168   C     0.59740   0.77880   0.43880   0.01267  Uiso   1.00
C169   C     0.67290   0.80450   0.42490   0.01267  Uiso   1.00
C170   C     0.85850   0.84600   0.47840   0.01267  Uiso   1.00
C171   C     0.92970   0.83840   0.50880   0.01267  Uiso   1.00
C172   C     0.99330   0.87110   0.49890   0.01267  Uiso   1.00
C173   C     0.97540   0.91530   0.46270   0.01267  Uiso   1.00
C174   C     0.90200   0.92140   0.43540   0.01267  Uiso   1.00
C175   C     0.15930   0.63710   0.18650   0.01267  Uiso   1.00
C176   C     0.16750   0.64560   0.23340   0.01267  Uiso   1.00
C177   C     0.08510   0.67020   0.26880   0.01267  Uiso   1.00
C178   C     0.98960   0.68600   0.25140   0.01267  Uiso   1.00
C179   C     0.98450   0.67800   0.20420   0.01267  Uiso   1.00
C180   C     0.41170   0.90540   0.05020   0.01267  Uiso   1.00
C181   C     0.46120   0.94000   0.04720   0.01267  Uiso   1.00
C182   C     0.47190   0.97930   0.00330   0.01267  Uiso   1.00
C183   C     0.42540   0.97240   0.96480   0.01267  Uiso   1.00
C184   C     0.37490   0.93280   0.97280   0.01267  Uiso   1.00
C185   C     0.26670   0.76340   0.43600   0.01267  Uiso   1.00
C186   C     0.34140   0.79120   0.42340   0.01267  Uiso   1.00
C187   C     0.41690   0.77570   0.44790   0.01267  Uiso   1.00
C188   C     0.41780   0.73220   0.48480   0.01267  Uiso   1.00
C189   C     0.34550   0.70460   0.49580   0.01267  Uiso   1.00
C190   C     0.11440   0.69660   0.58560   0.01267  Uiso   1.00
C191   C     0.06370   0.69790   0.63810   0.01267  Uiso   1.00
C192   C     0.98040   0.67540   0.65820   0.01267  Uiso   1.00
C193   C     0.95060   0.65510   0.62410   0.01267  Uiso   1.00
C194   C     0.00330   0.65490   0.57310   0.01267  Uiso   1.00
C195   C     0.78570   0.67760   0.78320   0.01267  Uiso   1.00
C196   C     0.82890   0.67800   0.73140   0.01267  Uiso   1.00
C197   C     0.93160   0.67510   0.71270   0.01267  Uiso   1.00
C198   C     0.98640   0.67000   0.75000   0.01267  Uiso   1.00
C199   C     0.93880   0.67080   0.80160   0.01267  Uiso   1.00
C200   C     0.62810   0.63700   0.97460   0.01267  Uiso   1.00
C201   C     0.54300   0.62330   0.99750   0.01267  Uiso   1.00
C202   C     0.07460   0.86090   0.52590   0.01267  Uiso   1.00
C203   C     0.06890   0.83440   0.57480   0.01267  Uiso   1.00
C204   C     0.56930   0.67860   0.90520   0.01267  Uiso   1.00
C205   C     0.95110   0.61350   0.94910   0.01267  Uiso   1.00
C206   C     0.00040   0.57170   0.97710   0.01267  Uiso   1.00
C207   C     0.97340   0.52260   0.98500   0.01267  Uiso   1.00
C208   C     0.89830   0.52130   0.96270   0.01267  Uiso   1.00
C209   C     0.85100   0.56650   0.93590   0.01267  Uiso   1.00
C210   C     0.89390   0.76030   0.90130   0.01267  Uiso   1.00
C211   C     0.96690   0.79190   0.89390   0.01267  Uiso   1.00
C212   C     0.14690   0.62180   0.40240   0.01267  Uiso   1.00
C213   C     0.13250   0.62120   0.35380   0.01267  Uiso   1.00
C214   C     0.08800   0.66690   0.32710   0.01267  Uiso   1.00
C215   C     0.05790   0.71340   0.34880   0.01267  Uiso   1.00
C216   C     0.07220   0.71420   0.39740   0.01267  Uiso   1.00
N1     N     0.93260   0.45760   0.84420   0.01267  Uiso   1.00
N2     N     0.07830   0.35470   0.90470   0.01267  Uiso   1.00
N3     N     0.82440   0.38870   0.94230   0.01267  Uiso   1.00
N4     N     0.10840   0.15290   0.67090   0.01267  Uiso   1.00
N5     N     0.72010   0.39770   0.51430   0.01267  Uiso   1.00
N6     N     0.54000   0.22170   0.97170   0.01267  Uiso   1.00
N7     N     0.68500   0.17610   0.05470   0.01267  Uiso   1.00
N8     N     0.66870   0.17450   0.31830   0.01267  Uiso   1.00
N9     N     0.75980   0.16520   0.42720   0.01267  Uiso   1.00
N10    N     0.58440   0.11230   0.42870   0.01267  Uiso   1.00
N11    N     0.51930   0.23480   0.40500   0.01267  Uiso   1.00
N12    N     0.79060   0.16840   0.92420   0.01267  Uiso   1.00
N13    N     0.23440   0.04240   0.65580   0.01267  Uiso   1.00
N14    N     0.33770   0.14530   0.59530   0.01267  Uiso   1.00
N15    N     0.15540   0.11130   0.55770   0.01267  Uiso   1.00
N16    N     0.93220   0.34710   0.82910   0.01267  Uiso   1.00
N17    N     0.63210   0.10230   0.98570   0.01267  Uiso   1.00
N18    N     0.73340   0.27830   0.52830   0.01267  Uiso   1.00
N19    N     0.91580   0.32390   0.44530   0.01267  Uiso   1.00
N20    N     0.16150   0.32550   0.18170   0.01267  Uiso   1.00
N21    N     0.35220   0.33480   0.07280   0.01267  Uiso   1.00
N22    N     0.12540   0.38770   0.07130   0.01267  Uiso   1.00
N23    N     0.15910   0.26520   0.09500   0.01267  Uiso   1.00
N24    N     0.88320   0.33160   0.57580   0.01267  Uiso   1.00
N25    N     0.06740   0.54240   0.15580   0.01267  Uiso   1.00
N26    N     0.92170   0.64530   0.09530   0.01267  Uiso   1.00
N27    N     0.17560   0.61130   0.05770   0.01267  Uiso   1.00
N28    N     0.89160   0.84710   0.32910   0.01267  Uiso   1.00
N29    N     0.27990   0.60230   0.48570   0.01267  Uiso   1.00
N30    N     0.46000   0.77830   0.02830   0.01267  Uiso   1.00
N31    N     0.31500   0.82390   0.94530   0.01267  Uiso   1.00
N32    N     0.33130   0.82550   0.68170   0.01267  Uiso   1.00
N33    N     0.24020   0.83480   0.57280   0.01267  Uiso   1.00
N34    N     0.41560   0.88770   0.57130   0.01267  Uiso   1.00
N35    N     0.48070   0.76520   0.59500   0.01267  Uiso   1.00
N36    N     0.20940   0.83160   0.07580   0.01267  Uiso   1.00
N37    N     0.76560   0.95760   0.34420   0.01267  Uiso   1.00
N38    N     0.66230   0.85470   0.40470   0.01267  Uiso   1.00
N39    N     0.84460   0.88870   0.44230   0.01267  Uiso   1.00
N40    N     0.06780   0.65290   0.17090   0.01267  Uiso   1.00
N41    N     0.36790   0.89770   0.01430   0.01267  Uiso   1.00
N42    N     0.26660   0.72170   0.47170   0.01267  Uiso   1.00
N43    N     0.08420   0.67610   0.55470   0.01267  Uiso   1.00
N44    N     0.83850   0.67450   0.81830   0.01267  Uiso   1.00
N45    N     0.64780   0.66520   0.92720   0.01267  Uiso   1.00
N46    N     0.87460   0.61230   0.92870   0.01267  Uiso   1.00
N47    N     0.84090   0.73480   0.90500   0.01267  Uiso   1.00
N48    N     0.11680   0.66840   0.42420   0.01267  Uiso   1.00
P1     P     0.57909   0.44732   0.23530   0.01267  Uiso   1.00
W1     W     0.66009   0.56105   0.24259   0.01267  Uiso   1.00
W2     W     0.82624   0.46359   0.17767   0.01267  Uiso   1.00
W3     W     0.47294   0.56681   0.16739   0.01267  Uiso   1.00
W4     W     0.40523   0.54334   0.30928   0.01267  Uiso   1.00
W5     W     0.75599   0.44482   0.30902   0.01267  Uiso   1.00
W6     W     0.64456   0.47294   0.09882   0.01267  Uiso   1.00
W7     W     0.50142   0.42501   0.37233   0.01267  Uiso   1.00
W8     W     0.74915   0.34510   0.16674   0.01267  Uiso   1.00
W9     W     0.40874   0.45493   0.15697   0.01267  Uiso   1.00
W10    W     0.33185   0.43451   0.29893   0.01267  Uiso   1.00
W11    W     0.68547   0.32404   0.29844   0.01267  Uiso   1.00
W12    W     0.51355   0.32955   0.22895   0.01267  Uiso   1.00
O1     O     0.67550   0.62080   0.24520   0.01267  Uiso   1.00
O2     O     0.72370   0.51880   0.29580   0.01267  Uiso   1.00
O3     O     0.53340   0.55740   0.29180   0.01267  Uiso   1.00
O4     O     0.58370   0.57450   0.19170   0.01267  Uiso   1.00
O5     O     0.77800   0.53460   0.19420   0.01267  Uiso   1.00
O6     O     0.66660   0.46950   0.23910   0.01267  Uiso   1.00
O7     O     0.93970   0.46640   0.14040   0.01267  Uiso   1.00
O8     O     0.85340   0.44500   0.24460   0.01267  Uiso   1.00
O9     O     0.74320   0.48340   0.12860   0.01267  Uiso   1.00
O10    O     0.81640   0.39440   0.17660   0.01267  Uiso   1.00
O11    O     0.42210   0.62870   0.14450   0.01267  Uiso   1.00
O12    O     0.57020   0.54280   0.10780   0.01267  Uiso   1.00
O13    O     0.38750   0.53020   0.15160   0.01267  Uiso   1.00
O14    O     0.40510   0.56190   0.23710   0.01267  Uiso   1.00
O15    O     0.54320   0.47340   0.18720   0.01267  Uiso   1.00
O16    O     0.33140   0.59800   0.33460   0.01267  Uiso   1.00
O17    O     0.30650   0.50400   0.31240   0.01267  Uiso   1.00
O18    O     0.43660   0.49780   0.36800   0.01267  Uiso   1.00
O19    O     0.49240   0.45790   0.28250   0.01267  Uiso   1.00
O20    O     0.83140   0.43450   0.35130   0.01267  Uiso   1.00
O21    O     0.75260   0.37590   0.30030   0.01267  Uiso   1.00
O22    O     0.62520   0.44670   0.35230   0.01267  Uiso   1.00
O23    O     0.69990   0.47820   0.03480   0.01267  Uiso   1.00
O24    O     0.69000   0.39950   0.12250   0.01267  Uiso   1.00
O25    O     0.51880   0.45710   0.10030   0.01267  Uiso   1.00
O26    O     0.48850   0.40760   0.43720   0.01267  Uiso   1.00
O27    O     0.57500   0.36230   0.34450   0.01267  Uiso   1.00
O28    O     0.38160   0.41430   0.36130   0.01267  Uiso   1.00
O29    O     0.84010   0.30700   0.12580   0.01267  Uiso   1.00
O30    O     0.76870   0.30950   0.23370   0.01267  Uiso   1.00
O31    O     0.63650   0.31450   0.17850   0.01267  Uiso   1.00
O32    O     0.61470   0.38800   0.23300   0.01267  Uiso   1.00
O33    O     0.31760   0.44980   0.12940   0.01267  Uiso   1.00
O34    O     0.33980   0.45670   0.22750   0.01267  Uiso   1.00
O35    O     0.46720   0.38500   0.17860   0.01267  Uiso   1.00
O36    O     0.21520   0.42210   0.31970   0.01267  Uiso   1.00
O37    O     0.41570   0.36960   0.27720   0.01267  Uiso   1.00
O38    O     0.73420   0.27310   0.33850   0.01267  Uiso   1.00
O39    O     0.58870   0.29700   0.27980   0.01267  Uiso   1.00
O40    O     0.45800   0.28180   0.22420   0.01267  Uiso   1.00
P2     P     0.26171   0.05268   0.26470   0.01267  Uiso   1.00
W13    W     0.46373   0.93895   0.25741   0.01267  Uiso   1.00
W14    W     0.46750   0.03641   0.32233   0.01267  Uiso   1.00
W15    W     0.20714   0.93319   0.33261   0.01267  Uiso   1.00
W16    W     0.25785   0.95666   0.19072   0.01267  Uiso   1.00
W17    W     0.50983   0.05518   0.19098   0.01267  Uiso   1.00
W18    W     0.21632   0.02706   0.40118   0.01267  Uiso   1.00
W19    W     0.29876   0.07499   0.12767   0.01267  Uiso   1.00
W20    W     0.26099   0.15490   0.33326   0.01267  Uiso   1.00
W21    W     0.02064   0.04507   0.34303   0.01267  Uiso   1.00
W22    W     0.06529   0.06549   0.20107   0.01267  Uiso   1.00
W23    W     0.30795   0.17596   0.20156   0.01267  Uiso   1.00
W24    W     0.07205   0.17045   0.27105   0.01267  Uiso   1.00
O41    O     0.54150   0.87920   0.25480   0.01267  Uiso   1.00
O42    O     0.53830   0.98120   0.20420   0.01267  Uiso   1.00
O43    O     0.38260   0.94260   0.20820   0.01267  Uiso   1.00
O44    O     0.34990   0.92550   0.30830   0.01267  Uiso   1.00
O45    O     0.50680   0.96540   0.30580   0.01267  Uiso   1.00
O46    O     0.37520   0.03050   0.26090   0.01267  Uiso   1.00
O47    O     0.54650   0.03360   0.35960   0.01267  Uiso   1.00
O48    O     0.54300   0.05500   0.25540   0.01267  Uiso   1.00
O49    O     0.35520   0.01660   0.37140   0.01267  Uiso   1.00
O50    O     0.38740   0.10560   0.32340   0.01267  Uiso   1.00
O51    O     0.19530   0.87130   0.35550   0.01267  Uiso   1.00
O52    O     0.22080   0.95720   0.39220   0.01267  Uiso   1.00
O53    O     0.06930   0.96980   0.34840   0.01267  Uiso   1.00
O54    O     0.20410   0.93810   0.26290   0.01267  Uiso   1.00
O55    O     0.20380   0.02660   0.31280   0.01267  Uiso   1.00
O56    O     0.26400   0.90200   0.16540   0.01267  Uiso   1.00
O57    O     0.12290   0.99600   0.18760   0.01267  Uiso   1.00
O58    O     0.30240   0.00220   0.13200   0.01267  Uiso   1.00
O59    O     0.23280   0.04210   0.21750   0.01267  Uiso   1.00
O60    O     0.61720   0.06550   0.14870   0.01267  Uiso   1.00
O61    O     0.42880   0.12410   0.19970   0.01267  Uiso   1.00
O62    O     0.42420   0.05330   0.14770   0.01267  Uiso   1.00
O63    O     0.21290   0.02180   0.46520   0.01267  Uiso   1.00
O64    O     0.21200   0.10050   0.37750   0.01267  Uiso   1.00
O65    O     0.07620   0.04290   0.39970   0.01267  Uiso   1.00
O66    O     0.33330   0.09240   0.06280   0.01267  Uiso   1.00
O67    O     0.28180   0.13770   0.15550   0.01267  Uiso   1.00
O68    O     0.15720   0.08570   0.13870   0.01267  Uiso   1.00
O69    O     0.27290   0.19300   0.37420   0.01267  Uiso   1.00
O70    O     0.31190   0.19050   0.26630   0.01267  Uiso   1.00
O71    O     0.12950   0.18550   0.32150   0.01267  Uiso   1.00
O72    O     0.23570   0.11200   0.26700   0.01267  Uiso   1.00
O73    O     0.89680   0.05020   0.37060   0.01267  Uiso   1.00
O74    O     0.02400   0.04330   0.27250   0.01267  Uiso   1.00
O75    O     0.03080   0.11500   0.32140   0.01267  Uiso   1.00
O76    O     0.95700   0.07790   0.18030   0.01267  Uiso   1.00
O77    O     0.06250   0.13040   0.22280   0.01267  Uiso   1.00
O78    O     0.34580   0.22690   0.16150   0.01267  Uiso   1.00
O79    O     0.16550   0.20300   0.22020   0.01267  Uiso   1.00
O80    O     0.96400   0.21820   0.27580   0.01267  Uiso   1.00
P3     P     0.42091   0.55268   0.76470   0.01267  Uiso   1.00
W25    W     0.33991   0.43895   0.75741   0.01267  Uiso   1.00
W26    W     0.17376   0.53641   0.82233   0.01267  Uiso   1.00
W27    W     0.52706   0.43319   0.83261   0.01267  Uiso   1.00
W28    W     0.59477   0.45666   0.69072   0.01267  Uiso   1.00
W29    W     0.24401   0.55518   0.69098   0.01267  Uiso   1.00
W30    W     0.35544   0.52706   0.90118   0.01267  Uiso   1.00
W31    W     0.49858   0.57499   0.62767   0.01267  Uiso   1.00
W32    W     0.25085   0.65490   0.83326   0.01267  Uiso   1.00
W33    W     0.59126   0.54507   0.84303   0.01267  Uiso   1.00
W34    W     0.66815   0.56549   0.70107   0.01267  Uiso   1.00
W35    W     0.31453   0.67596   0.70156   0.01267  Uiso   1.00
W36    W     0.48645   0.67045   0.77105   0.01267  Uiso   1.00
O81    O     0.32450   0.37920   0.75480   0.01267  Uiso   1.00
O82    O     0.27630   0.48120   0.70420   0.01267  Uiso   1.00
O83    O     0.46660   0.44260   0.70820   0.01267  Uiso   1.00
O84    O     0.41630   0.42550   0.80830   0.01267  Uiso   1.00
O85    O     0.22200   0.46540   0.80580   0.01267  Uiso   1.00
O86    O     0.33340   0.53050   0.76090   0.01267  Uiso   1.00
O87    O     0.06030   0.53360   0.85960   0.01267  Uiso   1.00
O88    O     0.14660   0.55500   0.75540   0.01267  Uiso   1.00
O89    O     0.25680   0.51660   0.87140   0.01267  Uiso   1.00
O90    O     0.18360   0.60560   0.82340   0.01267  Uiso   1.00
O91    O     0.57790   0.37130   0.85550   0.01267  Uiso   1.00
O92    O     0.42980   0.45720   0.89220   0.01267  Uiso   1.00
O93    O     0.61250   0.46980   0.84840   0.01267  Uiso   1.00
O94    O     0.59490   0.43810   0.76290   0.01267  Uiso   1.00
O95    O     0.45680   0.52660   0.81280   0.01267  Uiso   1.00
O96    O     0.66860   0.40200   0.66540   0.01267  Uiso   1.00
O97    O     0.69350   0.49600   0.68760   0.01267  Uiso   1.00
O98    O     0.56340   0.50220   0.63200   0.01267  Uiso   1.00
O99    O     0.50760   0.54210   0.71750   0.01267  Uiso   1.00
O100   O     0.16860   0.56550   0.64870   0.01267  Uiso   1.00
O101   O     0.24740   0.62410   0.69970   0.01267  Uiso   1.00
O102   O     0.37480   0.55330   0.64770   0.01267  Uiso   1.00
O103   O     0.30010   0.52180   0.96520   0.01267  Uiso   1.00
O104   O     0.31000   0.60050   0.87750   0.01267  Uiso   1.00
O105   O     0.48120   0.54290   0.89970   0.01267  Uiso   1.00
O106   O     0.51150   0.59240   0.56280   0.01267  Uiso   1.00
O107   O     0.42500   0.63770   0.65550   0.01267  Uiso   1.00
O108   O     0.61840   0.58570   0.63870   0.01267  Uiso   1.00
O109   O     0.15990   0.69300   0.87420   0.01267  Uiso   1.00
O110   O     0.23130   0.69050   0.76630   0.01267  Uiso   1.00
O111   O     0.36350   0.68550   0.82150   0.01267  Uiso   1.00
O112   O     0.38530   0.61200   0.76700   0.01267  Uiso   1.00
O113   O     0.68240   0.55020   0.87060   0.01267  Uiso   1.00
O114   O     0.66020   0.54330   0.77250   0.01267  Uiso   1.00
O115   O     0.53280   0.61500   0.82140   0.01267  Uiso   1.00
O116   O     0.78480   0.57790   0.68030   0.01267  Uiso   1.00
O117   O     0.58430   0.63040   0.72280   0.01267  Uiso   1.00
O118   O     0.26580   0.72690   0.66150   0.01267  Uiso   1.00
O119   O     0.41130   0.70300   0.72020   0.01267  Uiso   1.00
O120   O     0.54200   0.71820   0.77580   0.01267  Uiso   1.00
P4     P     0.73829   0.94732   0.73530   0.01267  Uiso   1.00
W37    W     0.53627   0.06105   0.74259   0.01267  Uiso   1.00
W38    W     0.53250   0.96359   0.67767   0.01267  Uiso   1.00
W39    W     0.79286   0.06681   0.66739   0.01267  Uiso   1.00
W40    W     0.74215   0.04334   0.80928   0.01267  Uiso   1.00
W41    W     0.49017   0.94482   0.80902   0.01267  Uiso   1.00
W42    W     0.78368   0.97294   0.59882   0.01267  Uiso   1.00
W43    W     0.70124   0.92501   0.87233   0.01267  Uiso   1.00
W44    W     0.73901   0.84510   0.66674   0.01267  Uiso   1.00
W45    W     0.97936   0.95493   0.65697   0.01267  Uiso   1.00
W46    W     0.93471   0.93451   0.79893   0.01267  Uiso   1.00
W47    W     0.69205   0.82404   0.79844   0.01267  Uiso   1.00
W48    W     0.92795   0.82955   0.72895   0.01267  Uiso   1.00
O121   O     0.45850   0.12080   0.74520   0.01267  Uiso   1.00
O122   O     0.46170   0.01880   0.79580   0.01267  Uiso   1.00
O123   O     0.61740   0.05740   0.79180   0.01267  Uiso   1.00
O124   O     0.65010   0.07450   0.69170   0.01267  Uiso   1.00
O125   O     0.49320   0.03460   0.69420   0.01267  Uiso   1.00
O126   O     0.62480   0.96950   0.73910   0.01267  Uiso   1.00
O127   O     0.45350   0.96640   0.64040   0.01267  Uiso   1.00
O128   O     0.45700   0.94500   0.74460   0.01267  Uiso   1.00
O129   O     0.64480   0.98340   0.62860   0.01267  Uiso   1.00
O130   O     0.61260   0.89440   0.67660   0.01267  Uiso   1.00
O131   O     0.80470   0.12870   0.64450   0.01267  Uiso   1.00
O132   O     0.77920   0.04280   0.60780   0.01267  Uiso   1.00
O133   O     0.93070   0.03020   0.65160   0.01267  Uiso   1.00
O134   O     0.79590   0.06190   0.73710   0.01267  Uiso   1.00
O135   O     0.79620   0.97340   0.68720   0.01267  Uiso   1.00
O136   O     0.73600   0.09800   0.83460   0.01267  Uiso   1.00
O137   O     0.87710   0.00400   0.81240   0.01267  Uiso   1.00
O138   O     0.69760   0.99780   0.86800   0.01267  Uiso   1.00
O139   O     0.76720   0.95790   0.78250   0.01267  Uiso   1.00
O140   O     0.38280   0.93450   0.85130   0.01267  Uiso   1.00
O141   O     0.57120   0.87590   0.80030   0.01267  Uiso   1.00
O142   O     0.57580   0.94670   0.85230   0.01267  Uiso   1.00
O143   O     0.78710   0.97820   0.53480   0.01267  Uiso   1.00
O144   O     0.78800   0.89950   0.62250   0.01267  Uiso   1.00
O145   O     0.92380   0.95710   0.60030   0.01267  Uiso   1.00
O146   O     0.66670   0.90760   0.93720   0.01267  Uiso   1.00
O147   O     0.71820   0.86230   0.84450   0.01267  Uiso   1.00
O148   O     0.84280   0.91430   0.86130   0.01267  Uiso   1.00
O149   O     0.72710   0.80700   0.62580   0.01267  Uiso   1.00
O150   O     0.68810   0.80950   0.73370   0.01267  Uiso   1.00
O151   O     0.87050   0.81450   0.67850   0.01267  Uiso   1.00
O152   O     0.76430   0.88800   0.73300   0.01267  Uiso   1.00
O153   O     0.10320   0.94980   0.62940   0.01267  Uiso   1.00
O154   O     0.97600   0.95670   0.72750   0.01267  Uiso   1.00
O155   O     0.96920   0.88500   0.67860   0.01267  Uiso   1.00
O156   O     0.04300   0.92210   0.81970   0.01267  Uiso   1.00
O157   O     0.93750   0.86960   0.77720   0.01267  Uiso   1.00
O158   O     0.65420   0.77310   0.83850   0.01267  Uiso   1.00
O159   O     0.83450   0.79700   0.77980   0.01267  Uiso   1.00
O160   O     0.03600   0.78180   0.72420   0.01267  Uiso   1.00
