data_EFAYEQ_clean_h
_audit_creation_date              2014-07-02
_audit_creation_method            'Materials Studio'
_symmetry_space_group_name_H-M    'P1'
_symmetry_Int_Tables_number       1
_symmetry_cell_setting            triclinic
loop_
_symmetry_equiv_pos_as_xyz
  x,y,z
_cell_length_a                    29.4392
_cell_length_b                    29.4392
_cell_length_c                    59.6168
_cell_angle_alpha                 127.9365
_cell_angle_beta                  127.9365
_cell_angle_gamma                 90.4129
loop_
_atom_site_label
_atom_site_type_symbol
_atom_site_fract_x
_atom_site_fract_y
_atom_site_fract_z
_atom_site_U_iso_or_equiv
_atom_site_adp_type
_atom_site_occupancy
Cu1    Cu    0.67998   0.46612   0.97296   0.01267  Uiso   1.00
Cu2    Cu    0.50273   0.96669   0.97331   0.01267  Uiso   1.00
Cu3    Cu    0.81929   0.53323   0.02657   0.01267  Uiso   1.00
Cu4    Cu    0.00297   0.96699   0.97353   0.01267  Uiso   1.00
H5     H     0.73629   0.35858   0.08896   0.01267  Uiso   1.00
H6     H     0.13787   0.76304   0.40914   0.01267  Uiso   1.00
H7     H     0.07910   0.75850   0.42388   0.01267  Uiso   1.00
H8     H     0.07139   0.84906   0.47015   0.01267  Uiso   1.00
H9     H     0.93919   0.84093   0.37250   0.01267  Uiso   1.00
H10    H     0.94691   0.75038   0.32623   0.01267  Uiso   1.00
H11    H     0.74429   0.26954   0.07742   0.01267  Uiso   1.00
H12    H     0.65047   0.14547   0.02984   0.01267  Uiso   1.00
H13    H     0.65462   0.25715   0.12569   0.01267  Uiso   1.00
H14    H     0.74844   0.38123   0.17326   0.01267  Uiso   1.00
H15    H     0.93282   0.55457   0.17423   0.01267  Uiso   1.00
H16    H     0.91004   0.56189   0.12815   0.01267  Uiso   1.00
H17    H     0.67188   0.42361   0.02686   0.01267  Uiso   1.00
H18    H     0.69454   0.41611   0.07281   0.01267  Uiso   1.00
H19    H     0.69393   0.76570   0.07357   0.01267  Uiso   1.00
H20    H     0.66963   0.64258   0.02781   0.01267  Uiso   1.00
H21    H     0.90699   0.75725   0.12656   0.01267  Uiso   1.00
H22    H     0.93111   0.88033   0.17212   0.01267  Uiso   1.00
H23    H     0.73451   0.85986   0.08739   0.01267  Uiso   1.00
H24    H     0.75728   0.73227   0.92435   0.01267  Uiso   1.00
H25    H     0.84835   0.85638   0.97081   0.01267  Uiso   1.00
H26    H     0.84112   0.74507   0.87352   0.01267  Uiso   1.00
H27    H     0.75024   0.62098   0.82723   0.01267  Uiso   1.00
H28    H     0.76648   0.63840   0.91263   0.01267  Uiso   1.00
H29    H     0.80279   0.58269   0.92551   0.01267  Uiso   1.00
H30    H     0.82781   0.57658   0.97251   0.01267  Uiso   1.00
H31    H     0.59006   0.43638   0.87178   0.01267  Uiso   1.00
H32    H     0.56508   0.44257   0.82479   0.01267  Uiso   1.00
H33    H     0.11770   0.56371   0.32616   0.01267  Uiso   1.00
H34    H     0.24124   0.58867   0.37192   0.01267  Uiso   1.00
H35    H     0.35456   0.82574   0.47030   0.01267  Uiso   1.00
H36    H     0.23107   0.80075   0.42454   0.01267  Uiso   1.00
H37    H     0.73923   0.91983   0.07504   0.01267  Uiso   1.00
H38    H     0.64863   0.92701   0.02840   0.01267  Uiso   1.00
H39    H     0.65732   0.06105   0.12624   0.01267  Uiso   1.00
H40    H     0.74790   0.05388   0.17288   0.01267  Uiso   1.00
C41    C     0.90780   0.87960   0.95240   0.01267  Uiso   1.00
C42    C     0.59330   0.99730   0.04630   0.01267  Uiso   1.00
C43    C     0.90549   0.53231   0.22490   0.01267  Uiso   1.00
C44    C     0.85943   0.46437   0.20150   0.01267  Uiso   1.00
C45    C     0.79920   0.40252   0.15310   0.01267  Uiso   1.00
C46    C     0.78500   0.40860   0.12810   0.01267  Uiso   1.00
C47    C     0.83103   0.47651   0.15150   0.01267  Uiso   1.00
C48    C     0.89128   0.53836   0.19990   0.01267  Uiso   1.00
C49    C     0.96424   0.59104   0.27320   0.01267  Uiso   1.00
C50    C     0.03234   0.60460   0.29670   0.01267  Uiso   1.00
C51    C     0.09419   0.66581   0.34510   0.01267  Uiso   1.00
C52    C     0.08789   0.71349   0.37000   0.01267  Uiso   1.00
C53    C     0.01991   0.70001   0.34660   0.01267  Uiso   1.00
C54    C     0.95807   0.63881   0.29820   0.01267  Uiso   1.00
C55    C     0.01352   0.74974   0.37270   0.01267  Uiso   1.00
C56    C     0.04784   0.77694   0.41240   0.01267  Uiso   1.00
C57    C     0.04357   0.82703   0.43800   0.01267  Uiso   1.00
C58    C     0.00490   0.84982   0.42380   0.01267  Uiso   1.00
C59    C     0.97048   0.82252   0.38400   0.01267  Uiso   1.00
C60    C     0.97475   0.77243   0.35840   0.01267  Uiso   1.00
C61    C     0.75124   0.33194   0.12780   0.01267  Uiso   1.00
C62    C     0.72422   0.26678   0.08820   0.01267  Uiso   1.00
C63    C     0.67237   0.19815   0.06190   0.01267  Uiso   1.00
C64    C     0.64764   0.19476   0.07530   0.01267  Uiso   1.00
C65    C     0.67467   0.25991   0.11490   0.01267  Uiso   1.00
C66    C     0.72653   0.32855   0.14120   0.01267  Uiso   1.00
C67    C     0.81493   0.48501   0.12600   0.01267  Uiso   1.00
C68    C     0.87448   0.52528   0.14128   0.01267  Uiso   1.00
C69    C     0.86188   0.52934   0.11580   0.01267  Uiso   1.00
C70    C     0.78979   0.49317   0.07510   0.01267  Uiso   1.00
C71    C     0.73021   0.45287   0.05980   0.01267  Uiso   1.00
C72    C     0.74272   0.44874   0.08520   0.01267  Uiso   1.00
C73    C     0.81383   0.82955   0.12530   0.01267  Uiso   1.00
C74    C     0.74155   0.76381   0.08540   0.01267  Uiso   1.00
C75    C     0.72810   0.69570   0.06010   0.01267  Uiso   1.00
C76    C     0.78708   0.69340   0.07480   0.01267  Uiso   1.00
C77    C     0.85936   0.75914   0.11470   0.01267  Uiso   1.00
C78    C     0.87269   0.82717   0.13990   0.01267  Uiso   1.00
C79    C     0.80086   0.97810   0.15130   0.01267  Uiso   1.00
C80    C     0.78352   0.90836   0.12653   0.01267  Uiso   1.00
C81    C     0.82672   0.89848   0.15010   0.01267  Uiso   1.00
C82    C     0.88733   0.95841   0.19850   0.01267  Uiso   1.00
C83    C     0.90476   0.02824   0.22336   0.01267  Uiso   1.00
C84    C     0.86157   0.03813   0.19980   0.01267  Uiso   1.00
C85    C     0.74891   0.67003   0.87330   0.01267  Uiso   1.00
C86    C     0.77605   0.73513   0.91300   0.01267  Uiso   1.00
C87    C     0.82640   0.80380   0.93870   0.01267  Uiso   1.00
C88    C     0.84955   0.80731   0.92460   0.01267  Uiso   1.00
C89    C     0.82241   0.74221   0.88490   0.01267  Uiso   1.00
C90    C     0.77214   0.67362   0.85930   0.01267  Uiso   1.00
C91    C     0.59550   0.47250   0.77670   0.01267  Uiso   1.00
C92    C     0.61141   0.46091   0.79960   0.01267  Uiso   1.00
C93    C     0.67231   0.51997   0.84800   0.01267  Uiso   1.00
C94    C     0.71725   0.59065   0.87350   0.01267  Uiso   1.00
C95    C     0.70128   0.60224   0.85060   0.01267  Uiso   1.00
C96    C     0.64037   0.54319   0.80220   0.01267  Uiso   1.00
C97    C     0.68262   0.51302   0.87270   0.01267  Uiso   1.00
C98    C     0.75523   0.55001   0.91350   0.01267  Uiso   1.00
C99    C     0.76908   0.54660   0.93950   0.01267  Uiso   1.00
C100   C     0.71023   0.50609   0.92460   0.01267  Uiso   1.00
C101   C     0.63763   0.46909   0.88380   0.01267  Uiso   1.00
C102   C     0.62378   0.47252   0.85780   0.01267  Uiso   1.00
C103   C     0.16791   0.68095   0.37300   0.01267  Uiso   1.00
C104   C     0.17067   0.62227   0.35840   0.01267  Uiso   1.00
C105   C     0.23896   0.63608   0.38370   0.01267  Uiso   1.00
C106   C     0.30450   0.70858   0.42360   0.01267  Uiso   1.00
C107   C     0.30164   0.76716   0.43810   0.01267  Uiso   1.00
C108   C     0.23335   0.75335   0.41280   0.01267  Uiso   1.00
C109   C     0.74845   0.98655   0.12650   0.01267  Uiso   1.00
C110   C     0.72094   0.95142   0.08650   0.01267  Uiso   1.00
C111   C     0.67083   0.95539   0.06070   0.01267  Uiso   1.00
C112   C     0.64823   0.99449   0.07490   0.01267  Uiso   1.00
C113   C     0.67564   0.02950   0.11480   0.01267  Uiso   1.00
C114   C     0.72574   0.02554   0.14060   0.01267  Uiso   1.00
C115   C     0.59210   0.11750   0.04600   0.01267  Uiso   1.00
C116   C     0.77050   0.49530   0.04610   0.01267  Uiso   1.00
C117   C     0.77200   0.62240   0.04810   0.01267  Uiso   1.00
C118   C     0.71770   0.49910   0.95010   0.01267  Uiso   1.00
C119   C     0.37870   0.72410   0.45230   0.01267  Uiso   1.00
C120   C     0.00040   0.90540   0.45160   0.01267  Uiso   1.00
C121   C     0.91740   0.14600   0.22720   0.01267  Uiso   1.00
C122   C     0.90910   0.20910   0.24240   0.01267  Uiso   1.00
C123   C     0.58310   0.57770   0.77380   0.01267  Uiso   1.00
C124   C     0.54840   0.57120   0.73810   0.01267  Uiso   1.00
C125   C     0.91000   0.64660   0.23460   0.01267  Uiso   1.00
C126   C     0.96790   0.73050   0.27150   0.01267  Uiso   1.00
C127   C     0.84860   0.57500   0.26450   0.01267  Uiso   1.00
C128   C     0.76680   0.54100   0.22470   0.01267  Uiso   1.00
O129   O     0.91961   0.93125   0.98270   0.01267  Uiso   1.00
O130   O     0.92677   0.87645   0.93830   0.01267  Uiso   1.00
O131   O     0.57672   0.97034   0.01390   0.01267  Uiso   1.00
O132   O     0.57265   0.03009   0.06110   0.01267  Uiso   1.00
O133   O     0.97113   0.92971   0.43990   0.01267  Uiso   1.00
O134   O     0.82737   0.62253   0.06000   0.01267  Uiso   1.00
O135   O     0.71062   0.56510   0.01460   0.01267  Uiso   1.00
O136   O     0.71107   0.47293   0.01600   0.01267  Uiso   1.00
O137   O     0.82953   0.52879   0.06140   0.01267  Uiso   1.00
O138   O     0.43637   0.78963   0.48590   0.01267  Uiso   1.00
O139   O     0.37950   0.67088   0.44070   0.01267  Uiso   1.00
O140   O     0.66954   0.47062   0.93940   0.01267  Uiso   1.00
O141   O     0.78664   0.52758   0.98340   0.01267  Uiso   1.00
O142   O     0.02799   0.92327   0.48520   0.01267  Uiso   1.00
O143   O     0.57800   0.06642   0.01540   0.01267  Uiso   1.00
O144   O     0.57261   0.12383   0.06150   0.01267  Uiso   1.00
O145   O     0.87510   0.10330   0.22190   0.01267  Uiso   1.00
O146   O     0.62240   0.54800   0.77640   0.01267  Uiso   1.00
O147   O     0.93770   0.60690   0.22600   0.01267  Uiso   1.00
O148   O     0.89170   0.62450   0.27450   0.01267  Uiso   1.00
H149   H     0.87092   0.45951   0.22172   0.00000  Uiso   1.00
H150   H     0.03742   0.56605   0.27656   0.00000  Uiso   1.00
H151   H     0.92230   0.95046   0.21758   0.00000  Uiso   1.00
H152   H     0.57504   0.40379   0.77899   0.00000  Uiso   1.00
H153   H     0.97757   0.17093   0.25503   0.00000  Uiso   1.00
H154   H     0.89368   0.11088   0.19353   0.00000  Uiso   1.00
H155   H     0.89487   0.21808   0.25809   0.00000  Uiso   1.00
H156   H     0.86355   0.19223   0.21112   0.00000  Uiso   1.00
H157   H     0.96295   0.26212   0.26887   0.00000  Uiso   1.00
H158   H     0.53770   0.54709   0.76384   0.00000  Uiso   1.00
H159   H     0.62339   0.63792   0.80933   0.00000  Uiso   1.00
H160   H     0.53427   0.61026   0.74514   0.00000  Uiso   1.00
H161   H     0.49638   0.51252   0.70199   0.00000  Uiso   1.00
H162   H     0.58919   0.58607   0.74108   0.00000  Uiso   1.00
H163   H     0.85764   0.62183   0.20116   0.00000  Uiso   1.00
H164   H     0.89684   0.64082   0.24752   0.00000  Uiso   1.00
H165   H     0.97040   0.73733   0.25534   0.00000  Uiso   1.00
H166   H     0.02421   0.75222   0.30174   0.00000  Uiso   1.00
H167   H     0.95090   0.76252   0.28406   0.00000  Uiso   1.00
H168   H     0.85438   0.52971   0.25309   0.00000  Uiso   1.00
H169   H     0.86675   0.60561   0.29597   0.00000  Uiso   1.00
H170   H     0.72905   0.48694   0.20629   0.00000  Uiso   1.00
H171   H     0.75526   0.53067   0.19931   0.00000  Uiso   1.00
H172   H     0.75652   0.58063   0.23952   0.00000  Uiso   1.00
Cu173  Cu    0.53388   0.32002   0.52704   0.01267  Uiso   1.00
Cu174  Cu    0.03331   0.49727   0.52669   0.01267  Uiso   1.00
Cu175  Cu    0.46677   0.18071   0.47343   0.01267  Uiso   1.00
Cu176  Cu    0.03301   0.99703   0.52647   0.01267  Uiso   1.00
H177   H     0.64142   0.26371   0.41104   0.01267  Uiso   1.00
H178   H     0.23696   0.86213   0.09086   0.01267  Uiso   1.00
H179   H     0.24150   0.92090   0.07612   0.01267  Uiso   1.00
H180   H     0.15094   0.92861   0.02985   0.01267  Uiso   1.00
H181   H     0.15907   0.06081   0.12750   0.01267  Uiso   1.00
H182   H     0.24962   0.05309   0.17377   0.01267  Uiso   1.00
H183   H     0.73046   0.25571   0.42258   0.01267  Uiso   1.00
H184   H     0.85453   0.34953   0.47016   0.01267  Uiso   1.00
H185   H     0.74285   0.34538   0.37431   0.01267  Uiso   1.00
H186   H     0.61877   0.25156   0.32674   0.01267  Uiso   1.00
H187   H     0.44543   0.06718   0.32577   0.01267  Uiso   1.00
H188   H     0.43811   0.08996   0.37185   0.01267  Uiso   1.00
H189   H     0.57639   0.32812   0.47314   0.01267  Uiso   1.00
H190   H     0.58389   0.30546   0.42719   0.01267  Uiso   1.00
H191   H     0.23430   0.30607   0.42643   0.01267  Uiso   1.00
H192   H     0.35742   0.33037   0.47219   0.01267  Uiso   1.00
H193   H     0.24275   0.09301   0.37344   0.01267  Uiso   1.00
H194   H     0.11967   0.06889   0.32788   0.01267  Uiso   1.00
H195   H     0.14014   0.26549   0.41261   0.01267  Uiso   1.00
H196   H     0.26773   0.24272   0.57565   0.01267  Uiso   1.00
H197   H     0.14362   0.15165   0.52919   0.01267  Uiso   1.00
H198   H     0.25493   0.15888   0.62648   0.01267  Uiso   1.00
H199   H     0.37902   0.24976   0.67277   0.01267  Uiso   1.00
H200   H     0.36160   0.23352   0.58737   0.01267  Uiso   1.00
H201   H     0.41731   0.19721   0.57449   0.01267  Uiso   1.00
H202   H     0.42342   0.17219   0.52749   0.01267  Uiso   1.00
H203   H     0.56362   0.40994   0.62822   0.01267  Uiso   1.00
H204   H     0.55743   0.43492   0.67521   0.01267  Uiso   1.00
H205   H     0.43629   0.88230   0.17384   0.01267  Uiso   1.00
H206   H     0.41133   0.75876   0.12808   0.01267  Uiso   1.00
H207   H     0.17426   0.64544   0.02970   0.01267  Uiso   1.00
H208   H     0.19925   0.76893   0.07546   0.01267  Uiso   1.00
H209   H     0.08017   0.26077   0.42496   0.01267  Uiso   1.00
H210   H     0.07299   0.35137   0.47160   0.01267  Uiso   1.00
H211   H     0.93895   0.34268   0.37376   0.01267  Uiso   1.00
H212   H     0.94612   0.25210   0.32712   0.01267  Uiso   1.00
C213   C     0.12040   0.09220   0.54760   0.01267  Uiso   1.00
C214   C     0.00270   0.40670   0.45370   0.01267  Uiso   1.00
C215   C     0.46769   0.09451   0.27510   0.01267  Uiso   1.00
C216   C     0.53563   0.14057   0.29850   0.01267  Uiso   1.00
C217   C     0.59748   0.20080   0.34690   0.01267  Uiso   1.00
C218   C     0.59140   0.21500   0.37190   0.01267  Uiso   1.00
C219   C     0.52349   0.16897   0.34850   0.01267  Uiso   1.00
C220   C     0.46164   0.10872   0.30010   0.01267  Uiso   1.00
C221   C     0.40896   0.03576   0.22680   0.01267  Uiso   1.00
C222   C     0.39540   0.96766   0.20330   0.01267  Uiso   1.00
C223   C     0.33419   0.90581   0.15490   0.01267  Uiso   1.00
C224   C     0.28651   0.91211   0.13000   0.01267  Uiso   1.00
C225   C     0.29999   0.98009   0.15340   0.01267  Uiso   1.00
C226   C     0.36119   0.04193   0.20180   0.01267  Uiso   1.00
C227   C     0.25026   0.98648   0.12730   0.01267  Uiso   1.00
C228   C     0.22306   0.95216   0.08760   0.01267  Uiso   1.00
C229   C     0.17297   0.95643   0.06200   0.01267  Uiso   1.00
C230   C     0.15018   0.99510   0.07620   0.01267  Uiso   1.00
C231   C     0.17748   0.02952   0.11600   0.01267  Uiso   1.00
C232   C     0.22757   0.02525   0.14160   0.01267  Uiso   1.00
C233   C     0.66806   0.24876   0.37220   0.01267  Uiso   1.00
C234   C     0.73322   0.27578   0.41180   0.01267  Uiso   1.00
C235   C     0.80185   0.32763   0.43810   0.01267  Uiso   1.00
C236   C     0.80524   0.35236   0.42470   0.01267  Uiso   1.00
C237   C     0.74009   0.32533   0.38510   0.01267  Uiso   1.00
C238   C     0.67145   0.27347   0.35880   0.01267  Uiso   1.00
C239   C     0.51499   0.18507   0.37400   0.01267  Uiso   1.00
C240   C     0.47472   0.12552   0.35872   0.01267  Uiso   1.00
C241   C     0.47066   0.13812   0.38420   0.01267  Uiso   1.00
C242   C     0.50683   0.21021   0.42490   0.01267  Uiso   1.00
C243   C     0.54713   0.26979   0.44020   0.01267  Uiso   1.00
C244   C     0.55126   0.25728   0.41480   0.01267  Uiso   1.00
C245   C     0.17045   0.18617   0.37470   0.01267  Uiso   1.00
C246   C     0.23619   0.25845   0.41460   0.01267  Uiso   1.00
C247   C     0.30430   0.27190   0.43990   0.01267  Uiso   1.00
C248   C     0.30660   0.21292   0.42520   0.01267  Uiso   1.00
C249   C     0.24086   0.14064   0.38530   0.01267  Uiso   1.00
C250   C     0.17283   0.12731   0.36010   0.01267  Uiso   1.00
C251   C     0.02190   0.19914   0.34870   0.01267  Uiso   1.00
C252   C     0.09164   0.21648   0.37347   0.01267  Uiso   1.00
C253   C     0.10152   0.17328   0.34990   0.01267  Uiso   1.00
C254   C     0.04159   0.11267   0.30150   0.01267  Uiso   1.00
C255   C     0.97176   0.09524   0.27664   0.01267  Uiso   1.00
C256   C     0.96187   0.13843   0.30020   0.01267  Uiso   1.00
C257   C     0.32997   0.25109   0.62670   0.01267  Uiso   1.00
C258   C     0.26487   0.22395   0.58700   0.01267  Uiso   1.00
C259   C     0.19620   0.17360   0.56130   0.01267  Uiso   1.00
C260   C     0.19269   0.15045   0.57540   0.01267  Uiso   1.00
C261   C     0.25779   0.17759   0.61510   0.01267  Uiso   1.00
C262   C     0.32638   0.22786   0.64070   0.01267  Uiso   1.00
C263   C     0.52750   0.40450   0.72330   0.01267  Uiso   1.00
C264   C     0.53909   0.38859   0.70040   0.01267  Uiso   1.00
C265   C     0.48003   0.32769   0.65200   0.01267  Uiso   1.00
C266   C     0.40935   0.28275   0.62650   0.01267  Uiso   1.00
C267   C     0.39776   0.29872   0.64940   0.01267  Uiso   1.00
C268   C     0.45681   0.35963   0.69780   0.01267  Uiso   1.00
C269   C     0.48698   0.31738   0.62730   0.01267  Uiso   1.00
C270   C     0.44999   0.24477   0.58650   0.01267  Uiso   1.00
C271   C     0.45340   0.23092   0.56050   0.01267  Uiso   1.00
C272   C     0.49391   0.28977   0.57540   0.01267  Uiso   1.00
C273   C     0.53091   0.36237   0.61620   0.01267  Uiso   1.00
C274   C     0.52748   0.37622   0.64220   0.01267  Uiso   1.00
C275   C     0.31905   0.83209   0.12700   0.01267  Uiso   1.00
C276   C     0.37773   0.82933   0.14160   0.01267  Uiso   1.00
C277   C     0.36392   0.76104   0.11630   0.01267  Uiso   1.00
C278   C     0.29142   0.69550   0.07640   0.01267  Uiso   1.00
C279   C     0.23284   0.69836   0.06190   0.01267  Uiso   1.00
C280   C     0.24665   0.76665   0.08720   0.01267  Uiso   1.00
C281   C     0.01345   0.25155   0.37350   0.01267  Uiso   1.00
C282   C     0.04858   0.27906   0.41350   0.01267  Uiso   1.00
C283   C     0.04461   0.32917   0.43930   0.01267  Uiso   1.00
C284   C     0.00551   0.35177   0.42510   0.01267  Uiso   1.00
C285   C     0.97050   0.32436   0.38520   0.01267  Uiso   1.00
C286   C     0.97446   0.27426   0.35940   0.01267  Uiso   1.00
C287   C     0.88250   0.40790   0.45400   0.01267  Uiso   1.00
C288   C     0.50470   0.22950   0.45390   0.01267  Uiso   1.00
C289   C     0.37760   0.22800   0.45190   0.01267  Uiso   1.00
C290   C     0.50090   0.28230   0.54990   0.01267  Uiso   1.00
C291   C     0.27590   0.62130   0.04770   0.01267  Uiso   1.00
C292   C     0.09460   0.99960   0.04840   0.01267  Uiso   1.00
C293   C     0.85400   0.08260   0.27280   0.01267  Uiso   1.00
C294   C     0.79090   0.09090   0.25760   0.01267  Uiso   1.00
C295   C     0.42230   0.41690   0.72620   0.01267  Uiso   1.00
C296   C     0.42880   0.45160   0.76190   0.01267  Uiso   1.00
C297   C     0.35340   0.09000   0.26540   0.01267  Uiso   1.00
C298   C     0.26950   0.03210   0.22850   0.01267  Uiso   1.00
C299   C     0.42500   0.15140   0.23550   0.01267  Uiso   1.00
C300   C     0.45900   0.23320   0.27530   0.01267  Uiso   1.00
O301   O     0.06875   0.08039   0.51730   0.01267  Uiso   1.00
O302   O     0.12355   0.07323   0.56170   0.01267  Uiso   1.00
O303   O     0.02966   0.42328   0.48610   0.01267  Uiso   1.00
O304   O     0.96991   0.42735   0.43890   0.01267  Uiso   1.00
O305   O     0.07029   0.02887   0.06010   0.01267  Uiso   1.00
O306   O     0.37747   0.17263   0.44000   0.01267  Uiso   1.00
O307   O     0.43490   0.28938   0.48540   0.01267  Uiso   1.00
O308   O     0.52707   0.28893   0.48400   0.01267  Uiso   1.00
O309   O     0.47121   0.17047   0.43860   0.01267  Uiso   1.00
O310   O     0.21037   0.56363   0.01410   0.01267  Uiso   1.00
O311   O     0.32912   0.62050   0.05930   0.01267  Uiso   1.00
O312   O     0.52938   0.33046   0.56060   0.01267  Uiso   1.00
O313   O     0.47242   0.21336   0.51660   0.01267  Uiso   1.00
O314   O     0.07673   0.97201   0.01480   0.01267  Uiso   1.00
O315   O     0.93358   0.42200   0.48460   0.01267  Uiso   1.00
O316   O     0.87617   0.42739   0.43850   0.01267  Uiso   1.00
O317   O     0.89670   0.12490   0.27810   0.01267  Uiso   1.00
O318   O     0.45200   0.37760   0.72360   0.01267  Uiso   1.00
O319   O     0.39310   0.06230   0.27400   0.01267  Uiso   1.00
O320   O     0.37550   0.10830   0.22550   0.01267  Uiso   1.00
H321   H     0.54049   0.12908   0.27828   0.00000  Uiso   1.00
H322   H     0.43395   0.96258   0.22344   0.00000  Uiso   1.00
H323   H     0.04954   0.07770   0.28242   0.00000  Uiso   1.00
H324   H     0.59621   0.42496   0.72101   0.00000  Uiso   1.00
H325   H     0.82907   0.02243   0.24497   0.00000  Uiso   1.00
H326   H     0.88912   0.10632   0.30647   0.00000  Uiso   1.00
H327   H     0.78192   0.10513   0.24191   0.00000  Uiso   1.00
H328   H     0.80777   0.13645   0.28888   0.00000  Uiso   1.00
H329   H     0.73788   0.03705   0.23113   0.00000  Uiso   1.00
H330   H     0.45291   0.46230   0.73616   0.00000  Uiso   1.00
H331   H     0.36208   0.37661   0.69067   0.00000  Uiso   1.00
H332   H     0.38974   0.46573   0.75486   0.00000  Uiso   1.00
H333   H     0.48748   0.50362   0.79801   0.00000  Uiso   1.00
H334   H     0.41393   0.41081   0.75892   0.00000  Uiso   1.00
H335   H     0.37817   0.14236   0.29884   0.00000  Uiso   1.00
H336   H     0.35918   0.10316   0.25248   0.00000  Uiso   1.00
H337   H     0.26267   0.02960   0.24466   0.00000  Uiso   1.00
H338   H     0.24778   0.97579   0.19826   0.00000  Uiso   1.00
H339   H     0.23748   0.04910   0.21594   0.00000  Uiso   1.00
H340   H     0.47029   0.14562   0.24691   0.00000  Uiso   1.00
H341   H     0.39439   0.13325   0.20403   0.00000  Uiso   1.00
H342   H     0.51306   0.27095   0.29371   0.00000  Uiso   1.00
H343   H     0.46933   0.24474   0.30069   0.00000  Uiso   1.00
H344   H     0.41937   0.24348   0.26048   0.00000  Uiso   1.00
Cu345  Cu    0.32002   0.53388   0.02704   0.01267  Uiso   1.00
Cu346  Cu    0.49727   0.03331   0.02669   0.01267  Uiso   1.00
Cu347  Cu    0.18071   0.46677   0.97343   0.01267  Uiso   1.00
Cu348  Cu    0.99703   0.03301   0.02647   0.01267  Uiso   1.00
H349   H     0.26371   0.64142   0.91104   0.01267  Uiso   1.00
H350   H     0.86213   0.23696   0.59086   0.01267  Uiso   1.00
H351   H     0.92090   0.24150   0.57612   0.01267  Uiso   1.00
H352   H     0.92861   0.15094   0.52985   0.01267  Uiso   1.00
H353   H     0.06081   0.15907   0.62750   0.01267  Uiso   1.00
H354   H     0.05309   0.24962   0.67377   0.01267  Uiso   1.00
H355   H     0.25571   0.73046   0.92258   0.01267  Uiso   1.00
H356   H     0.34953   0.85453   0.97016   0.01267  Uiso   1.00
H357   H     0.34538   0.74285   0.87431   0.01267  Uiso   1.00
H358   H     0.25156   0.61877   0.82674   0.01267  Uiso   1.00
H359   H     0.06718   0.44543   0.82577   0.01267  Uiso   1.00
H360   H     0.08996   0.43811   0.87185   0.01267  Uiso   1.00
H361   H     0.32812   0.57639   0.97314   0.01267  Uiso   1.00
H362   H     0.30546   0.58389   0.92719   0.01267  Uiso   1.00
H363   H     0.30607   0.23430   0.92643   0.01267  Uiso   1.00
H364   H     0.33037   0.35742   0.97219   0.01267  Uiso   1.00
H365   H     0.09301   0.24275   0.87344   0.01267  Uiso   1.00
H366   H     0.06889   0.11967   0.82788   0.01267  Uiso   1.00
H367   H     0.26549   0.14014   0.91261   0.01267  Uiso   1.00
H368   H     0.24272   0.26773   0.07565   0.01267  Uiso   1.00
H369   H     0.15165   0.14362   0.02919   0.01267  Uiso   1.00
H370   H     0.15888   0.25493   0.12648   0.01267  Uiso   1.00
H371   H     0.24976   0.37902   0.17277   0.01267  Uiso   1.00
H372   H     0.23352   0.36160   0.08737   0.01267  Uiso   1.00
H373   H     0.19721   0.41731   0.07449   0.01267  Uiso   1.00
H374   H     0.17219   0.42342   0.02749   0.01267  Uiso   1.00
H375   H     0.40994   0.56362   0.12822   0.01267  Uiso   1.00
H376   H     0.43492   0.55743   0.17521   0.01267  Uiso   1.00
H377   H     0.88230   0.43629   0.67384   0.01267  Uiso   1.00
H378   H     0.75876   0.41133   0.62808   0.01267  Uiso   1.00
H379   H     0.64544   0.17426   0.52970   0.01267  Uiso   1.00
H380   H     0.76893   0.19925   0.57546   0.01267  Uiso   1.00
H381   H     0.26077   0.08017   0.92496   0.01267  Uiso   1.00
H382   H     0.35137   0.07299   0.97160   0.01267  Uiso   1.00
H383   H     0.34268   0.93895   0.87376   0.01267  Uiso   1.00
H384   H     0.25210   0.94612   0.82712   0.01267  Uiso   1.00
C385   C     0.09220   0.12040   0.04760   0.01267  Uiso   1.00
C386   C     0.40670   0.00270   0.95370   0.01267  Uiso   1.00
C387   C     0.09451   0.46769   0.77510   0.01267  Uiso   1.00
C388   C     0.14057   0.53563   0.79850   0.01267  Uiso   1.00
C389   C     0.20080   0.59748   0.84690   0.01267  Uiso   1.00
C390   C     0.21500   0.59140   0.87190   0.01267  Uiso   1.00
C391   C     0.16897   0.52349   0.84850   0.01267  Uiso   1.00
C392   C     0.10872   0.46164   0.80010   0.01267  Uiso   1.00
C393   C     0.03576   0.40896   0.72680   0.01267  Uiso   1.00
C394   C     0.96766   0.39540   0.70330   0.01267  Uiso   1.00
C395   C     0.90581   0.33419   0.65490   0.01267  Uiso   1.00
C396   C     0.91211   0.28651   0.63000   0.01267  Uiso   1.00
C397   C     0.98009   0.29999   0.65340   0.01267  Uiso   1.00
C398   C     0.04193   0.36119   0.70180   0.01267  Uiso   1.00
C399   C     0.98648   0.25026   0.62730   0.01267  Uiso   1.00
C400   C     0.95216   0.22306   0.58760   0.01267  Uiso   1.00
C401   C     0.95643   0.17297   0.56200   0.01267  Uiso   1.00
C402   C     0.99510   0.15018   0.57620   0.01267  Uiso   1.00
C403   C     0.02952   0.17748   0.61600   0.01267  Uiso   1.00
C404   C     0.02525   0.22757   0.64160   0.01267  Uiso   1.00
C405   C     0.24876   0.66806   0.87220   0.01267  Uiso   1.00
C406   C     0.27578   0.73322   0.91180   0.01267  Uiso   1.00
C407   C     0.32763   0.80185   0.93810   0.01267  Uiso   1.00
C408   C     0.35236   0.80524   0.92470   0.01267  Uiso   1.00
C409   C     0.32533   0.74009   0.88510   0.01267  Uiso   1.00
C410   C     0.27347   0.67145   0.85880   0.01267  Uiso   1.00
C411   C     0.18507   0.51499   0.87400   0.01267  Uiso   1.00
C412   C     0.12552   0.47472   0.85872   0.01267  Uiso   1.00
C413   C     0.13812   0.47066   0.88420   0.01267  Uiso   1.00
C414   C     0.21021   0.50683   0.92490   0.01267  Uiso   1.00
C415   C     0.26979   0.54713   0.94020   0.01267  Uiso   1.00
C416   C     0.25728   0.55126   0.91480   0.01267  Uiso   1.00
C417   C     0.18617   0.17045   0.87470   0.01267  Uiso   1.00
C418   C     0.25845   0.23619   0.91460   0.01267  Uiso   1.00
C419   C     0.27190   0.30430   0.93990   0.01267  Uiso   1.00
C420   C     0.21292   0.30660   0.92520   0.01267  Uiso   1.00
C421   C     0.14064   0.24086   0.88530   0.01267  Uiso   1.00
C422   C     0.12731   0.17283   0.86010   0.01267  Uiso   1.00
C423   C     0.19914   0.02190   0.84870   0.01267  Uiso   1.00
C424   C     0.21648   0.09164   0.87347   0.01267  Uiso   1.00
C425   C     0.17328   0.10152   0.84990   0.01267  Uiso   1.00
C426   C     0.11267   0.04159   0.80150   0.01267  Uiso   1.00
C427   C     0.09524   0.97176   0.77664   0.01267  Uiso   1.00
C428   C     0.13843   0.96187   0.80020   0.01267  Uiso   1.00
C429   C     0.25109   0.32997   0.12670   0.01267  Uiso   1.00
C430   C     0.22395   0.26487   0.08700   0.01267  Uiso   1.00
C431   C     0.17360   0.19620   0.06130   0.01267  Uiso   1.00
C432   C     0.15045   0.19269   0.07540   0.01267  Uiso   1.00
C433   C     0.17759   0.25779   0.11510   0.01267  Uiso   1.00
C434   C     0.22786   0.32638   0.14070   0.01267  Uiso   1.00
C435   C     0.40450   0.52750   0.22330   0.01267  Uiso   1.00
C436   C     0.38859   0.53909   0.20040   0.01267  Uiso   1.00
C437   C     0.32769   0.48003   0.15200   0.01267  Uiso   1.00
C438   C     0.28275   0.40935   0.12650   0.01267  Uiso   1.00
C439   C     0.29872   0.39776   0.14940   0.01267  Uiso   1.00
C440   C     0.35963   0.45681   0.19780   0.01267  Uiso   1.00
C441   C     0.31738   0.48698   0.12730   0.01267  Uiso   1.00
C442   C     0.24477   0.44999   0.08650   0.01267  Uiso   1.00
C443   C     0.23092   0.45340   0.06050   0.01267  Uiso   1.00
C444   C     0.28977   0.49391   0.07540   0.01267  Uiso   1.00
C445   C     0.36237   0.53091   0.11620   0.01267  Uiso   1.00
C446   C     0.37622   0.52748   0.14220   0.01267  Uiso   1.00
C447   C     0.83209   0.31905   0.62700   0.01267  Uiso   1.00
C448   C     0.82933   0.37773   0.64160   0.01267  Uiso   1.00
C449   C     0.76104   0.36392   0.61630   0.01267  Uiso   1.00
C450   C     0.69550   0.29142   0.57640   0.01267  Uiso   1.00
C451   C     0.69836   0.23284   0.56190   0.01267  Uiso   1.00
C452   C     0.76665   0.24665   0.58720   0.01267  Uiso   1.00
C453   C     0.25155   0.01345   0.87350   0.01267  Uiso   1.00
C454   C     0.27906   0.04858   0.91350   0.01267  Uiso   1.00
C455   C     0.32917   0.04461   0.93930   0.01267  Uiso   1.00
C456   C     0.35177   0.00551   0.92510   0.01267  Uiso   1.00
C457   C     0.32436   0.97050   0.88520   0.01267  Uiso   1.00
C458   C     0.27426   0.97446   0.85940   0.01267  Uiso   1.00
C459   C     0.40790   0.88250   0.95400   0.01267  Uiso   1.00
C460   C     0.22950   0.50470   0.95390   0.01267  Uiso   1.00
C461   C     0.22800   0.37760   0.95190   0.01267  Uiso   1.00
C462   C     0.28230   0.50090   0.04990   0.01267  Uiso   1.00
C463   C     0.62130   0.27590   0.54770   0.01267  Uiso   1.00
C464   C     0.99960   0.09460   0.54840   0.01267  Uiso   1.00
C465   C     0.08260   0.85400   0.77280   0.01267  Uiso   1.00
C466   C     0.09090   0.79090   0.75760   0.01267  Uiso   1.00
C467   C     0.41690   0.42230   0.22620   0.01267  Uiso   1.00
C468   C     0.45160   0.42880   0.26190   0.01267  Uiso   1.00
C469   C     0.09000   0.35340   0.76540   0.01267  Uiso   1.00
C470   C     0.03210   0.26950   0.72850   0.01267  Uiso   1.00
C471   C     0.15140   0.42500   0.73550   0.01267  Uiso   1.00
C472   C     0.23320   0.45900   0.77530   0.01267  Uiso   1.00
O473   O     0.08039   0.06875   0.01730   0.01267  Uiso   1.00
O474   O     0.07323   0.12355   0.06170   0.01267  Uiso   1.00
O475   O     0.42328   0.02966   0.98610   0.01267  Uiso   1.00
O476   O     0.42735   0.96991   0.93890   0.01267  Uiso   1.00
O477   O     0.02887   0.07029   0.56010   0.01267  Uiso   1.00
O478   O     0.17263   0.37747   0.94000   0.01267  Uiso   1.00
O479   O     0.28938   0.43490   0.98540   0.01267  Uiso   1.00
O480   O     0.28893   0.52707   0.98400   0.01267  Uiso   1.00
O481   O     0.17047   0.47121   0.93860   0.01267  Uiso   1.00
O482   O     0.56363   0.21037   0.51410   0.01267  Uiso   1.00
O483   O     0.62050   0.32912   0.55930   0.01267  Uiso   1.00
O484   O     0.33046   0.52938   0.06060   0.01267  Uiso   1.00
O485   O     0.21336   0.47242   0.01660   0.01267  Uiso   1.00
O486   O     0.97201   0.07673   0.51480   0.01267  Uiso   1.00
O487   O     0.42200   0.93358   0.98460   0.01267  Uiso   1.00
O488   O     0.42739   0.87617   0.93850   0.01267  Uiso   1.00
O489   O     0.12490   0.89670   0.77810   0.01267  Uiso   1.00
O490   O     0.37760   0.45200   0.22360   0.01267  Uiso   1.00
O491   O     0.06230   0.39310   0.77400   0.01267  Uiso   1.00
O492   O     0.10830   0.37550   0.72550   0.01267  Uiso   1.00
H493   H     0.12908   0.54049   0.77828   0.00000  Uiso   1.00
H494   H     0.96258   0.43395   0.72344   0.00000  Uiso   1.00
H495   H     0.07770   0.04954   0.78242   0.00000  Uiso   1.00
H496   H     0.42496   0.59621   0.22101   0.00000  Uiso   1.00
H497   H     0.02243   0.82907   0.74497   0.00000  Uiso   1.00
H498   H     0.10632   0.88912   0.80647   0.00000  Uiso   1.00
H499   H     0.10513   0.78192   0.74191   0.00000  Uiso   1.00
H500   H     0.13645   0.80777   0.78888   0.00000  Uiso   1.00
H501   H     0.03705   0.73788   0.73113   0.00000  Uiso   1.00
H502   H     0.46230   0.45291   0.23616   0.00000  Uiso   1.00
H503   H     0.37661   0.36208   0.19067   0.00000  Uiso   1.00
H504   H     0.46573   0.38974   0.25486   0.00000  Uiso   1.00
H505   H     0.50362   0.48748   0.29801   0.00000  Uiso   1.00
H506   H     0.41081   0.41393   0.25892   0.00000  Uiso   1.00
H507   H     0.14236   0.37817   0.79884   0.00000  Uiso   1.00
H508   H     0.10316   0.35918   0.75248   0.00000  Uiso   1.00
H509   H     0.02960   0.26267   0.74466   0.00000  Uiso   1.00
H510   H     0.97579   0.24778   0.69826   0.00000  Uiso   1.00
H511   H     0.04910   0.23748   0.71594   0.00000  Uiso   1.00
H512   H     0.14562   0.47029   0.74691   0.00000  Uiso   1.00
H513   H     0.13325   0.39439   0.70403   0.00000  Uiso   1.00
H514   H     0.27095   0.51306   0.79371   0.00000  Uiso   1.00
H515   H     0.24474   0.46933   0.80069   0.00000  Uiso   1.00
H516   H     0.24348   0.41937   0.76048   0.00000  Uiso   1.00
Cu517  Cu    0.46612   0.67998   0.47296   0.01267  Uiso   1.00
Cu518  Cu    0.96669   0.50273   0.47331   0.01267  Uiso   1.00
Cu519  Cu    0.53323   0.81929   0.52657   0.01267  Uiso   1.00
Cu520  Cu    0.96699   0.00297   0.47353   0.01267  Uiso   1.00
H521   H     0.35858   0.73629   0.58896   0.01267  Uiso   1.00
H522   H     0.76304   0.13787   0.90914   0.01267  Uiso   1.00
H523   H     0.75850   0.07910   0.92388   0.01267  Uiso   1.00
H524   H     0.84906   0.07139   0.97015   0.01267  Uiso   1.00
H525   H     0.84093   0.93919   0.87250   0.01267  Uiso   1.00
H526   H     0.75038   0.94691   0.82623   0.01267  Uiso   1.00
H527   H     0.26954   0.74429   0.57742   0.01267  Uiso   1.00
H528   H     0.14547   0.65047   0.52984   0.01267  Uiso   1.00
H529   H     0.25715   0.65462   0.62569   0.01267  Uiso   1.00
H530   H     0.38123   0.74844   0.67326   0.01267  Uiso   1.00
H531   H     0.55457   0.93282   0.67423   0.01267  Uiso   1.00
H532   H     0.56189   0.91004   0.62815   0.01267  Uiso   1.00
H533   H     0.42361   0.67188   0.52686   0.01267  Uiso   1.00
H534   H     0.41611   0.69454   0.57281   0.01267  Uiso   1.00
H535   H     0.76570   0.69393   0.57357   0.01267  Uiso   1.00
H536   H     0.64258   0.66963   0.52781   0.01267  Uiso   1.00
H537   H     0.75725   0.90699   0.62656   0.01267  Uiso   1.00
H538   H     0.88033   0.93111   0.67212   0.01267  Uiso   1.00
H539   H     0.85986   0.73451   0.58739   0.01267  Uiso   1.00
H540   H     0.73227   0.75728   0.42435   0.01267  Uiso   1.00
H541   H     0.85638   0.84835   0.47081   0.01267  Uiso   1.00
H542   H     0.74507   0.84112   0.37352   0.01267  Uiso   1.00
H543   H     0.62098   0.75024   0.32723   0.01267  Uiso   1.00
H544   H     0.63840   0.76648   0.41263   0.01267  Uiso   1.00
H545   H     0.58269   0.80279   0.42551   0.01267  Uiso   1.00
H546   H     0.57658   0.82781   0.47251   0.01267  Uiso   1.00
H547   H     0.43638   0.59006   0.37178   0.01267  Uiso   1.00
H548   H     0.44257   0.56508   0.32479   0.01267  Uiso   1.00
H549   H     0.56371   0.11770   0.82616   0.01267  Uiso   1.00
H550   H     0.58867   0.24124   0.87192   0.01267  Uiso   1.00
H551   H     0.82574   0.35456   0.97030   0.01267  Uiso   1.00
H552   H     0.80075   0.23107   0.92454   0.01267  Uiso   1.00
H553   H     0.91983   0.73923   0.57504   0.01267  Uiso   1.00
H554   H     0.92701   0.64863   0.52840   0.01267  Uiso   1.00
H555   H     0.06105   0.65732   0.62624   0.01267  Uiso   1.00
H556   H     0.05388   0.74790   0.67288   0.01267  Uiso   1.00
C557   C     0.87960   0.90780   0.45240   0.01267  Uiso   1.00
C558   C     0.99730   0.59330   0.54630   0.01267  Uiso   1.00
C559   C     0.53231   0.90549   0.72490   0.01267  Uiso   1.00
C560   C     0.46437   0.85943   0.70150   0.01267  Uiso   1.00
C561   C     0.40252   0.79920   0.65310   0.01267  Uiso   1.00
C562   C     0.40860   0.78500   0.62810   0.01267  Uiso   1.00
C563   C     0.47651   0.83103   0.65150   0.01267  Uiso   1.00
C564   C     0.53836   0.89128   0.69990   0.01267  Uiso   1.00
C565   C     0.59104   0.96424   0.77320   0.01267  Uiso   1.00
C566   C     0.60460   0.03234   0.79670   0.01267  Uiso   1.00
C567   C     0.66581   0.09419   0.84510   0.01267  Uiso   1.00
C568   C     0.71349   0.08789   0.87000   0.01267  Uiso   1.00
C569   C     0.70001   0.01991   0.84660   0.01267  Uiso   1.00
C570   C     0.63881   0.95807   0.79820   0.01267  Uiso   1.00
C571   C     0.74974   0.01352   0.87270   0.01267  Uiso   1.00
C572   C     0.77694   0.04784   0.91240   0.01267  Uiso   1.00
C573   C     0.82703   0.04357   0.93800   0.01267  Uiso   1.00
C574   C     0.84982   0.00490   0.92380   0.01267  Uiso   1.00
C575   C     0.82252   0.97048   0.88400   0.01267  Uiso   1.00
C576   C     0.77243   0.97475   0.85840   0.01267  Uiso   1.00
C577   C     0.33194   0.75124   0.62780   0.01267  Uiso   1.00
C578   C     0.26678   0.72422   0.58820   0.01267  Uiso   1.00
C579   C     0.19815   0.67237   0.56190   0.01267  Uiso   1.00
C580   C     0.19476   0.64764   0.57530   0.01267  Uiso   1.00
C581   C     0.25991   0.67467   0.61490   0.01267  Uiso   1.00
C582   C     0.32855   0.72653   0.64120   0.01267  Uiso   1.00
C583   C     0.48501   0.81493   0.62600   0.01267  Uiso   1.00
C584   C     0.52528   0.87448   0.64128   0.01267  Uiso   1.00
C585   C     0.52934   0.86188   0.61580   0.01267  Uiso   1.00
C586   C     0.49317   0.78979   0.57510   0.01267  Uiso   1.00
C587   C     0.45287   0.73021   0.55980   0.01267  Uiso   1.00
C588   C     0.44874   0.74272   0.58520   0.01267  Uiso   1.00
C589   C     0.82955   0.81383   0.62530   0.01267  Uiso   1.00
C590   C     0.76381   0.74155   0.58540   0.01267  Uiso   1.00
C591   C     0.69570   0.72810   0.56010   0.01267  Uiso   1.00
C592   C     0.69340   0.78708   0.57480   0.01267  Uiso   1.00
C593   C     0.75914   0.85936   0.61470   0.01267  Uiso   1.00
C594   C     0.82717   0.87269   0.63990   0.01267  Uiso   1.00
C595   C     0.97810   0.80086   0.65130   0.01267  Uiso   1.00
C596   C     0.90836   0.78352   0.62653   0.01267  Uiso   1.00
C597   C     0.89848   0.82672   0.65010   0.01267  Uiso   1.00
C598   C     0.95841   0.88733   0.69850   0.01267  Uiso   1.00
C599   C     0.02824   0.90476   0.72336   0.01267  Uiso   1.00
C600   C     0.03813   0.86157   0.69980   0.01267  Uiso   1.00
C601   C     0.67003   0.74891   0.37330   0.01267  Uiso   1.00
C602   C     0.73513   0.77605   0.41300   0.01267  Uiso   1.00
C603   C     0.80380   0.82640   0.43870   0.01267  Uiso   1.00
C604   C     0.80731   0.84955   0.42460   0.01267  Uiso   1.00
C605   C     0.74221   0.82241   0.38490   0.01267  Uiso   1.00
C606   C     0.67362   0.77214   0.35930   0.01267  Uiso   1.00
C607   C     0.47250   0.59550   0.27670   0.01267  Uiso   1.00
C608   C     0.46091   0.61141   0.29960   0.01267  Uiso   1.00
C609   C     0.51997   0.67231   0.34800   0.01267  Uiso   1.00
C610   C     0.59065   0.71725   0.37350   0.01267  Uiso   1.00
C611   C     0.60224   0.70128   0.35060   0.01267  Uiso   1.00
C612   C     0.54319   0.64037   0.30220   0.01267  Uiso   1.00
C613   C     0.51302   0.68262   0.37270   0.01267  Uiso   1.00
C614   C     0.55001   0.75523   0.41350   0.01267  Uiso   1.00
C615   C     0.54660   0.76908   0.43950   0.01267  Uiso   1.00
C616   C     0.50609   0.71023   0.42460   0.01267  Uiso   1.00
C617   C     0.46909   0.63763   0.38380   0.01267  Uiso   1.00
C618   C     0.47252   0.62378   0.35780   0.01267  Uiso   1.00
C619   C     0.68095   0.16791   0.87300   0.01267  Uiso   1.00
C620   C     0.62227   0.17067   0.85840   0.01267  Uiso   1.00
C621   C     0.63608   0.23896   0.88370   0.01267  Uiso   1.00
C622   C     0.70858   0.30450   0.92360   0.01267  Uiso   1.00
C623   C     0.76716   0.30164   0.93810   0.01267  Uiso   1.00
C624   C     0.75335   0.23335   0.91280   0.01267  Uiso   1.00
C625   C     0.98655   0.74845   0.62650   0.01267  Uiso   1.00
C626   C     0.95142   0.72094   0.58650   0.01267  Uiso   1.00
C627   C     0.95539   0.67083   0.56070   0.01267  Uiso   1.00
C628   C     0.99449   0.64823   0.57490   0.01267  Uiso   1.00
C629   C     0.02950   0.67564   0.61480   0.01267  Uiso   1.00
C630   C     0.02554   0.72574   0.64060   0.01267  Uiso   1.00
C631   C     0.11750   0.59210   0.54600   0.01267  Uiso   1.00
C632   C     0.49530   0.77050   0.54610   0.01267  Uiso   1.00
C633   C     0.62240   0.77200   0.54810   0.01267  Uiso   1.00
C634   C     0.49910   0.71770   0.45010   0.01267  Uiso   1.00
C635   C     0.72410   0.37870   0.95230   0.01267  Uiso   1.00
C636   C     0.90540   0.00040   0.95160   0.01267  Uiso   1.00
C637   C     0.14600   0.91740   0.72720   0.01267  Uiso   1.00
C638   C     0.20910   0.90910   0.74240   0.01267  Uiso   1.00
C639   C     0.57770   0.58310   0.27380   0.01267  Uiso   1.00
C640   C     0.57120   0.54840   0.23810   0.01267  Uiso   1.00
C641   C     0.64660   0.91000   0.73460   0.01267  Uiso   1.00
C642   C     0.73050   0.96790   0.77150   0.01267  Uiso   1.00
C643   C     0.57500   0.84860   0.76450   0.01267  Uiso   1.00
C644   C     0.54100   0.76680   0.72470   0.01267  Uiso   1.00
O645   O     0.93125   0.91961   0.48270   0.01267  Uiso   1.00
O646   O     0.87645   0.92677   0.43830   0.01267  Uiso   1.00
O647   O     0.97034   0.57672   0.51390   0.01267  Uiso   1.00
O648   O     0.03009   0.57265   0.56110   0.01267  Uiso   1.00
O649   O     0.92971   0.97113   0.93990   0.01267  Uiso   1.00
O650   O     0.62253   0.82737   0.56000   0.01267  Uiso   1.00
O651   O     0.56510   0.71062   0.51460   0.01267  Uiso   1.00
O652   O     0.47293   0.71107   0.51600   0.01267  Uiso   1.00
O653   O     0.52879   0.82953   0.56140   0.01267  Uiso   1.00
O654   O     0.78963   0.43637   0.98590   0.01267  Uiso   1.00
O655   O     0.67088   0.37950   0.94070   0.01267  Uiso   1.00
O656   O     0.47062   0.66954   0.43940   0.01267  Uiso   1.00
O657   O     0.52758   0.78664   0.48340   0.01267  Uiso   1.00
O658   O     0.92327   0.02799   0.98520   0.01267  Uiso   1.00
O659   O     0.06642   0.57800   0.51540   0.01267  Uiso   1.00
O660   O     0.12383   0.57261   0.56150   0.01267  Uiso   1.00
O661   O     0.10330   0.87510   0.72190   0.01267  Uiso   1.00
O662   O     0.54800   0.62240   0.27640   0.01267  Uiso   1.00
O663   O     0.60690   0.93770   0.72600   0.01267  Uiso   1.00
O664   O     0.62450   0.89170   0.77450   0.01267  Uiso   1.00
H665   H     0.45951   0.87092   0.72172   0.00000  Uiso   1.00
H666   H     0.56605   0.03742   0.77656   0.00000  Uiso   1.00
H667   H     0.95046   0.92230   0.71758   0.00000  Uiso   1.00
H668   H     0.40379   0.57504   0.27899   0.00000  Uiso   1.00
H669   H     0.17093   0.97757   0.75503   0.00000  Uiso   1.00
H670   H     0.11088   0.89368   0.69353   0.00000  Uiso   1.00
H671   H     0.21808   0.89487   0.75809   0.00000  Uiso   1.00
H672   H     0.19223   0.86355   0.71112   0.00000  Uiso   1.00
H673   H     0.26212   0.96295   0.76887   0.00000  Uiso   1.00
H674   H     0.54709   0.53770   0.26384   0.00000  Uiso   1.00
H675   H     0.63792   0.62339   0.30933   0.00000  Uiso   1.00
H676   H     0.61026   0.53427   0.24514   0.00000  Uiso   1.00
H677   H     0.51252   0.49638   0.20199   0.00000  Uiso   1.00
H678   H     0.58607   0.58919   0.24108   0.00000  Uiso   1.00
H679   H     0.62183   0.85764   0.70116   0.00000  Uiso   1.00
H680   H     0.64082   0.89684   0.74752   0.00000  Uiso   1.00
H681   H     0.73733   0.97040   0.75534   0.00000  Uiso   1.00
H682   H     0.75222   0.02421   0.80174   0.00000  Uiso   1.00
H683   H     0.76252   0.95090   0.78406   0.00000  Uiso   1.00
H684   H     0.52971   0.85438   0.75309   0.00000  Uiso   1.00
H685   H     0.60561   0.86675   0.79597   0.00000  Uiso   1.00
H686   H     0.48694   0.72905   0.70629   0.00000  Uiso   1.00
H687   H     0.53067   0.75526   0.69931   0.00000  Uiso   1.00
H688   H     0.58063   0.75652   0.73952   0.00000  Uiso   1.00
loop_
_geom_bond_atom_site_label_1
_geom_bond_atom_site_label_2
_geom_bond_distance
_geom_bond_site_symmetry_2
_ccdc_geom_bond_type
Cu1    O140    1.920   .     S
Cu1    O655    1.897   .     S
Cu1    Cu3     2.634   1_556 S
Cu1    O135    1.945   1_556 S
Cu1    O136    1.985   1_556 S
Cu2    O476    1.946   .     S
Cu2    O488    1.945   .     S
Cu2    Cu346   2.638   1_566 S
Cu2    O131    1.951   1_556 S
Cu2    O143    1.959   1_566 S
Cu3    O134    1.976   .     S
Cu3    O137    1.996   .     S
Cu3    Cu1     2.634   1_554 S
Cu3    O141    2.001   1_554 S
Cu3    O654    1.906   1_554 S
Cu4    Cu348   2.629   1_466 S
Cu4    O130    1.946   1_455 S
Cu4    O314    1.942   1_556 S
Cu4    O473    1.989   1_566 S
Cu4    O649    1.917   1_455 S
H5     C46     1.140   .     S
H6     C52     1.140   .     S
H7     C56     1.140   .     S
H8     C57     1.140   .     S
H9     C59     1.140   .     S
H10    C60     1.140   .     S
H11    C62     1.140   .     S
H12    C63     1.140   .     S
H13    C65     1.140   .     S
H14    C66     1.140   .     S
H15    C68     1.140   .     S
H16    C69     1.140   .     S
H17    C71     1.140   .     S
H18    C72     1.140   .     S
H19    C74     1.140   .     S
H20    C75     1.140   .     S
H21    C77     1.140   .     S
H22    C78     1.140   .     S
H23    C80     1.140   .     S
H24    C86     1.140   .     S
H25    C87     1.140   .     S
H26    C89     1.140   .     S
H27    C90     1.140   .     S
H28    C94     1.140   .     S
H29    C98     1.140   .     S
H30    C99     1.140   .     S
H31    C101    1.140   .     S
H32    C102    1.140   .     S
H33    C104    1.140   .     S
H34    C105    1.140   .     S
H35    C107    1.140   .     S
H36    C108    1.140   .     S
H37    C110    1.140   .     S
H38    C111    1.140   .     S
H39    C113    1.140   .     S
H40    C114    1.140   .     S
C41    C88     1.527   .     S
C41    O129    1.241   .     A
C41    O130    1.228   .     A
C42    C112    1.521   .     S
C42    O131    1.245   .     A
C42    O132    1.304   1_565 S
C43    C44     1.410   .     A
C43    C48     1.410   .     A
C43    C49     1.409   .     S
C44    C45     1.410   .     A
C44    H149    1.140   .     S
C45    C46     1.411   .     A
C45    C61     1.439   .     S
C46    C47     1.409   .     A
C47    C48     1.410   .     A
C47    C67     1.477   .     S
C48    O147    1.358   .     S
C49    C54     1.411   .     A
C49    C50     1.410   1_655 S
C50    C51     1.410   .     A
C50    H150    1.140   .     S
C50    C49     1.410   1_455 S
C51    C52     1.410   .     A
C51    C103    1.520   .     S
C52    C53     1.408   .     A
C53    C55     1.471   .     S
C53    C54     1.410   1_455 S
C54    O148    1.361   .     S
C54    C53     1.410   1_655 S
C55    C56     1.408   .     A
C55    C60     1.411   1_455 S
C56    C57     1.411   .     A
C57    C58     1.410   .     A
C58    C120    1.543   .     S
C58    C59     1.411   1_455 S
C59    C60     1.411   .     A
C59    C58     1.411   1_655 S
C60    C55     1.411   1_655 S
C61    C62     1.409   .     A
C61    C66     1.410   .     A
C62    C63     1.410   .     A
C63    C64     1.411   .     A
C64    C65     1.409   .     A
C64    C115    1.564   .     S
C65    C66     1.410   .     A
C67    C68     1.410   .     A
C67    C72     1.411   .     A
C68    C69     1.411   .     A
C69    C70     1.409   .     A
C70    C71     1.410   .     A
C70    C116    1.497   .     S
C71    C72     1.409   .     A
C73    C74     1.410   .     A
C73    C78     1.410   .     A
C73    C81     1.435   .     S
C74    C75     1.410   .     A
C75    C76     1.411   .     A
C76    C77     1.410   .     A
C76    C117    1.458   .     S
C77    C78     1.409   .     A
C79    C80     1.409   .     A
C79    C109    1.510   .     S
C79    C84     1.413   1_565 S
C80    C81     1.410   .     S
C81    C82     1.410   .     A
C82    H151    1.140   .     S
C82    C83     1.410   1_565 S
C83    C84     1.409   .     A
C83    C255    1.552   .     S
C83    C82     1.410   1_545 S
C84    O145    1.346   .     S
C84    C79     1.413   1_545 S
C85    C86     1.410   .     A
C85    C90     1.409   .     A
C85    C95     1.444   .     S
C86    C87     1.410   .     A
C87    C88     1.411   .     A
C88    C89     1.410   .     A
C89    C90     1.410   .     A
C91    C92     1.410   .     A
C91    C96     1.410   .     A
C91    C263    1.556   .     S
C92    C93     1.410   .     A
C92    H152    1.140   .     S
C93    C94     1.410   .     A
C93    C97     1.457   .     S
C94    C95     1.410   .     A
C95    C96     1.410   .     A
C96    O146    1.391   .     S
C97    C98     1.410   .     A
C97    C102    1.410   .     A
C98    C99     1.412   .     A
C99    C100    1.410   .     A
C100   C101    1.410   .     A
C100   C118    1.541   .     S
C101   C102    1.412   .     A
C103   C104    1.410   .     A
C103   C108    1.409   .     A
C104   C105    1.410   .     A
C105   C106    1.411   .     A
C106   C107    1.410   .     A
C106   C119    1.529   .     S
C107   C108    1.410   .     A
C109   C110    1.412   .     A
C109   C114    1.410   1_565 S
C110   C111    1.410   .     A
C111   C112    1.411   .     A
C112   C113    1.409   1_565 S
C113   C114    1.410   .     A
C113   C112    1.409   1_545 S
C114   C109    1.410   1_545 S
C115   O143    1.204   .     A
C115   O144    1.288   .     A
C116   O136    1.177   .     A
C116   O137    1.321   .     A
C117   O134    1.317   .     A
C117   O135    1.215   .     A
C118   O140    1.155   .     A
C118   O141    1.318   .     A
C119   O138    1.279   .     A
C119   O139    1.274   .     A
C120   O142    1.283   .     A
C120   O133    1.275   1_455 S
C121   C122    1.594   .     S
C121   O145    1.495   .     S
C121   H153    1.140   .     S
C121   H154    1.140   .     S
C122   H155    1.140   .     S
C122   H156    1.140   .     S
C122   H157    1.140   .     S
C123   C124    1.560   .     S
C123   O146    1.445   .     S
C123   H158    1.140   .     S
C123   H159    1.140   .     S
C124   H160    1.140   .     S
C124   H161    1.140   .     S
C124   H162    1.140   .     S
C125   C126    1.579   .     S
C125   O147    1.444   .     S
C125   H163    1.140   .     S
C125   H164    1.140   .     S
C126   H165    1.140   .     S
C126   H167    1.140   .     S
C126   H166    1.140   1_655 S
C127   C128    1.565   .     S
C127   O148    1.437   .     S
C127   H168    1.140   .     S
C127   H169    1.140   .     S
C128   H170    1.140   .     S
C128   H171    1.140   .     S
C128   H172    1.140   .     S
O129   Cu348   1.989   1_566 S
O130   Cu4     1.946   1_655 S
O131   Cu2     1.951   1_554 S
O132   Cu346   1.946   .     S
O132   C42     1.304   1_545 S
O133   C120    1.275   1_655 S
O133   Cu520   1.917   1_565 S
O135   Cu1     1.945   1_554 S
O136   Cu1     1.985   1_554 S
O138   Cu519   1.906   .     S
O139   Cu517   1.897   .     S
O141   Cu3     2.001   1_556 S
O142   Cu176   1.942   .     S
O143   Cu2     1.959   1_544 S
O144   Cu346   1.945   .     S
H166   C126    1.140   1_455 S
Cu173  Cu175   2.634   .     S
Cu173  O307    1.945   .     S
Cu173  O308    1.985   .     S
Cu173  O312    1.920   .     S
Cu173  O483    1.897   .     S
Cu174  O303    1.951   .     S
Cu174  O648    1.946   .     S
Cu174  O660    1.945   .     S
Cu174  Cu518   2.638   1_455 A
Cu174  O315    1.959   1_455 S
Cu175  O306    1.976   .     S
Cu175  O309    1.996   .     S
Cu175  O313    2.001   .     S
Cu175  O482    1.906   .     S
Cu176  Cu520   2.629   1_465 A
Cu176  O302    1.946   1_565 A
Cu176  O645    1.989   1_455 A
Cu176  O477    1.917   1_565 S
H177   C218    1.140   .     S
H178   C224    1.140   .     S
H179   C228    1.140   .     S
H180   C229    1.140   .     S
H181   C231    1.140   .     S
H182   C232    1.140   .     S
H183   C234    1.140   .     S
H184   C235    1.140   .     S
H185   C237    1.140   .     S
H186   C238    1.140   .     S
H187   C240    1.140   .     S
H188   C241    1.140   .     S
H189   C243    1.140   .     S
H190   C244    1.140   .     S
H191   C246    1.140   .     S
H192   C247    1.140   .     S
H193   C249    1.140   .     S
H194   C250    1.140   .     S
H195   C252    1.140   .     S
H196   C258    1.140   .     S
H197   C259    1.140   .     S
H198   C261    1.140   .     S
H199   C262    1.140   .     S
H200   C266    1.140   .     S
H201   C270    1.140   .     S
H202   C271    1.140   .     S
H203   C273    1.140   .     S
H204   C274    1.140   .     S
H205   C276    1.140   .     S
H206   C277    1.140   .     S
H207   C279    1.140   .     S
H208   C280    1.140   .     S
H209   C282    1.140   .     S
H210   C283    1.140   .     S
H211   C285    1.140   .     S
H212   C286    1.140   .     S
C213   C260    1.527   .     S
C213   O301    1.241   .     A
C213   O302    1.228   .     A
C214   C284    1.521   .     S
C214   O303    1.245   .     A
C214   O304    1.304   1_455 A
C215   C216    1.410   .     A
C215   C220    1.410   .     A
C215   C221    1.409   .     S
C216   C217    1.410   .     A
C216   H321    1.140   .     S
C217   C218    1.411   .     A
C217   C233    1.439   .     S
C218   C219    1.409   .     A
C219   C220    1.410   .     A
C219   C239    1.477   .     S
C220   O319    1.358   .     S
C221   C226    1.411   .     A
C221   C222    1.410   1_545 S
C222   C223    1.410   .     A
C222   H322    1.140   .     S
C222   C221    1.410   1_565 S
C223   C224    1.410   .     A
C223   C275    1.520   .     S
C224   C225    1.408   .     A
C225   C227    1.471   .     S
C225   C226    1.410   1_565 S
C226   O320    1.361   .     S
C226   C225    1.410   1_545 S
C227   C228    1.408   .     A
C227   C232    1.411   1_565 A
C228   C229    1.411   .     A
C229   C230    1.410   .     A
C230   C292    1.543   .     S
C230   C231    1.411   1_565 S
C231   C232    1.411   .     A
C231   C230    1.411   1_545 S
C232   C227    1.411   1_545 A
C233   C234    1.409   .     A
C233   C238    1.410   .     A
C234   C235    1.410   .     A
C235   C236    1.411   .     A
C236   C237    1.409   .     A
C236   C287    1.564   .     S
C237   C238    1.410   .     A
C239   C240    1.410   .     A
C239   C244    1.411   .     A
C240   C241    1.411   .     A
C241   C242    1.409   .     A
C242   C243    1.410   .     A
C242   C288    1.497   .     S
C243   C244    1.409   .     A
C245   C246    1.410   .     A
C245   C250    1.410   .     A
C245   C253    1.435   .     S
C246   C247    1.410   .     A
C247   C248    1.411   .     A
C248   C249    1.410   .     A
C248   C289    1.458   .     S
C249   C250    1.409   .     A
C251   C252    1.409   .     A
C251   C281    1.510   .     S
C251   C256    1.413   1_455 A
C252   C253    1.410   .     S
C253   C254    1.410   .     A
C254   H323    1.140   .     S
C254   C255    1.410   1_455 S
C255   C256    1.409   .     A
C255   C254    1.410   1_655 S
C256   O317    1.346   .     S
C256   C251    1.413   1_655 A
C257   C258    1.410   .     A
C257   C262    1.409   .     A
C257   C267    1.444   .     S
C258   C259    1.410   .     A
C259   C260    1.411   .     A
C260   C261    1.410   .     A
C261   C262    1.410   .     A
C263   C264    1.410   .     A
C263   C268    1.410   .     A
C264   C265    1.410   .     A
C264   H324    1.140   .     S
C265   C266    1.410   .     A
C265   C269    1.457   .     S
C266   C267    1.410   .     A
C267   C268    1.410   .     A
C268   O318    1.391   .     S
C269   C270    1.410   .     A
C269   C274    1.410   .     A
C270   C271    1.412   .     A
C271   C272    1.410   .     A
C272   C273    1.410   .     A
C272   C290    1.541   .     S
C273   C274    1.412   .     A
C275   C276    1.410   .     A
C275   C280    1.409   .     A
C276   C277    1.410   .     A
C277   C278    1.411   .     A
C278   C279    1.410   .     A
C278   C291    1.529   .     S
C279   C280    1.410   .     A
C281   C282    1.412   .     A
C281   C286    1.410   1_455 A
C282   C283    1.410   .     A
C283   C284    1.411   .     A
C284   C285    1.409   1_455 S
C285   C286    1.410   .     A
C285   C284    1.409   1_655 S
C286   C281    1.410   1_655 A
C287   O315    1.204   .     A
C287   O316    1.288   .     A
C288   O308    1.177   .     A
C288   O309    1.321   .     A
C289   O306    1.317   .     A
C289   O307    1.215   .     A
C290   O312    1.155   .     A
C290   O313    1.318   .     A
C291   O310    1.279   .     A
C291   O311    1.274   .     A
C292   O314    1.283   .     A
C292   O305    1.275   1_565 A
C293   C294    1.594   .     S
C293   O317    1.495   .     S
C293   H325    1.140   .     S
C293   H326    1.140   .     S
C294   H327    1.140   .     S
C294   H328    1.140   .     S
C294   H329    1.140   .     S
C295   C296    1.560   .     S
C295   O318    1.445   .     S
C295   H330    1.140   .     S
C295   H331    1.140   .     S
C296   H332    1.140   .     S
C296   H333    1.140   .     S
C296   H334    1.140   .     S
C297   C298    1.579   .     S
C297   O319    1.444   .     S
C297   H335    1.140   .     S
C297   H336    1.140   .     S
C298   H337    1.140   .     S
C298   H339    1.140   .     S
C298   H338    1.140   1_545 A
C299   C300    1.565   .     S
C299   O320    1.437   .     S
C299   H340    1.140   .     S
C299   H341    1.140   .     S
C300   H342    1.140   .     S
C300   H343    1.140   .     S
C300   H344    1.140   .     S
O301   Cu520   1.989   1_455 S
O302   Cu176   1.946   1_545 A
O304   Cu518   1.946   .     S
O304   C214    1.304   1_655 A
O305   C292    1.275   1_545 A
O305   Cu348   1.917   1_455 A
O310   Cu347   1.906   1_554 A
O311   Cu345   1.897   .     S
O314   Cu4     1.942   1_554 S
O315   Cu174   1.959   1_655 S
O316   Cu518   1.945   .     S
H338   C298    1.140   1_565 A
Cu345  O484    1.920   .     S
Cu345  Cu347   2.634   1_554 A
Cu345  O479    1.945   1_554 A
Cu345  O480    1.985   1_554 A
Cu346  Cu2     2.638   1_544 S
Cu346  O475    1.951   1_554 A
Cu346  O487    1.959   1_544 S
Cu347  O478    1.976   .     S
Cu347  O481    1.996   .     S
Cu347  O310    1.906   1_556 A
Cu347  Cu345   2.634   1_556 A
Cu347  O485    2.001   1_556 A
Cu348  Cu4     2.629   1_644 S
Cu348  O129    1.989   1_544 S
Cu348  O305    1.917   1_655 A
Cu348  O474    1.946   1_655 A
Cu348  O658    1.942   1_554 S
H349   C390    1.140   .     S
H350   C396    1.140   .     S
H351   C400    1.140   .     S
H352   C401    1.140   .     S
H353   C403    1.140   .     S
H354   C404    1.140   .     S
H355   C406    1.140   .     S
H356   C407    1.140   .     S
H357   C409    1.140   .     S
H358   C410    1.140   .     S
H359   C412    1.140   .     S
H360   C413    1.140   .     S
H361   C415    1.140   .     S
H362   C416    1.140   .     S
H363   C418    1.140   .     S
H364   C419    1.140   .     S
H365   C421    1.140   .     S
H366   C422    1.140   .     S
H367   C424    1.140   .     S
H368   C430    1.140   .     S
H369   C431    1.140   .     S
H370   C433    1.140   .     S
H371   C434    1.140   .     S
H372   C438    1.140   .     S
H373   C442    1.140   .     S
H374   C443    1.140   .     S
H375   C445    1.140   .     S
H376   C446    1.140   .     S
H377   C448    1.140   .     S
H378   C449    1.140   .     S
H379   C451    1.140   .     S
H380   C452    1.140   .     S
H381   C454    1.140   .     S
H382   C455    1.140   .     S
H383   C457    1.140   .     S
H384   C458    1.140   .     S
C385   C432    1.527   .     S
C385   O473    1.241   .     A
C385   O474    1.228   .     A
C386   C456    1.521   .     S
C386   O475    1.245   .     A
C386   O476    1.304   1_545 A
C387   C388    1.410   .     A
C387   C392    1.410   .     A
C387   C393    1.409   .     S
C388   C389    1.410   .     A
C388   H493    1.140   .     S
C389   C390    1.411   .     A
C389   C405    1.439   .     S
C390   C391    1.409   .     A
C391   C392    1.410   .     A
C391   C411    1.477   .     S
C392   O491    1.358   .     S
C393   C398    1.411   .     A
C393   C394    1.410   1_455 A
C394   C395    1.410   .     A
C394   H494    1.140   .     S
C394   C393    1.410   1_655 A
C395   C396    1.410   .     A
C395   C447    1.520   .     S
C396   C397    1.408   .     A
C397   C399    1.471   .     S
C397   C398    1.410   1_655 S
C398   O492    1.361   .     S
C398   C397    1.410   1_455 S
C399   C400    1.408   .     A
C399   C404    1.411   1_655 S
C400   C401    1.411   .     A
C401   C402    1.410   .     A
C402   C464    1.543   .     S
C402   C403    1.411   1_655 A
C403   C404    1.411   .     A
C403   C402    1.411   1_455 A
C404   C399    1.411   1_455 S
C405   C406    1.409   .     A
C405   C410    1.410   .     A
C406   C407    1.410   .     A
C407   C408    1.411   .     A
C408   C409    1.409   .     A
C408   C459    1.564   .     S
C409   C410    1.410   .     A
C411   C412    1.410   .     A
C411   C416    1.411   .     A
C412   C413    1.411   .     A
C413   C414    1.409   .     A
C414   C415    1.410   .     A
C414   C460    1.497   .     S
C415   C416    1.409   .     A
C417   C418    1.410   .     A
C417   C422    1.410   .     A
C417   C425    1.435   .     S
C418   C419    1.410   .     A
C419   C420    1.411   .     A
C420   C421    1.410   .     A
C420   C461    1.458   .     S
C421   C422    1.409   .     A
C423   C424    1.409   .     A
C423   C453    1.510   .     S
C423   C428    1.413   1_545 A
C424   C425    1.410   .     S
C425   C426    1.410   .     A
C426   H495    1.140   .     S
C426   C427    1.410   1_545 A
C427   C428    1.409   .     A
C427   C599    1.552   .     S
C427   C426    1.410   1_565 A
C428   O489    1.346   .     S
C428   C423    1.413   1_565 A
C429   C430    1.410   .     A
C429   C434    1.409   .     A
C429   C439    1.444   .     S
C430   C431    1.410   .     A
C431   C432    1.411   .     A
C432   C433    1.410   .     A
C433   C434    1.410   .     A
C435   C436    1.410   .     A
C435   C440    1.410   .     A
C435   C607    1.556   .     S
C436   C437    1.410   .     A
C436   H496    1.140   .     S
C437   C438    1.410   .     A
C437   C441    1.457   .     S
C438   C439    1.410   .     A
C439   C440    1.410   .     A
C440   O490    1.391   .     S
C441   C442    1.410   .     A
C441   C446    1.410   .     A
C442   C443    1.412   .     A
C443   C444    1.410   .     A
C444   C445    1.410   .     A
C444   C462    1.541   .     S
C445   C446    1.412   .     A
C447   C448    1.410   .     A
C447   C452    1.409   .     A
C448   C449    1.410   .     A
C449   C450    1.411   .     A
C450   C451    1.410   .     A
C450   C463    1.529   .     S
C451   C452    1.410   .     A
C453   C454    1.412   .     A
C453   C458    1.410   1_545 A
C454   C455    1.410   .     A
C455   C456    1.411   .     A
C456   C457    1.409   1_545 A
C457   C458    1.410   .     A
C457   C456    1.409   1_565 A
C458   C453    1.410   1_565 A
C459   O487    1.204   .     A
C459   O488    1.288   .     A
C460   O480    1.177   .     A
C460   O481    1.321   .     A
C461   O478    1.317   .     A
C461   O479    1.215   .     A
C462   O484    1.155   .     A
C462   O485    1.318   .     A
C463   O482    1.279   .     A
C463   O483    1.274   .     A
C464   O486    1.283   .     A
C464   O477    1.275   1_655 A
C465   C466    1.594   .     S
C465   O489    1.495   .     S
C465   H497    1.140   .     S
C465   H498    1.140   .     S
C466   H499    1.140   .     S
C466   H500    1.140   .     S
C466   H501    1.140   .     S
C467   C468    1.560   .     S
C467   O490    1.445   .     S
C467   H502    1.140   .     S
C467   H503    1.140   .     S
C468   H504    1.140   .     S
C468   H505    1.140   .     S
C468   H506    1.140   .     S
C469   C470    1.579   .     S
C469   O491    1.444   .     S
C469   H507    1.140   .     S
C469   H508    1.140   .     S
C470   H509    1.140   .     S
C470   H511    1.140   .     S
C470   H510    1.140   1_455 S
C471   C472    1.565   .     S
C471   O492    1.437   .     S
C471   H512    1.140   .     S
C471   H513    1.140   .     S
C472   H514    1.140   .     S
C472   H515    1.140   .     S
C472   H516    1.140   .     S
O473   Cu4     1.989   1_544 S
O474   Cu348   1.946   1_455 A
O475   Cu346   1.951   1_556 A
O476   C386    1.304   1_565 A
O477   Cu176   1.917   1_545 S
O477   C464    1.275   1_455 A
O479   Cu345   1.945   1_556 A
O480   Cu345   1.985   1_556 A
O485   Cu347   2.001   1_554 A
O486   Cu520   1.942   .     S
O487   Cu346   1.959   1_566 S
H510   C470    1.140   1_655 S
Cu517  Cu519   2.634   .     S
Cu517  O651    1.945   .     S
Cu517  O652    1.985   .     S
Cu517  O656    1.920   .     S
Cu518  O647    1.951   .     S
Cu518  Cu174   2.638   1_655 A
Cu518  O659    1.959   1_655 S
Cu519  O650    1.976   .     S
Cu519  O653    1.996   .     S
Cu519  O657    2.001   .     S
Cu520  O133    1.917   1_545 S
Cu520  Cu176   2.629   1_645 A
Cu520  O301    1.989   1_655 S
Cu520  O646    1.946   1_545 A
H521   C562    1.140   .     S
H522   C568    1.140   .     S
H523   C572    1.140   .     S
H524   C573    1.140   .     S
H525   C575    1.140   .     S
H526   C576    1.140   .     S
H527   C578    1.140   .     S
H528   C579    1.140   .     S
H529   C581    1.140   .     S
H530   C582    1.140   .     S
H531   C584    1.140   .     S
H532   C585    1.140   .     S
H533   C587    1.140   .     S
H534   C588    1.140   .     S
H535   C590    1.140   .     S
H536   C591    1.140   .     S
H537   C593    1.140   .     S
H538   C594    1.140   .     S
H539   C596    1.140   .     S
H540   C602    1.140   .     S
H541   C603    1.140   .     S
H542   C605    1.140   .     S
H543   C606    1.140   .     S
H544   C610    1.140   .     S
H545   C614    1.140   .     S
H546   C615    1.140   .     S
H547   C617    1.140   .     S
H548   C618    1.140   .     S
H549   C620    1.140   .     S
H550   C621    1.140   .     S
H551   C623    1.140   .     S
H552   C624    1.140   .     S
H553   C626    1.140   .     S
H554   C627    1.140   .     S
H555   C629    1.140   .     S
H556   C630    1.140   .     S
C557   C604    1.527   .     S
C557   O645    1.241   .     A
C557   O646    1.228   .     A
C558   C628    1.521   .     S
C558   O647    1.245   .     A
C558   O648    1.304   1_655 A
C559   C560    1.410   .     A
C559   C564    1.410   .     A
C559   C565    1.409   .     S
C560   C561    1.410   .     A
C560   H665    1.140   .     S
C561   C562    1.411   .     A
C561   C577    1.439   .     S
C562   C563    1.409   .     A
C563   C564    1.410   .     A
C563   C583    1.477   .     S
C564   O663    1.358   .     S
C565   C570    1.411   .     A
C565   C566    1.410   1_565 A
C566   C567    1.410   .     A
C566   H666    1.140   .     S
C566   C565    1.410   1_545 A
C567   C568    1.410   .     A
C567   C619    1.520   .     S
C568   C569    1.408   .     A
C569   C571    1.471   .     S
C569   C570    1.410   1_545 A
C570   O664    1.361   .     S
C570   C569    1.410   1_565 A
C571   C572    1.408   .     A
C571   C576    1.411   1_545 A
C572   C573    1.411   .     A
C573   C574    1.410   .     A
C574   C636    1.543   .     S
C574   C575    1.411   1_545 A
C575   C576    1.411   .     A
C575   C574    1.411   1_565 A
C576   C571    1.411   1_565 A
C577   C578    1.409   .     A
C577   C582    1.410   .     A
C578   C579    1.410   .     A
C579   C580    1.411   .     A
C580   C581    1.409   .     A
C580   C631    1.564   .     S
C581   C582    1.410   .     A
C583   C584    1.410   .     A
C583   C588    1.411   .     A
C584   C585    1.411   .     A
C585   C586    1.409   .     A
C586   C587    1.410   .     A
C586   C632    1.497   .     S
C587   C588    1.409   .     A
C589   C590    1.410   .     A
C589   C594    1.410   .     A
C589   C597    1.435   .     S
C590   C591    1.410   .     A
C591   C592    1.411   .     A
C592   C593    1.410   .     A
C592   C633    1.458   .     S
C593   C594    1.409   .     A
C595   C596    1.409   .     A
C595   C625    1.510   .     S
C595   C600    1.413   1_655 A
C596   C597    1.410   .     S
C597   C598    1.410   .     A
C598   H667    1.140   .     S
C598   C599    1.410   1_655 A
C599   C600    1.409   .     A
C599   C598    1.410   1_455 A
C600   O661    1.346   .     S
C600   C595    1.413   1_455 A
C601   C602    1.410   .     A
C601   C606    1.409   .     A
C601   C611    1.444   .     S
C602   C603    1.410   .     A
C603   C604    1.411   .     A
C604   C605    1.410   .     A
C605   C606    1.410   .     A
C607   C608    1.410   .     A
C607   C612    1.410   .     A
C608   C609    1.410   .     A
C608   H668    1.140   .     S
C609   C610    1.410   .     A
C609   C613    1.457   .     S
C610   C611    1.410   .     A
C611   C612    1.410   .     A
C612   O662    1.391   .     S
C613   C614    1.410   .     A
C613   C618    1.410   .     A
C614   C615    1.412   .     A
C615   C616    1.410   .     A
C616   C617    1.410   .     A
C616   C634    1.541   .     S
C617   C618    1.412   .     A
C619   C620    1.410   .     A
C619   C624    1.409   .     A
C620   C621    1.410   .     A
C621   C622    1.411   .     A
C622   C623    1.410   .     A
C622   C635    1.529   .     S
C623   C624    1.410   .     A
C625   C626    1.412   .     A
C625   C630    1.410   1_655 A
C626   C627    1.410   .     A
C627   C628    1.411   .     A
C628   C629    1.409   1_655 A
C629   C630    1.410   .     A
C629   C628    1.409   1_455 A
C630   C625    1.410   1_455 A
C631   O659    1.204   .     A
C631   O660    1.288   .     A
C632   O652    1.177   .     A
C632   O653    1.321   .     A
C633   O650    1.317   .     A
C633   O651    1.215   .     A
C634   O656    1.155   .     A
C634   O657    1.318   .     A
C635   O654    1.279   .     A
C635   O655    1.274   .     A
C636   O658    1.283   .     A
C636   O649    1.275   1_545 A
C637   C638    1.594   .     S
C637   O661    1.495   .     S
C637   H669    1.140   .     S
C637   H670    1.140   .     S
C638   H671    1.140   .     S
C638   H672    1.140   .     S
C638   H673    1.140   .     S
C639   C640    1.560   .     S
C639   O662    1.445   .     S
C639   H674    1.140   .     S
C639   H675    1.140   .     S
C640   H676    1.140   .     S
C640   H677    1.140   .     S
C640   H678    1.140   .     S
C641   C642    1.579   .     S
C641   O663    1.444   .     S
C641   H679    1.140   .     S
C641   H680    1.140   .     S
C642   H681    1.140   .     S
C642   H683    1.140   .     S
C642   H682    1.140   1_565 A
C643   C644    1.565   .     S
C643   O664    1.437   .     S
C643   H684    1.140   .     S
C643   H685    1.140   .     S
C644   H686    1.140   .     S
C644   H687    1.140   .     S
C644   H688    1.140   .     S
O645   Cu176   1.989   1_655 A
O646   Cu520   1.946   1_565 A
O648   C558    1.304   1_455 A
O649   Cu4     1.917   1_655 S
O649   C636    1.275   1_565 A
O654   Cu3     1.906   1_556 S
O658   Cu348   1.942   1_556 S
O659   Cu518   1.959   1_455 S
H682   C642    1.140   1_545 A
