data_image0
_cell_length_a       25.107
_cell_length_b       25.107
_cell_length_c       23.531
_cell_angle_alpha    90
_cell_angle_beta     90
_cell_angle_gamma    90

_symmetry_space_group_name_H-M    "P 1"
_symmetry_int_tables_number       1

loop_
  _symmetry_equiv_pos_as_xyz
  'x, y, z'

loop_
  _atom_site_label
  _atom_site_occupancy
  _atom_site_fract_x
  _atom_site_fract_y
  _atom_site_fract_z
  _atom_site_thermal_displace_type
  _atom_site_B_iso_or_equiv
  _atom_site_type_symbol
  C1       1.0000 0.13730  0.20860  0.78630  Biso   1.000  C
  C2       1.0000 0.27200  0.99300  0.83440  Biso   1.000  C
  H1       1.0000 0.29200  0.00040  0.86880  Biso   1.000  H
  H2       1.0000 0.29610  0.98810  0.80250  Biso   1.000  H
  C3       1.0000 0.25880  0.89690  0.85270  Biso   1.000  C
  H3       1.0000 0.26670  0.89430  0.89300  Biso   1.000  H
  H4       1.0000 0.29200  0.89990  0.83200  Biso   1.000  H
  C4       1.0000 0.22800  0.84800  0.83310  Biso   1.000  C
  H5       1.0000 0.24180  0.81600  0.85100  Biso   1.000  H
  H6       1.0000 0.19050  0.85130  0.84250  Biso   1.000  H
  C5       1.0000 0.20730  0.84430  0.59770  Biso   1.000  C
  H7       1.0000 0.16950  0.84370  0.58900  Biso   1.000  H
  H8       1.0000 0.22330  0.81200  0.58310  Biso   1.000  H
  C6       1.0000 0.02629  0.57030  0.57020  Biso   1.000  C
  C7       1.0000 0.14910  0.67370  0.79170  Biso   1.000  C
  C8       1.0000 0.09430  0.66860  0.81030  Biso   1.000  C
  H9       1.0000 0.06950  0.69470  0.80090  Biso   1.000  H
  C9       1.0000 0.07920  0.62520  0.84190  Biso   1.000  C
  H10      1.0000 0.04380  0.62140  0.85260  Biso   1.000  H
  C10      1.0000 0.11530  0.58760  0.85770  Biso   1.000  C
  C11      1.0000 0.16740  0.59200  0.84090  Biso   1.000  C
  H11      1.0000 0.19190  0.56590  0.85140  Biso   1.000  H
  C12      1.0000 0.18390  0.63460  0.80840  Biso   1.000  C
  H12      1.0000 0.21940  0.63700  0.79760  Biso   1.000  H
  C13      1.0000 0.09700  0.54030  0.89290  Biso   1.000  C
  O1       1.0000 0.13279  0.37601  0.89894  Biso   1.000  O
  O2       1.0000 0.04600  0.35973  0.88376  Biso   1.000  O
  O3       1.0000 0.22660  0.94100  0.84220  Biso   1.000  O
  O4       1.0000 0.97697  0.57244  0.57921  Biso   1.000  O
  O5       1.0000 0.04744  0.53977  0.53381  Biso   1.000  O
  O6       1.0000 0.13318  0.50637  0.90592  Biso   1.000  O
  O7       1.0000 0.05035  0.53779  0.90640  Biso   1.000  O
  C14      1.0000 0.09500  0.34880  0.87910  Biso   1.000  C
  C15      1.0000 0.10840  0.29790  0.84730  Biso   1.000  C
  C16      1.0000 0.15940  0.27860  0.85120  Biso   1.000  C
  H13      1.0000 0.18460  0.29600  0.87330  Biso   1.000  H
  C17      1.0000 0.17310  0.23120  0.82090  Biso   1.000  C
  H14      1.0000 0.20680  0.21620  0.82510  Biso   1.000  H
  C18      1.0000 0.08570  0.22860  0.78500  Biso   1.000  C
  H15      1.0000 0.05970  0.21120  0.76370  Biso   1.000  H
  C19      1.0000 0.07270  0.27380  0.81490  Biso   1.000  C
  H16      1.0000 0.03840  0.28770  0.81230  Biso   1.000  H
  C20      1.0000 0.15130  0.16090  0.74920  Biso   1.000  C
  C21      1.0000 0.17390  0.11670  0.77510  Biso   1.000  C
  H17      1.0000 0.17890  0.11710  0.81420  Biso   1.000  H
  C22      1.0000 0.18930  0.07210  0.74520  Biso   1.000  C
  C23      1.0000 0.18030  0.07200  0.68570  Biso   1.000  C
  C24      1.0000 0.15820  0.11560  0.65870  Biso   1.000  C
  H18      1.0000 0.15230  0.11540  0.61970  Biso   1.000  H
  C25      1.0000 0.14450  0.16140  0.69250  Biso   1.000  C
  C26      1.0000 0.12840  0.20856  0.65850  Biso   1.000  C
  C27      1.0000 0.08690  0.20740  0.61990  Biso   1.000  C
  H19      1.0000 0.06620  0.17670  0.61750  Biso   1.000  H
  C28      1.0000 0.07510  0.24910  0.58540  Biso   1.000  C
  H20      1.0000 0.04710  0.24660  0.55970  Biso   1.000  H
  C29      1.0000 0.10570  0.29624  0.58870  Biso   1.000  C
  C30      1.0000 0.14460  0.29870  0.63000  Biso   1.000  C
  H21      1.0000 0.16390  0.33010  0.63470  Biso   1.000  H
  C31      1.0000 0.15540  0.25580  0.66420  Biso   1.000  C
  H22      1.0000 0.18170  0.25880  0.69200  Biso   1.000  H
  C32      1.0000 0.09570  0.34140  0.54800  Biso   1.000  C
  C33      1.0000 0.23250  0.03030  0.82370  Biso   1.000  C
  H23      1.0000 0.24660  0.06560  0.83130  Biso   1.000  H
  H24      1.0000 0.20320  0.02420  0.84990  Biso   1.000  H
  C34      1.0000 0.23290  0.89230  0.57100  Biso   1.000  C
  H25      1.0000 0.26920  0.89620  0.58470  Biso   1.000  H
  H26      1.0000 0.23390  0.88830  0.53000  Biso   1.000  H
  C35      1.0000 0.23010  0.98430  0.57660  Biso   1.000  C
  H27      1.0000 0.23830  0.98760  0.53650  Biso   1.000  H
  H28      1.0000 0.26330  0.98370  0.59770  Biso   1.000  H
  C36      1.0000 0.19650  0.03080  0.59560  Biso   1.000  C
  H29      1.0000 0.21130  0.06420  0.58220  Biso   1.000  H
  H30      1.0000 0.16030  0.02740  0.58180  Biso   1.000  H
  C37      1.0000 0.19870  0.80460  0.68790  Biso   1.000  C
  C38      1.0000 0.21000  0.80400  0.74560  Biso   1.000  C
  C39      1.0000 0.19160  0.76070  0.78010  Biso   1.000  C
  H31      1.0000 0.19760  0.76060  0.81910  Biso   1.000  H
  C40      1.0000 0.16430  0.71860  0.75420  Biso   1.000  C
  C41      1.0000 0.15380  0.72040  0.69750  Biso   1.000  C
  C42      1.0000 0.17060  0.76290  0.66630  Biso   1.000  C
  H32      1.0000 0.16230  0.76340  0.62780  Biso   1.000  H
  C43      1.0000 0.12190  0.67940  0.66820  Biso   1.000  C
  C44      1.0000 0.06570  0.68200  0.66650  Biso   1.000  C
  H33      1.0000 0.04850  0.70870  0.68690  Biso   1.000  H
  C45      1.0000 0.03540  0.64660  0.63590  Biso   1.000  C
  H34      1.0000 0.99850  0.64950  0.63580  Biso   1.000  H
  C46      1.0000 0.06000  0.60640  0.60513  Biso   1.000  C
  C47      1.0000 0.11390  0.60393  0.60500  Biso   1.000  C
  H35      1.0000 0.13070  0.57800  0.58320  Biso   1.000  H
  C48      1.0000 0.14490  0.63920  0.63660  Biso   1.000  C
  H36      1.0000 0.18170  0.63550  0.63640  Biso   1.000  H
  O8       1.0000 0.04493  0.43395  0.96727  Biso   1.000  O
  O9       1.0000 0.21266  0.02886  0.76750  Biso   1.000  O
  O10      1.0000 0.23540  0.84566  0.77085  Biso   1.000  O
  O11      1.0000 0.21494  0.84760  0.65710  Biso   1.000  O
  O12      1.0000 0.20197  0.93808  0.58630  Biso   1.000  O
  O13      1.0000 0.19827  0.02769  0.65904  Biso   1.000  O
  O14      1.0000 0.06350  0.33277  0.50913  Biso   1.000  O
  O15      1.0000 0.12248  0.38312  0.55563  Biso   1.000  O
  Zn1      1.0000 0.03769  0.40773  0.04833  Biso   1.000  Zn
  Zn2      1.0000 0.11908  0.43994  0.94480  Biso   1.000  Zn
  C49      1.0000 0.86270  0.79140  0.78630  Biso   1.000  C
  C50      1.0000 0.72800  0.00700  0.83440  Biso   1.000  C
  H37      1.0000 0.70800  0.99960  0.86880  Biso   1.000  H
  H38      1.0000 0.70390  0.01190  0.80250  Biso   1.000  H
  C51      1.0000 0.74120  0.10310  0.85270  Biso   1.000  C
  H39      1.0000 0.73330  0.10570  0.89300  Biso   1.000  H
  H40      1.0000 0.70800  0.10010  0.83200  Biso   1.000  H
  C52      1.0000 0.77200  0.15200  0.83310  Biso   1.000  C
  H41      1.0000 0.75820  0.18400  0.85100  Biso   1.000  H
  H42      1.0000 0.80950  0.14870  0.84250  Biso   1.000  H
  C53      1.0000 0.79270  0.15570  0.59770  Biso   1.000  C
  H43      1.0000 0.83050  0.15630  0.58900  Biso   1.000  H
  H44      1.0000 0.77670  0.18800  0.58310  Biso   1.000  H
  C54      1.0000 0.97371  0.42970  0.57020  Biso   1.000  C
  C55      1.0000 0.85090  0.32630  0.79170  Biso   1.000  C
  C56      1.0000 0.90570  0.33140  0.81030  Biso   1.000  C
  H45      1.0000 0.93050  0.30530  0.80090  Biso   1.000  H
  C57      1.0000 0.92080  0.37480  0.84190  Biso   1.000  C
  H46      1.0000 0.95620  0.37860  0.85260  Biso   1.000  H
  C58      1.0000 0.88470  0.41240  0.85770  Biso   1.000  C
  C59      1.0000 0.83260  0.40800  0.84090  Biso   1.000  C
  H47      1.0000 0.80810  0.43410  0.85140  Biso   1.000  H
  C60      1.0000 0.81610  0.36540  0.80840  Biso   1.000  C
  H48      1.0000 0.78060  0.36300  0.79760  Biso   1.000  H
  C61      1.0000 0.90300  0.45970  0.89290  Biso   1.000  C
  O16      1.0000 0.86721  0.62399  0.89894  Biso   1.000  O
  O17      1.0000 0.95400  0.64027  0.88376  Biso   1.000  O
  O18      1.0000 0.77340  0.05900  0.84220  Biso   1.000  O
  O19      1.0000 0.02303  0.42756  0.57921  Biso   1.000  O
  O20      1.0000 0.95256  0.46023  0.53381  Biso   1.000  O
  O21      1.0000 0.86682  0.49363  0.90592  Biso   1.000  O
  O22      1.0000 0.94965  0.46221  0.90640  Biso   1.000  O
  C62      1.0000 0.90500  0.65120  0.87910  Biso   1.000  C
  C63      1.0000 0.89160  0.70210  0.84730  Biso   1.000  C
  C64      1.0000 0.84060  0.72140  0.85120  Biso   1.000  C
  H49      1.0000 0.81540  0.70400  0.87330  Biso   1.000  H
  C65      1.0000 0.82690  0.76880  0.82090  Biso   1.000  C
  H50      1.0000 0.79320  0.78380  0.82510  Biso   1.000  H
  C66      1.0000 0.91430  0.77140  0.78500  Biso   1.000  C
  H51      1.0000 0.94030  0.78880  0.76370  Biso   1.000  H
  C67      1.0000 0.92730  0.72620  0.81490  Biso   1.000  C
  H52      1.0000 0.96160  0.71230  0.81230  Biso   1.000  H
  C68      1.0000 0.84870  0.83910  0.74920  Biso   1.000  C
  C69      1.0000 0.82610  0.88330  0.77510  Biso   1.000  C
  H53      1.0000 0.82110  0.88290  0.81420  Biso   1.000  H
  C70      1.0000 0.81070  0.92790  0.74520  Biso   1.000  C
  C71      1.0000 0.81970  0.92800  0.68570  Biso   1.000  C
  C72      1.0000 0.84180  0.88440  0.65870  Biso   1.000  C
  H54      1.0000 0.84770  0.88460  0.61970  Biso   1.000  H
  C73      1.0000 0.85550  0.83860  0.69250  Biso   1.000  C
  C74      1.0000 0.87160  0.79144  0.65850  Biso   1.000  C
  C75      1.0000 0.91310  0.79260  0.61990  Biso   1.000  C
  H55      1.0000 0.93380  0.82330  0.61750  Biso   1.000  H
  C76      1.0000 0.92490  0.75090  0.58540  Biso   1.000  C
  H56      1.0000 0.95290  0.75340  0.55970  Biso   1.000  H
  C77      1.0000 0.89430  0.70376  0.58870  Biso   1.000  C
  C78      1.0000 0.85540  0.70130  0.63000  Biso   1.000  C
  H57      1.0000 0.83610  0.66990  0.63470  Biso   1.000  H
  C79      1.0000 0.84460  0.74420  0.66420  Biso   1.000  C
  H58      1.0000 0.81830  0.74120  0.69200  Biso   1.000  H
  C80      1.0000 0.90430  0.65860  0.54800  Biso   1.000  C
  C81      1.0000 0.76750  0.96970  0.82370  Biso   1.000  C
  H59      1.0000 0.75340  0.93440  0.83130  Biso   1.000  H
  H60      1.0000 0.79680  0.97580  0.84990  Biso   1.000  H
  C82      1.0000 0.76710  0.10770  0.57100  Biso   1.000  C
  H61      1.0000 0.73080  0.10380  0.58470  Biso   1.000  H
  H62      1.0000 0.76610  0.11170  0.53000  Biso   1.000  H
  C83      1.0000 0.76990  0.01570  0.57660  Biso   1.000  C
  H63      1.0000 0.76170  0.01240  0.53650  Biso   1.000  H
  H64      1.0000 0.73670  0.01630  0.59770  Biso   1.000  H
  C84      1.0000 0.80350  0.96920  0.59560  Biso   1.000  C
  H65      1.0000 0.78870  0.93580  0.58220  Biso   1.000  H
  H66      1.0000 0.83970  0.97260  0.58180  Biso   1.000  H
  C85      1.0000 0.80130  0.19540  0.68790  Biso   1.000  C
  C86      1.0000 0.79000  0.19600  0.74560  Biso   1.000  C
  C87      1.0000 0.80840  0.23930  0.78010  Biso   1.000  C
  H67      1.0000 0.80240  0.23940  0.81910  Biso   1.000  H
  C88      1.0000 0.83570  0.28140  0.75420  Biso   1.000  C
  C89      1.0000 0.84620  0.27960  0.69750  Biso   1.000  C
  C90      1.0000 0.82940  0.23710  0.66630  Biso   1.000  C
  H68      1.0000 0.83770  0.23660  0.62780  Biso   1.000  H
  C91      1.0000 0.87810  0.32060  0.66820  Biso   1.000  C
  C92      1.0000 0.93430  0.31800  0.66650  Biso   1.000  C
  H69      1.0000 0.95150  0.29130  0.68690  Biso   1.000  H
  C93      1.0000 0.96460  0.35340  0.63590  Biso   1.000  C
  H70      1.0000 0.00150  0.35050  0.63580  Biso   1.000  H
  C94      1.0000 0.94000  0.39360  0.60513  Biso   1.000  C
  C95      1.0000 0.88610  0.39607  0.60500  Biso   1.000  C
  H71      1.0000 0.86930  0.42200  0.58320  Biso   1.000  H
  C96      1.0000 0.85510  0.36080  0.63660  Biso   1.000  C
  H72      1.0000 0.81830  0.36450  0.63640  Biso   1.000  H
  O23      1.0000 0.95507  0.56605  0.96727  Biso   1.000  O
  O24      1.0000 0.78734  0.97114  0.76750  Biso   1.000  O
  O25      1.0000 0.76460  0.15434  0.77085  Biso   1.000  O
  O26      1.0000 0.78506  0.15240  0.65710  Biso   1.000  O
  O27      1.0000 0.79803  0.06192  0.58630  Biso   1.000  O
  O28      1.0000 0.80173  0.97231  0.65904  Biso   1.000  O
  O29      1.0000 0.93650  0.66723  0.50913  Biso   1.000  O
  O30      1.0000 0.87752  0.61688  0.55563  Biso   1.000  O
  Zn3      1.0000 0.96231  0.59227  0.04833  Biso   1.000  Zn
  Zn4      1.0000 0.88092  0.56006  0.94480  Biso   1.000  Zn
  C97      1.0000 0.29140  0.36270  0.28630  Biso   1.000  C
  C98      1.0000 0.50700  0.22800  0.33440  Biso   1.000  C
  H73      1.0000 0.49960  0.20800  0.36880  Biso   1.000  H
  H74      1.0000 0.51190  0.20390  0.30250  Biso   1.000  H
  C99      1.0000 0.60310  0.24120  0.35270  Biso   1.000  C
  H75      1.0000 0.60570  0.23330  0.39300  Biso   1.000  H
  H76      1.0000 0.60010  0.20800  0.33200  Biso   1.000  H
  C100     1.0000 0.65200  0.27200  0.33310  Biso   1.000  C
  H77      1.0000 0.68400  0.25820  0.35100  Biso   1.000  H
  H78      1.0000 0.64870  0.30950  0.34250  Biso   1.000  H
  C101     1.0000 0.65570  0.29270  0.09770  Biso   1.000  C
  H79      1.0000 0.65630  0.33050  0.08900  Biso   1.000  H
  H80      1.0000 0.68800  0.27670  0.08310  Biso   1.000  H
  C102     1.0000 0.92970  0.47371  0.07020  Biso   1.000  C
  C103     1.0000 0.82630  0.35090  0.29170  Biso   1.000  C
  C104     1.0000 0.83140  0.40570  0.31030  Biso   1.000  C
  H81      1.0000 0.80530  0.43050  0.30090  Biso   1.000  H
  C105     1.0000 0.87480  0.42080  0.34190  Biso   1.000  C
  H82      1.0000 0.87860  0.45620  0.35260  Biso   1.000  H
  C106     1.0000 0.91240  0.38470  0.35770  Biso   1.000  C
  C107     1.0000 0.90800  0.33260  0.34090  Biso   1.000  C
  H83      1.0000 0.93410  0.30810  0.35140  Biso   1.000  H
  C108     1.0000 0.86540  0.31610  0.30840  Biso   1.000  C
  H84      1.0000 0.86300  0.28060  0.29760  Biso   1.000  H
  C109     1.0000 0.95970  0.40300  0.39290  Biso   1.000  C
  O31      1.0000 0.12399  0.36721  0.39894  Biso   1.000  O
  O32      1.0000 0.14027  0.45400  0.38376  Biso   1.000  O
  O33      1.0000 0.55900  0.27340  0.34220  Biso   1.000  O
  O34      1.0000 0.92756  0.52303  0.07921  Biso   1.000  O
  O35      1.0000 0.96023  0.45256  0.03381  Biso   1.000  O
  O36      1.0000 0.99363  0.36682  0.40592  Biso   1.000  O
  O37      1.0000 0.96221  0.44965  0.40640  Biso   1.000  O
  C110     1.0000 0.15120  0.40500  0.37910  Biso   1.000  C
  C111     1.0000 0.20210  0.39160  0.34730  Biso   1.000  C
  C112     1.0000 0.22140  0.34060  0.35120  Biso   1.000  C
  H85      1.0000 0.20400  0.31540  0.37330  Biso   1.000  H
  C113     1.0000 0.26880  0.32690  0.32090  Biso   1.000  C
  H86      1.0000 0.28380  0.29320  0.32510  Biso   1.000  H
  C114     1.0000 0.27140  0.41430  0.28500  Biso   1.000  C
  H87      1.0000 0.28880  0.44030  0.26370  Biso   1.000  H
  C115     1.0000 0.22620  0.42730  0.31490  Biso   1.000  C
  H88      1.0000 0.21230  0.46160  0.31230  Biso   1.000  H
  C116     1.0000 0.33910  0.34870  0.24920  Biso   1.000  C
  C117     1.0000 0.38330  0.32610  0.27510  Biso   1.000  C
  H89      1.0000 0.38290  0.32110  0.31420  Biso   1.000  H
  C118     1.0000 0.42790  0.31070  0.24520  Biso   1.000  C
  C119     1.0000 0.42800  0.31970  0.18570  Biso   1.000  C
  C120     1.0000 0.38440  0.34180  0.15870  Biso   1.000  C
  H90      1.0000 0.38460  0.34770  0.11970  Biso   1.000  H
  C121     1.0000 0.33860  0.35550  0.19250  Biso   1.000  C
  C122     1.0000 0.29144  0.37160  0.15850  Biso   1.000  C
  C123     1.0000 0.29260  0.41310  0.11990  Biso   1.000  C
  H91      1.0000 0.32330  0.43380  0.11750  Biso   1.000  H
  C124     1.0000 0.25090  0.42490  0.08540  Biso   1.000  C
  H92      1.0000 0.25340  0.45290  0.05970  Biso   1.000  H
  C125     1.0000 0.20376  0.39430  0.08870  Biso   1.000  C
  C126     1.0000 0.20130  0.35540  0.13000  Biso   1.000  C
  H93      1.0000 0.16990  0.33610  0.13470  Biso   1.000  H
  C127     1.0000 0.24420  0.34460  0.16420  Biso   1.000  C
  H94      1.0000 0.24120  0.31830  0.19200  Biso   1.000  H
  C128     1.0000 0.15860  0.40430  0.04800  Biso   1.000  C
  C129     1.0000 0.46970  0.26750  0.32370  Biso   1.000  C
  H95      1.0000 0.43440  0.25340  0.33130  Biso   1.000  H
  H96      1.0000 0.47580  0.29680  0.34990  Biso   1.000  H
  C130     1.0000 0.60770  0.26710  0.07100  Biso   1.000  C
  H97      1.0000 0.60380  0.23080  0.08470  Biso   1.000  H
  H98      1.0000 0.61170  0.26610  0.03000  Biso   1.000  H
  C131     1.0000 0.51570  0.26990  0.07660  Biso   1.000  C
  H99      1.0000 0.51240  0.26170  0.03650  Biso   1.000  H
  H100     1.0000 0.51630  0.23670  0.09770  Biso   1.000  H
  C132     1.0000 0.46920  0.30350  0.09560  Biso   1.000  C
  H101     1.0000 0.43580  0.28870  0.08220  Biso   1.000  H
  H102     1.0000 0.47260  0.33970  0.08180  Biso   1.000  H
  C133     1.0000 0.69540  0.30130  0.18790  Biso   1.000  C
  C134     1.0000 0.69600  0.29000  0.24560  Biso   1.000  C
  C135     1.0000 0.73930  0.30840  0.28010  Biso   1.000  C
  H103     1.0000 0.73940  0.30240  0.31910  Biso   1.000  H
  C136     1.0000 0.78140  0.33570  0.25420  Biso   1.000  C
  C137     1.0000 0.77960  0.34620  0.19750  Biso   1.000  C
  C138     1.0000 0.73710  0.32940  0.16630  Biso   1.000  C
  H104     1.0000 0.73660  0.33770  0.12780  Biso   1.000  H
  C139     1.0000 0.82060  0.37810  0.16820  Biso   1.000  C
  C140     1.0000 0.81800  0.43430  0.16650  Biso   1.000  C
  H105     1.0000 0.79130  0.45150  0.18690  Biso   1.000  H
  C141     1.0000 0.85340  0.46460  0.13590  Biso   1.000  C
  H106     1.0000 0.85050  0.50150  0.13580  Biso   1.000  H
  C142     1.0000 0.89360  0.44000  0.10513  Biso   1.000  C
  C143     1.0000 0.89607  0.38610  0.10500  Biso   1.000  C
  H107     1.0000 0.92200  0.36930  0.08320  Biso   1.000  H
  C144     1.0000 0.86080  0.35510  0.13660  Biso   1.000  C
  H108     1.0000 0.86450  0.31830  0.13640  Biso   1.000  H
  O38      1.0000 0.06605  0.45507  0.46727  Biso   1.000  O
  O39      1.0000 0.47114  0.28734  0.26750  Biso   1.000  O
  O40      1.0000 0.65434  0.26460  0.27085  Biso   1.000  O
  O41      1.0000 0.65240  0.28506  0.15710  Biso   1.000  O
  O42      1.0000 0.56192  0.29803  0.08630  Biso   1.000  O
  O43      1.0000 0.47231  0.30173  0.15904  Biso   1.000  O
  O44      1.0000 0.16723  0.43650  0.00913  Biso   1.000  O
  O45      1.0000 0.11688  0.37752  0.05563  Biso   1.000  O
  Zn5      1.0000 0.09227  0.46231  0.54833  Biso   1.000  Zn
  Zn6      1.0000 0.06006  0.38092  0.44480  Biso   1.000  Zn
  C145     1.0000 0.70860  0.63730  0.28630  Biso   1.000  C
  C146     1.0000 0.49300  0.77200  0.33440  Biso   1.000  C
  H109     1.0000 0.50040  0.79200  0.36880  Biso   1.000  H
  H110     1.0000 0.48810  0.79610  0.30250  Biso   1.000  H
  C147     1.0000 0.39690  0.75880  0.35270  Biso   1.000  C
  H111     1.0000 0.39430  0.76670  0.39300  Biso   1.000  H
  H112     1.0000 0.39990  0.79200  0.33200  Biso   1.000  H
  C148     1.0000 0.34800  0.72800  0.33310  Biso   1.000  C
  H113     1.0000 0.31600  0.74180  0.35100  Biso   1.000  H
  H114     1.0000 0.35130  0.69050  0.34250  Biso   1.000  H
  C149     1.0000 0.34430  0.70730  0.09770  Biso   1.000  C
  H115     1.0000 0.34370  0.66950  0.08900  Biso   1.000  H
  H116     1.0000 0.31200  0.72330  0.08310  Biso   1.000  H
  C150     1.0000 0.07030  0.52629  0.07020  Biso   1.000  C
  C151     1.0000 0.17370  0.64910  0.29170  Biso   1.000  C
  C152     1.0000 0.16860  0.59430  0.31030  Biso   1.000  C
  H117     1.0000 0.19470  0.56950  0.30090  Biso   1.000  H
  C153     1.0000 0.12520  0.57920  0.34190  Biso   1.000  C
  H118     1.0000 0.12140  0.54380  0.35260  Biso   1.000  H
  C154     1.0000 0.08760  0.61530  0.35770  Biso   1.000  C
  C155     1.0000 0.09200  0.66740  0.34090  Biso   1.000  C
  H119     1.0000 0.06590  0.69190  0.35140  Biso   1.000  H
  C156     1.0000 0.13460  0.68390  0.30840  Biso   1.000  C
  H120     1.0000 0.13700  0.71940  0.29760  Biso   1.000  H
  C157     1.0000 0.04030  0.59700  0.39290  Biso   1.000  C
  O46      1.0000 0.87601  0.63279  0.39894  Biso   1.000  O
  O47      1.0000 0.85973  0.54600  0.38376  Biso   1.000  O
  O48      1.0000 0.44100  0.72660  0.34220  Biso   1.000  O
  O49      1.0000 0.07244  0.47697  0.07921  Biso   1.000  O
  O50      1.0000 0.03977  0.54744  0.03381  Biso   1.000  O
  O51      1.0000 0.00637  0.63318  0.40592  Biso   1.000  O
  O52      1.0000 0.03779  0.55035  0.40640  Biso   1.000  O
  C158     1.0000 0.84880  0.59500  0.37910  Biso   1.000  C
  C159     1.0000 0.79790  0.60840  0.34730  Biso   1.000  C
  C160     1.0000 0.77860  0.65940  0.35120  Biso   1.000  C
  H121     1.0000 0.79600  0.68460  0.37330  Biso   1.000  H
  C161     1.0000 0.73120  0.67310  0.32090  Biso   1.000  C
  H122     1.0000 0.71620  0.70680  0.32510  Biso   1.000  H
  C162     1.0000 0.72860  0.58570  0.28500  Biso   1.000  C
  H123     1.0000 0.71120  0.55970  0.26370  Biso   1.000  H
  C163     1.0000 0.77380  0.57270  0.31490  Biso   1.000  C
  H124     1.0000 0.78770  0.53840  0.31230  Biso   1.000  H
  C164     1.0000 0.66090  0.65130  0.24920  Biso   1.000  C
  C165     1.0000 0.61670  0.67390  0.27510  Biso   1.000  C
  H125     1.0000 0.61710  0.67890  0.31420  Biso   1.000  H
  C166     1.0000 0.57210  0.68930  0.24520  Biso   1.000  C
  C167     1.0000 0.57200  0.68030  0.18570  Biso   1.000  C
  C168     1.0000 0.61560  0.65820  0.15870  Biso   1.000  C
  H126     1.0000 0.61540  0.65230  0.11970  Biso   1.000  H
  C169     1.0000 0.66140  0.64450  0.19250  Biso   1.000  C
  C170     1.0000 0.70856  0.62840  0.15850  Biso   1.000  C
  C171     1.0000 0.70740  0.58690  0.11990  Biso   1.000  C
  H127     1.0000 0.67670  0.56620  0.11750  Biso   1.000  H
  C172     1.0000 0.74910  0.57510  0.08540  Biso   1.000  C
  H128     1.0000 0.74660  0.54710  0.05970  Biso   1.000  H
  C173     1.0000 0.79624  0.60570  0.08870  Biso   1.000  C
  C174     1.0000 0.79870  0.64460  0.13000  Biso   1.000  C
  H129     1.0000 0.83010  0.66390  0.13470  Biso   1.000  H
  C175     1.0000 0.75580  0.65540  0.16420  Biso   1.000  C
  H130     1.0000 0.75880  0.68170  0.19200  Biso   1.000  H
  C176     1.0000 0.84140  0.59570  0.04800  Biso   1.000  C
  C177     1.0000 0.53030  0.73250  0.32370  Biso   1.000  C
  H131     1.0000 0.56560  0.74660  0.33130  Biso   1.000  H
  H132     1.0000 0.52420  0.70320  0.34990  Biso   1.000  H
  C178     1.0000 0.39230  0.73290  0.07100  Biso   1.000  C
  H133     1.0000 0.39620  0.76920  0.08470  Biso   1.000  H
  H134     1.0000 0.38830  0.73390  0.03000  Biso   1.000  H
  C179     1.0000 0.48430  0.73010  0.07660  Biso   1.000  C
  H135     1.0000 0.48760  0.73830  0.03650  Biso   1.000  H
  H136     1.0000 0.48370  0.76330  0.09770  Biso   1.000  H
  C180     1.0000 0.53080  0.69650  0.09560  Biso   1.000  C
  H137     1.0000 0.56420  0.71130  0.08220  Biso   1.000  H
  H138     1.0000 0.52740  0.66030  0.08180  Biso   1.000  H
  C181     1.0000 0.30460  0.69870  0.18790  Biso   1.000  C
  C182     1.0000 0.30400  0.71000  0.24560  Biso   1.000  C
  C183     1.0000 0.26070  0.69160  0.28010  Biso   1.000  C
  H139     1.0000 0.26060  0.69760  0.31910  Biso   1.000  H
  C184     1.0000 0.21860  0.66430  0.25420  Biso   1.000  C
  C185     1.0000 0.22040  0.65380  0.19750  Biso   1.000  C
  C186     1.0000 0.26290  0.67060  0.16630  Biso   1.000  C
  H140     1.0000 0.26340  0.66230  0.12780  Biso   1.000  H
  C187     1.0000 0.17940  0.62190  0.16820  Biso   1.000  C
  C188     1.0000 0.18200  0.56570  0.16650  Biso   1.000  C
  H141     1.0000 0.20870  0.54850  0.18690  Biso   1.000  H
  C189     1.0000 0.14660  0.53540  0.13590  Biso   1.000  C
  H142     1.0000 0.14950  0.49850  0.13580  Biso   1.000  H
  C190     1.0000 0.10640  0.56000  0.10513  Biso   1.000  C
  C191     1.0000 0.10393  0.61390  0.10500  Biso   1.000  C
  H143     1.0000 0.07800  0.63070  0.08320  Biso   1.000  H
  C192     1.0000 0.13920  0.64490  0.13660  Biso   1.000  C
  H144     1.0000 0.13550  0.68170  0.13640  Biso   1.000  H
  O53      1.0000 0.93395  0.54493  0.46727  Biso   1.000  O
  O54      1.0000 0.52886  0.71266  0.26750  Biso   1.000  O
  O55      1.0000 0.34566  0.73540  0.27085  Biso   1.000  O
  O56      1.0000 0.34760  0.71494  0.15710  Biso   1.000  O
  O57      1.0000 0.43808  0.70197  0.08630  Biso   1.000  O
  O58      1.0000 0.52769  0.69827  0.15904  Biso   1.000  O
  O59      1.0000 0.83277  0.56350  0.00913  Biso   1.000  O
  O60      1.0000 0.88312  0.62248  0.05563  Biso   1.000  O
  Zn7      1.0000 0.90773  0.53769  0.54833  Biso   1.000  Zn
  Zn8      1.0000 0.93994  0.61908  0.44480  Biso   1.000  Zn
  Zn9      1.0000 0.00000  0.50000  0.96656  Biso   1.000  Zn
  Zn10     1.0000 0.00000  0.50000  0.46656  Biso   1.000  Zn
  C193     1.0000 0.20860  0.86270  0.21370  Biso   1.000  C
  C194     1.0000 0.99300  0.72800  0.16560  Biso   1.000  C
  H145     1.0000 0.00040  0.70800  0.13120  Biso   1.000  H
  H146     1.0000 0.98810  0.70390  0.19750  Biso   1.000  H
  C195     1.0000 0.89690  0.74120  0.14730  Biso   1.000  C
  H147     1.0000 0.89430  0.73330  0.10700  Biso   1.000  H
  H148     1.0000 0.89990  0.70800  0.16800  Biso   1.000  H
  C196     1.0000 0.84800  0.77200  0.16690  Biso   1.000  C
  H149     1.0000 0.81600  0.75820  0.14900  Biso   1.000  H
  H150     1.0000 0.85130  0.80950  0.15750  Biso   1.000  H
  C197     1.0000 0.84430  0.79270  0.40230  Biso   1.000  C
  H151     1.0000 0.84370  0.83050  0.41100  Biso   1.000  H
  H152     1.0000 0.81200  0.77670  0.41690  Biso   1.000  H
  C198     1.0000 0.57030  0.97371  0.42980  Biso   1.000  C
  C199     1.0000 0.67370  0.85090  0.20830  Biso   1.000  C
  C200     1.0000 0.66860  0.90570  0.18970  Biso   1.000  C
  H153     1.0000 0.69470  0.93050  0.19910  Biso   1.000  H
  C201     1.0000 0.62520  0.92080  0.15810  Biso   1.000  C
  H154     1.0000 0.62140  0.95620  0.14740  Biso   1.000  H
  C202     1.0000 0.58760  0.88470  0.14230  Biso   1.000  C
  C203     1.0000 0.59200  0.83260  0.15910  Biso   1.000  C
  H155     1.0000 0.56590  0.80810  0.14860  Biso   1.000  H
  C204     1.0000 0.63460  0.81610  0.19160  Biso   1.000  C
  H156     1.0000 0.63700  0.78060  0.20240  Biso   1.000  H
  C205     1.0000 0.54030  0.90300  0.10710  Biso   1.000  C
  O61      1.0000 0.37601  0.86721  0.10106  Biso   1.000  O
  O62      1.0000 0.35973  0.95400  0.11624  Biso   1.000  O
  O63      1.0000 0.94100  0.77340  0.15780  Biso   1.000  O
  O64      1.0000 0.57244  0.02303  0.42079  Biso   1.000  O
  O65      1.0000 0.53977  0.95256  0.46619  Biso   1.000  O
  O66      1.0000 0.50637  0.86682  0.09408  Biso   1.000  O
  O67      1.0000 0.53779  0.94965  0.09360  Biso   1.000  O
  C206     1.0000 0.34880  0.90500  0.12090  Biso   1.000  C
  C207     1.0000 0.29790  0.89160  0.15270  Biso   1.000  C
  C208     1.0000 0.27860  0.84060  0.14880  Biso   1.000  C
  H157     1.0000 0.29600  0.81540  0.12670  Biso   1.000  H
  C209     1.0000 0.23120  0.82690  0.17910  Biso   1.000  C
  H158     1.0000 0.21620  0.79320  0.17490  Biso   1.000  H
  C210     1.0000 0.22860  0.91430  0.21500  Biso   1.000  C
  H159     1.0000 0.21120  0.94030  0.23630  Biso   1.000  H
  C211     1.0000 0.27380  0.92730  0.18510  Biso   1.000  C
  H160     1.0000 0.28770  0.96160  0.18770  Biso   1.000  H
  C212     1.0000 0.16090  0.84870  0.25080  Biso   1.000  C
  C213     1.0000 0.11670  0.82610  0.22490  Biso   1.000  C
  H161     1.0000 0.11710  0.82110  0.18580  Biso   1.000  H
  C214     1.0000 0.07210  0.81070  0.25480  Biso   1.000  C
  C215     1.0000 0.07200  0.81970  0.31430  Biso   1.000  C
  C216     1.0000 0.11560  0.84180  0.34130  Biso   1.000  C
  H162     1.0000 0.11540  0.84770  0.38030  Biso   1.000  H
  C217     1.0000 0.16140  0.85550  0.30750  Biso   1.000  C
  C218     1.0000 0.20856  0.87160  0.34150  Biso   1.000  C
  C219     1.0000 0.20740  0.91310  0.38010  Biso   1.000  C
  H163     1.0000 0.17670  0.93380  0.38250  Biso   1.000  H
  C220     1.0000 0.24910  0.92490  0.41460  Biso   1.000  C
  H164     1.0000 0.24660  0.95290  0.44030  Biso   1.000  H
  C221     1.0000 0.29624  0.89430  0.41130  Biso   1.000  C
  C222     1.0000 0.29870  0.85540  0.37000  Biso   1.000  C
  H165     1.0000 0.33010  0.83610  0.36530  Biso   1.000  H
  C223     1.0000 0.25580  0.84460  0.33580  Biso   1.000  C
  H166     1.0000 0.25880  0.81830  0.30800  Biso   1.000  H
  C224     1.0000 0.34140  0.90430  0.45200  Biso   1.000  C
  C225     1.0000 0.03030  0.76750  0.17630  Biso   1.000  C
  H167     1.0000 0.06560  0.75340  0.16870  Biso   1.000  H
  H168     1.0000 0.02420  0.79680  0.15010  Biso   1.000  H
  C226     1.0000 0.89230  0.76710  0.42900  Biso   1.000  C
  H169     1.0000 0.89620  0.73080  0.41530  Biso   1.000  H
  H170     1.0000 0.88830  0.76610  0.47000  Biso   1.000  H
  C227     1.0000 0.98430  0.76990  0.42340  Biso   1.000  C
  H171     1.0000 0.98760  0.76170  0.46350  Biso   1.000  H
  H172     1.0000 0.98370  0.73670  0.40230  Biso   1.000  H
  C228     1.0000 0.03080  0.80350  0.40440  Biso   1.000  C
  H173     1.0000 0.06420  0.78870  0.41780  Biso   1.000  H
  H174     1.0000 0.02740  0.83970  0.41820  Biso   1.000  H
  C229     1.0000 0.80460  0.80130  0.31210  Biso   1.000  C
  C230     1.0000 0.80400  0.79000  0.25440  Biso   1.000  C
  C231     1.0000 0.76070  0.80840  0.21990  Biso   1.000  C
  H175     1.0000 0.76060  0.80240  0.18090  Biso   1.000  H
  C232     1.0000 0.71860  0.83570  0.24580  Biso   1.000  C
  C233     1.0000 0.72040  0.84620  0.30250  Biso   1.000  C
  C234     1.0000 0.76290  0.82940  0.33370  Biso   1.000  C
  H176     1.0000 0.76340  0.83770  0.37220  Biso   1.000  H
  C235     1.0000 0.67940  0.87810  0.33180  Biso   1.000  C
  C236     1.0000 0.68200  0.93430  0.33350  Biso   1.000  C
  H177     1.0000 0.70870  0.95150  0.31310  Biso   1.000  H
  C237     1.0000 0.64660  0.96460  0.36410  Biso   1.000  C
  H178     1.0000 0.64950  0.00150  0.36420  Biso   1.000  H
  C238     1.0000 0.60640  0.94000  0.39487  Biso   1.000  C
  C239     1.0000 0.60393  0.88610  0.39500  Biso   1.000  C
  H179     1.0000 0.57800  0.86930  0.41680  Biso   1.000  H
  C240     1.0000 0.63920  0.85510  0.36340  Biso   1.000  C
  H180     1.0000 0.63550  0.81830  0.36360  Biso   1.000  H
  O68      1.0000 0.43395  0.95507  0.03273  Biso   1.000  O
  O69      1.0000 0.02886  0.78734  0.23250  Biso   1.000  O
  O70      1.0000 0.84566  0.76460  0.22915  Biso   1.000  O
  O71      1.0000 0.84760  0.78506  0.34290  Biso   1.000  O
  O72      1.0000 0.93808  0.79803  0.41370  Biso   1.000  O
  O73      1.0000 0.02769  0.80173  0.34096  Biso   1.000  O
  O74      1.0000 0.33277  0.93650  0.49087  Biso   1.000  O
  O75      1.0000 0.38312  0.87752  0.44437  Biso   1.000  O
  Zn11     1.0000 0.40773  0.96231  0.95167  Biso   1.000  Zn
  Zn12     1.0000 0.43994  0.88092  0.05520  Biso   1.000  Zn
  C241     1.0000 0.79140  0.13730  0.21370  Biso   1.000  C
  C242     1.0000 0.00700  0.27200  0.16560  Biso   1.000  C
  H181     1.0000 0.99960  0.29200  0.13120  Biso   1.000  H
  H182     1.0000 0.01190  0.29610  0.19750  Biso   1.000  H
  C243     1.0000 0.10310  0.25880  0.14730  Biso   1.000  C
  H183     1.0000 0.10570  0.26670  0.10700  Biso   1.000  H
  H184     1.0000 0.10010  0.29200  0.16800  Biso   1.000  H
  C244     1.0000 0.15200  0.22800  0.16690  Biso   1.000  C
  H185     1.0000 0.18400  0.24180  0.14900  Biso   1.000  H
  H186     1.0000 0.14870  0.19050  0.15750  Biso   1.000  H
  C245     1.0000 0.15570  0.20730  0.40230  Biso   1.000  C
  H187     1.0000 0.15630  0.16950  0.41100  Biso   1.000  H
  H188     1.0000 0.18800  0.22330  0.41690  Biso   1.000  H
  C246     1.0000 0.42970  0.02629  0.42980  Biso   1.000  C
  C247     1.0000 0.32630  0.14910  0.20830  Biso   1.000  C
  C248     1.0000 0.33140  0.09430  0.18970  Biso   1.000  C
  H189     1.0000 0.30530  0.06950  0.19910  Biso   1.000  H
  C249     1.0000 0.37480  0.07920  0.15810  Biso   1.000  C
  H190     1.0000 0.37860  0.04380  0.14740  Biso   1.000  H
  C250     1.0000 0.41240  0.11530  0.14230  Biso   1.000  C
  C251     1.0000 0.40800  0.16740  0.15910  Biso   1.000  C
  H191     1.0000 0.43410  0.19190  0.14860  Biso   1.000  H
  C252     1.0000 0.36540  0.18390  0.19160  Biso   1.000  C
  H192     1.0000 0.36300  0.21940  0.20240  Biso   1.000  H
  C253     1.0000 0.45970  0.09700  0.10710  Biso   1.000  C
  O76      1.0000 0.62399  0.13279  0.10106  Biso   1.000  O
  O77      1.0000 0.64027  0.04600  0.11624  Biso   1.000  O
  O78      1.0000 0.05900  0.22660  0.15780  Biso   1.000  O
  O79      1.0000 0.42756  0.97697  0.42079  Biso   1.000  O
  O80      1.0000 0.46023  0.04744  0.46619  Biso   1.000  O
  O81      1.0000 0.49363  0.13318  0.09408  Biso   1.000  O
  O82      1.0000 0.46221  0.05035  0.09360  Biso   1.000  O
  C254     1.0000 0.65120  0.09500  0.12090  Biso   1.000  C
  C255     1.0000 0.70210  0.10840  0.15270  Biso   1.000  C
  C256     1.0000 0.72140  0.15940  0.14880  Biso   1.000  C
  H193     1.0000 0.70400  0.18460  0.12670  Biso   1.000  H
  C257     1.0000 0.76880  0.17310  0.17910  Biso   1.000  C
  H194     1.0000 0.78380  0.20680  0.17490  Biso   1.000  H
  C258     1.0000 0.77140  0.08570  0.21500  Biso   1.000  C
  H195     1.0000 0.78880  0.05970  0.23630  Biso   1.000  H
  C259     1.0000 0.72620  0.07270  0.18510  Biso   1.000  C
  H196     1.0000 0.71230  0.03840  0.18770  Biso   1.000  H
  C260     1.0000 0.83910  0.15130  0.25080  Biso   1.000  C
  C261     1.0000 0.88330  0.17390  0.22490  Biso   1.000  C
  H197     1.0000 0.88290  0.17890  0.18580  Biso   1.000  H
  C262     1.0000 0.92790  0.18930  0.25480  Biso   1.000  C
  C263     1.0000 0.92800  0.18030  0.31430  Biso   1.000  C
  C264     1.0000 0.88440  0.15820  0.34130  Biso   1.000  C
  H198     1.0000 0.88460  0.15230  0.38030  Biso   1.000  H
  C265     1.0000 0.83860  0.14450  0.30750  Biso   1.000  C
  C266     1.0000 0.79144  0.12840  0.34150  Biso   1.000  C
  C267     1.0000 0.79260  0.08690  0.38010  Biso   1.000  C
  H199     1.0000 0.82330  0.06620  0.38250  Biso   1.000  H
  C268     1.0000 0.75090  0.07510  0.41460  Biso   1.000  C
  H200     1.0000 0.75340  0.04710  0.44030  Biso   1.000  H
  C269     1.0000 0.70376  0.10570  0.41130  Biso   1.000  C
  C270     1.0000 0.70130  0.14460  0.37000  Biso   1.000  C
  H201     1.0000 0.66990  0.16390  0.36530  Biso   1.000  H
  C271     1.0000 0.74420  0.15540  0.33580  Biso   1.000  C
  H202     1.0000 0.74120  0.18170  0.30800  Biso   1.000  H
  C272     1.0000 0.65860  0.09570  0.45200  Biso   1.000  C
  C273     1.0000 0.96970  0.23250  0.17630  Biso   1.000  C
  H203     1.0000 0.93440  0.24660  0.16870  Biso   1.000  H
  H204     1.0000 0.97580  0.20320  0.15010  Biso   1.000  H
  C274     1.0000 0.10770  0.23290  0.42900  Biso   1.000  C
  H205     1.0000 0.10380  0.26920  0.41530  Biso   1.000  H
  H206     1.0000 0.11170  0.23390  0.47000  Biso   1.000  H
  C275     1.0000 0.01570  0.23010  0.42340  Biso   1.000  C
  H207     1.0000 0.01240  0.23830  0.46350  Biso   1.000  H
  H208     1.0000 0.01630  0.26330  0.40230  Biso   1.000  H
  C276     1.0000 0.96920  0.19650  0.40440  Biso   1.000  C
  H209     1.0000 0.93580  0.21130  0.41780  Biso   1.000  H
  H210     1.0000 0.97260  0.16030  0.41820  Biso   1.000  H
  C277     1.0000 0.19540  0.19870  0.31210  Biso   1.000  C
  C278     1.0000 0.19600  0.21000  0.25440  Biso   1.000  C
  C279     1.0000 0.23930  0.19160  0.21990  Biso   1.000  C
  H211     1.0000 0.23940  0.19760  0.18090  Biso   1.000  H
  C280     1.0000 0.28140  0.16430  0.24580  Biso   1.000  C
  C281     1.0000 0.27960  0.15380  0.30250  Biso   1.000  C
  C282     1.0000 0.23710  0.17060  0.33370  Biso   1.000  C
  H212     1.0000 0.23660  0.16230  0.37220  Biso   1.000  H
  C283     1.0000 0.32060  0.12190  0.33180  Biso   1.000  C
  C284     1.0000 0.31800  0.06570  0.33350  Biso   1.000  C
  H213     1.0000 0.29130  0.04850  0.31310  Biso   1.000  H
  C285     1.0000 0.35340  0.03540  0.36410  Biso   1.000  C
  H214     1.0000 0.35050  0.99850  0.36420  Biso   1.000  H
  C286     1.0000 0.39360  0.06000  0.39487  Biso   1.000  C
  C287     1.0000 0.39607  0.11390  0.39500  Biso   1.000  C
  H215     1.0000 0.42200  0.13070  0.41680  Biso   1.000  H
  C288     1.0000 0.36080  0.14490  0.36340  Biso   1.000  C
  H216     1.0000 0.36450  0.18170  0.36360  Biso   1.000  H
  O83      1.0000 0.56605  0.04493  0.03273  Biso   1.000  O
  O84      1.0000 0.97114  0.21266  0.23250  Biso   1.000  O
  O85      1.0000 0.15434  0.23540  0.22915  Biso   1.000  O
  O86      1.0000 0.15240  0.21494  0.34290  Biso   1.000  O
  O87      1.0000 0.06192  0.20197  0.41370  Biso   1.000  O
  O88      1.0000 0.97231  0.19827  0.34096  Biso   1.000  O
  O89      1.0000 0.66723  0.06350  0.49087  Biso   1.000  O
  O90      1.0000 0.61688  0.12248  0.44437  Biso   1.000  O
  Zn13     1.0000 0.59227  0.03769  0.95167  Biso   1.000  Zn
  Zn14     1.0000 0.56006  0.11908  0.05520  Biso   1.000  Zn
  C289     1.0000 0.36270  0.70860  0.71370  Biso   1.000  C
  C290     1.0000 0.22800  0.49300  0.66560  Biso   1.000  C
  H217     1.0000 0.20800  0.50040  0.63120  Biso   1.000  H
  H218     1.0000 0.20390  0.48810  0.69750  Biso   1.000  H
  C291     1.0000 0.24120  0.39690  0.64730  Biso   1.000  C
  H219     1.0000 0.23330  0.39430  0.60700  Biso   1.000  H
  H220     1.0000 0.20800  0.39990  0.66800  Biso   1.000  H
  C292     1.0000 0.27200  0.34800  0.66690  Biso   1.000  C
  H221     1.0000 0.25820  0.31600  0.64900  Biso   1.000  H
  H222     1.0000 0.30950  0.35130  0.65750  Biso   1.000  H
  C293     1.0000 0.29270  0.34430  0.90230  Biso   1.000  C
  H223     1.0000 0.33050  0.34370  0.91100  Biso   1.000  H
  H224     1.0000 0.27670  0.31200  0.91690  Biso   1.000  H
  C294     1.0000 0.47371  0.07030  0.92980  Biso   1.000  C
  C295     1.0000 0.35090  0.17370  0.70830  Biso   1.000  C
  C296     1.0000 0.40570  0.16860  0.68970  Biso   1.000  C
  H225     1.0000 0.43050  0.19470  0.69910  Biso   1.000  H
  C297     1.0000 0.42080  0.12520  0.65810  Biso   1.000  C
  H226     1.0000 0.45620  0.12140  0.64740  Biso   1.000  H
  C298     1.0000 0.38470  0.08760  0.64230  Biso   1.000  C
  C299     1.0000 0.33260  0.09200  0.65910  Biso   1.000  C
  H227     1.0000 0.30810  0.06590  0.64860  Biso   1.000  H
  C300     1.0000 0.31610  0.13460  0.69160  Biso   1.000  C
  H228     1.0000 0.28060  0.13700  0.70240  Biso   1.000  H
  C301     1.0000 0.40300  0.04030  0.60710  Biso   1.000  C
  O91      1.0000 0.36721  0.87601  0.60106  Biso   1.000  O
  O92      1.0000 0.45400  0.85973  0.61624  Biso   1.000  O
  O93      1.0000 0.27340  0.44100  0.65780  Biso   1.000  O
  O94      1.0000 0.52303  0.07244  0.92079  Biso   1.000  O
  O95      1.0000 0.45256  0.03977  0.96619  Biso   1.000  O
  O96      1.0000 0.36682  0.00637  0.59408  Biso   1.000  O
  O97      1.0000 0.44965  0.03779  0.59360  Biso   1.000  O
  C302     1.0000 0.40500  0.84880  0.62090  Biso   1.000  C
  C303     1.0000 0.39160  0.79790  0.65270  Biso   1.000  C
  C304     1.0000 0.34060  0.77860  0.64880  Biso   1.000  C
  H229     1.0000 0.31540  0.79600  0.62670  Biso   1.000  H
  C305     1.0000 0.32690  0.73120  0.67910  Biso   1.000  C
  H230     1.0000 0.29320  0.71620  0.67490  Biso   1.000  H
  C306     1.0000 0.41430  0.72860  0.71500  Biso   1.000  C
  H231     1.0000 0.44030  0.71120  0.73630  Biso   1.000  H
  C307     1.0000 0.42730  0.77380  0.68510  Biso   1.000  C
  H232     1.0000 0.46160  0.78770  0.68770  Biso   1.000  H
  C308     1.0000 0.34870  0.66090  0.75080  Biso   1.000  C
  C309     1.0000 0.32610  0.61670  0.72490  Biso   1.000  C
  H233     1.0000 0.32110  0.61710  0.68580  Biso   1.000  H
  C310     1.0000 0.31070  0.57210  0.75480  Biso   1.000  C
  C311     1.0000 0.31970  0.57200  0.81430  Biso   1.000  C
  C312     1.0000 0.34180  0.61560  0.84130  Biso   1.000  C
  H234     1.0000 0.34770  0.61540  0.88030  Biso   1.000  H
  C313     1.0000 0.35550  0.66140  0.80750  Biso   1.000  C
  C314     1.0000 0.37160  0.70856  0.84150  Biso   1.000  C
  C315     1.0000 0.41310  0.70740  0.88010  Biso   1.000  C
  H235     1.0000 0.43380  0.67670  0.88250  Biso   1.000  H
  C316     1.0000 0.42490  0.74910  0.91460  Biso   1.000  C
  H236     1.0000 0.45290  0.74660  0.94030  Biso   1.000  H
  C317     1.0000 0.39430  0.79624  0.91130  Biso   1.000  C
  C318     1.0000 0.35540  0.79870  0.87000  Biso   1.000  C
  H237     1.0000 0.33610  0.83010  0.86530  Biso   1.000  H
  C319     1.0000 0.34460  0.75580  0.83580  Biso   1.000  C
  H238     1.0000 0.31830  0.75880  0.80800  Biso   1.000  H
  C320     1.0000 0.40430  0.84140  0.95200  Biso   1.000  C
  C321     1.0000 0.26750  0.53030  0.67630  Biso   1.000  C
  H239     1.0000 0.25340  0.56560  0.66870  Biso   1.000  H
  H240     1.0000 0.29680  0.52420  0.65010  Biso   1.000  H
  C322     1.0000 0.26710  0.39230  0.92900  Biso   1.000  C
  H241     1.0000 0.23080  0.39620  0.91530  Biso   1.000  H
  H242     1.0000 0.26610  0.38830  0.97000  Biso   1.000  H
  C323     1.0000 0.26990  0.48430  0.92340  Biso   1.000  C
  H243     1.0000 0.26170  0.48760  0.96350  Biso   1.000  H
  H244     1.0000 0.23670  0.48370  0.90230  Biso   1.000  H
  C324     1.0000 0.30350  0.53080  0.90440  Biso   1.000  C
  H245     1.0000 0.28870  0.56420  0.91780  Biso   1.000  H
  H246     1.0000 0.33970  0.52740  0.91820  Biso   1.000  H
  C325     1.0000 0.30130  0.30460  0.81210  Biso   1.000  C
  C326     1.0000 0.29000  0.30400  0.75440  Biso   1.000  C
  C327     1.0000 0.30840  0.26070  0.71990  Biso   1.000  C
  H247     1.0000 0.30240  0.26060  0.68090  Biso   1.000  H
  C328     1.0000 0.33570  0.21860  0.74580  Biso   1.000  C
  C329     1.0000 0.34620  0.22040  0.80250  Biso   1.000  C
  C330     1.0000 0.32940  0.26290  0.83370  Biso   1.000  C
  H248     1.0000 0.33770  0.26340  0.87220  Biso   1.000  H
  C331     1.0000 0.37810  0.17940  0.83180  Biso   1.000  C
  C332     1.0000 0.43430  0.18200  0.83350  Biso   1.000  C
  H249     1.0000 0.45150  0.20870  0.81310  Biso   1.000  H
  C333     1.0000 0.46460  0.14660  0.86410  Biso   1.000  C
  H250     1.0000 0.50150  0.14950  0.86420  Biso   1.000  H
  C334     1.0000 0.44000  0.10640  0.89487  Biso   1.000  C
  C335     1.0000 0.38610  0.10393  0.89500  Biso   1.000  C
  H251     1.0000 0.36930  0.07800  0.91680  Biso   1.000  H
  C336     1.0000 0.35510  0.13920  0.86340  Biso   1.000  C
  H252     1.0000 0.31830  0.13550  0.86360  Biso   1.000  H
  O98      1.0000 0.45507  0.93395  0.53273  Biso   1.000  O
  O99      1.0000 0.28734  0.52886  0.73250  Biso   1.000  O
  O100     1.0000 0.26460  0.34566  0.72915  Biso   1.000  O
  O101     1.0000 0.28506  0.34760  0.84290  Biso   1.000  O
  O102     1.0000 0.29803  0.43808  0.91370  Biso   1.000  O
  O103     1.0000 0.30173  0.52769  0.84096  Biso   1.000  O
  O104     1.0000 0.43650  0.83277  0.99087  Biso   1.000  O
  O105     1.0000 0.37752  0.88312  0.94437  Biso   1.000  O
  Zn15     1.0000 0.46231  0.90773  0.45167  Biso   1.000  Zn
  Zn16     1.0000 0.38092  0.93994  0.55520  Biso   1.000  Zn
  C337     1.0000 0.63730  0.29140  0.71370  Biso   1.000  C
  C338     1.0000 0.77200  0.50700  0.66560  Biso   1.000  C
  H253     1.0000 0.79200  0.49960  0.63120  Biso   1.000  H
  H254     1.0000 0.79610  0.51190  0.69750  Biso   1.000  H
  C339     1.0000 0.75880  0.60310  0.64730  Biso   1.000  C
  H255     1.0000 0.76670  0.60570  0.60700  Biso   1.000  H
  H256     1.0000 0.79200  0.60010  0.66800  Biso   1.000  H
  C340     1.0000 0.72800  0.65200  0.66690  Biso   1.000  C
  H257     1.0000 0.74180  0.68400  0.64900  Biso   1.000  H
  H258     1.0000 0.69050  0.64870  0.65750  Biso   1.000  H
  C341     1.0000 0.70730  0.65570  0.90230  Biso   1.000  C
  H259     1.0000 0.66950  0.65630  0.91100  Biso   1.000  H
  H260     1.0000 0.72330  0.68800  0.91690  Biso   1.000  H
  C342     1.0000 0.52629  0.92970  0.92980  Biso   1.000  C
  C343     1.0000 0.64910  0.82630  0.70830  Biso   1.000  C
  C344     1.0000 0.59430  0.83140  0.68970  Biso   1.000  C
  H261     1.0000 0.56950  0.80530  0.69910  Biso   1.000  H
  C345     1.0000 0.57920  0.87480  0.65810  Biso   1.000  C
  H262     1.0000 0.54380  0.87860  0.64740  Biso   1.000  H
  C346     1.0000 0.61530  0.91240  0.64230  Biso   1.000  C
  C347     1.0000 0.66740  0.90800  0.65910  Biso   1.000  C
  H263     1.0000 0.69190  0.93410  0.64860  Biso   1.000  H
  C348     1.0000 0.68390  0.86540  0.69160  Biso   1.000  C
  H264     1.0000 0.71940  0.86300  0.70240  Biso   1.000  H
  C349     1.0000 0.59700  0.95970  0.60710  Biso   1.000  C
  O106     1.0000 0.63279  0.12399  0.60106  Biso   1.000  O
  O107     1.0000 0.54600  0.14027  0.61624  Biso   1.000  O
  O108     1.0000 0.72660  0.55900  0.65780  Biso   1.000  O
  O109     1.0000 0.47697  0.92756  0.92079  Biso   1.000  O
  O110     1.0000 0.54744  0.96023  0.96619  Biso   1.000  O
  O111     1.0000 0.63318  0.99363  0.59408  Biso   1.000  O
  O112     1.0000 0.55035  0.96221  0.59360  Biso   1.000  O
  C350     1.0000 0.59500  0.15120  0.62090  Biso   1.000  C
  C351     1.0000 0.60840  0.20210  0.65270  Biso   1.000  C
  C352     1.0000 0.65940  0.22140  0.64880  Biso   1.000  C
  H265     1.0000 0.68460  0.20400  0.62670  Biso   1.000  H
  C353     1.0000 0.67310  0.26880  0.67910  Biso   1.000  C
  H266     1.0000 0.70680  0.28380  0.67490  Biso   1.000  H
  C354     1.0000 0.58570  0.27140  0.71500  Biso   1.000  C
  H267     1.0000 0.55970  0.28880  0.73630  Biso   1.000  H
  C355     1.0000 0.57270  0.22620  0.68510  Biso   1.000  C
  H268     1.0000 0.53840  0.21230  0.68770  Biso   1.000  H
  C356     1.0000 0.65130  0.33910  0.75080  Biso   1.000  C
  C357     1.0000 0.67390  0.38330  0.72490  Biso   1.000  C
  H269     1.0000 0.67890  0.38290  0.68580  Biso   1.000  H
  C358     1.0000 0.68930  0.42790  0.75480  Biso   1.000  C
  C359     1.0000 0.68030  0.42800  0.81430  Biso   1.000  C
  C360     1.0000 0.65820  0.38440  0.84130  Biso   1.000  C
  H270     1.0000 0.65230  0.38460  0.88030  Biso   1.000  H
  C361     1.0000 0.64450  0.33860  0.80750  Biso   1.000  C
  C362     1.0000 0.62840  0.29144  0.84150  Biso   1.000  C
  C363     1.0000 0.58690  0.29260  0.88010  Biso   1.000  C
  H271     1.0000 0.56620  0.32330  0.88250  Biso   1.000  H
  C364     1.0000 0.57510  0.25090  0.91460  Biso   1.000  C
  H272     1.0000 0.54710  0.25340  0.94030  Biso   1.000  H
  C365     1.0000 0.60570  0.20376  0.91130  Biso   1.000  C
  C366     1.0000 0.64460  0.20130  0.87000  Biso   1.000  C
  H273     1.0000 0.66390  0.16990  0.86530  Biso   1.000  H
  C367     1.0000 0.65540  0.24420  0.83580  Biso   1.000  C
  H274     1.0000 0.68170  0.24120  0.80800  Biso   1.000  H
  C368     1.0000 0.59570  0.15860  0.95200  Biso   1.000  C
  C369     1.0000 0.73250  0.46970  0.67630  Biso   1.000  C
  H275     1.0000 0.74660  0.43440  0.66870  Biso   1.000  H
  H276     1.0000 0.70320  0.47580  0.65010  Biso   1.000  H
  C370     1.0000 0.73290  0.60770  0.92900  Biso   1.000  C
  H277     1.0000 0.76920  0.60380  0.91530  Biso   1.000  H
  H278     1.0000 0.73390  0.61170  0.97000  Biso   1.000  H
  C371     1.0000 0.73010  0.51570  0.92340  Biso   1.000  C
  H279     1.0000 0.73830  0.51240  0.96350  Biso   1.000  H
  H280     1.0000 0.76330  0.51630  0.90230  Biso   1.000  H
  C372     1.0000 0.69650  0.46920  0.90440  Biso   1.000  C
  H281     1.0000 0.71130  0.43580  0.91780  Biso   1.000  H
  H282     1.0000 0.66030  0.47260  0.91820  Biso   1.000  H
  C373     1.0000 0.69870  0.69540  0.81210  Biso   1.000  C
  C374     1.0000 0.71000  0.69600  0.75440  Biso   1.000  C
  C375     1.0000 0.69160  0.73930  0.71990  Biso   1.000  C
  H283     1.0000 0.69760  0.73940  0.68090  Biso   1.000  H
  C376     1.0000 0.66430  0.78140  0.74580  Biso   1.000  C
  C377     1.0000 0.65380  0.77960  0.80250  Biso   1.000  C
  C378     1.0000 0.67060  0.73710  0.83370  Biso   1.000  C
  H284     1.0000 0.66230  0.73660  0.87220  Biso   1.000  H
  C379     1.0000 0.62190  0.82060  0.83180  Biso   1.000  C
  C380     1.0000 0.56570  0.81800  0.83350  Biso   1.000  C
  H285     1.0000 0.54850  0.79130  0.81310  Biso   1.000  H
  C381     1.0000 0.53540  0.85340  0.86410  Biso   1.000  C
  H286     1.0000 0.49850  0.85050  0.86420  Biso   1.000  H
  C382     1.0000 0.56000  0.89360  0.89487  Biso   1.000  C
  C383     1.0000 0.61390  0.89607  0.89500  Biso   1.000  C
  H287     1.0000 0.63070  0.92200  0.91680  Biso   1.000  H
  C384     1.0000 0.64490  0.86080  0.86340  Biso   1.000  C
  H288     1.0000 0.68170  0.86450  0.86360  Biso   1.000  H
  O113     1.0000 0.54493  0.06605  0.53273  Biso   1.000  O
  O114     1.0000 0.71266  0.47114  0.73250  Biso   1.000  O
  O115     1.0000 0.73540  0.65434  0.72915  Biso   1.000  O
  O116     1.0000 0.71494  0.65240  0.84290  Biso   1.000  O
  O117     1.0000 0.70197  0.56192  0.91370  Biso   1.000  O
  O118     1.0000 0.69827  0.47231  0.84096  Biso   1.000  O
  O119     1.0000 0.56350  0.16723  0.99087  Biso   1.000  O
  O120     1.0000 0.62248  0.11688  0.94437  Biso   1.000  O
  Zn17     1.0000 0.53769  0.09227  0.45167  Biso   1.000  Zn
  Zn18     1.0000 0.61908  0.06006  0.55520  Biso   1.000  Zn
  Zn19     1.0000 0.50000  0.00000  0.03344  Biso   1.000  Zn
  Zn20     1.0000 0.50000  0.00000  0.53344  Biso   1.000  Zn
