data_image0
_cell_length_a       31.8181
_cell_length_b       31.8181
_cell_length_c       31.8181
_cell_angle_alpha    90
_cell_angle_beta     90
_cell_angle_gamma    90

_symmetry_space_group_name_H-M    "P 1"
_symmetry_int_tables_number       1

loop_
  _symmetry_equiv_pos_as_xyz
  'x, y, z'

loop_
  _atom_site_label
  _atom_site_occupancy
  _atom_site_fract_x
  _atom_site_fract_y
  _atom_site_fract_z
  _atom_site_thermal_displace_type
  _atom_site_B_iso_or_equiv
  _atom_site_type_symbol
  N1       1.0000 0.70592  0.95375  0.73778  Biso   1.000  N
  N2       1.0000 0.65438  0.00016  0.68634  Biso   1.000  N
  N3       1.0000 0.70759  0.00463  0.64208  Biso   1.000  N
  C1       1.0000 0.77827  0.94140  0.76382  Biso   1.000  C
  H1       1.0000 0.78950  0.95890  0.74240  Biso   1.000  H
  C2       1.0000 0.80450  0.92290  0.79330  Biso   1.000  C
  H2       1.0000 0.83400  0.92740  0.79210  Biso   1.000  H
  C3       1.0000 0.78750  0.89770  0.82420  Biso   1.000  C
  H3       1.0000 0.80540  0.88520  0.84450  Biso   1.000  H
  C4       1.0000 0.74430  0.89040  0.82610  Biso   1.000  C
  H4       1.0000 0.73300  0.87270  0.84720  Biso   1.000  H
  C5       1.0000 0.71800  0.90930  0.79675  Biso   1.000  C
  H5       1.0000 0.68840  0.90520  0.79800  Biso   1.000  H
  C6       1.0000 0.73540  0.93399  0.76604  Biso   1.000  C
  N4       1.0000 0.72275  0.96869  0.70500  Biso   1.000  N
  C7       1.0000 0.69431  0.98991  0.67959  Biso   1.000  C
  C8       1.0000 0.64175  0.02161  0.65150  Biso   1.000  C
  H6       1.0000 0.61440  0.03270  0.64720  Biso   1.000  H
  C9       1.0000 0.67438  0.02484  0.62363  Biso   1.000  C
  H7       1.0000 0.67400  0.03830  0.59700  Biso   1.000  H
  H8       1.0000 0.77030  0.00400  0.64740  Biso   1.000  H
  N5       1.0000 0.20592  0.45375  0.23778  Biso   1.000  N
  N6       1.0000 0.15438  0.50016  0.18634  Biso   1.000  N
  N7       1.0000 0.20759  0.50463  0.14208  Biso   1.000  N
  C10      1.0000 0.27827  0.44140  0.26382  Biso   1.000  C
  H9       1.0000 0.28950  0.45890  0.24240  Biso   1.000  H
  C11      1.0000 0.30450  0.42290  0.29330  Biso   1.000  C
  H10      1.0000 0.33400  0.42740  0.29210  Biso   1.000  H
  C12      1.0000 0.28750  0.39770  0.32420  Biso   1.000  C
  H11      1.0000 0.30540  0.38520  0.34450  Biso   1.000  H
  C13      1.0000 0.24430  0.39040  0.32610  Biso   1.000  C
  H12      1.0000 0.23300  0.37270  0.34720  Biso   1.000  H
  C14      1.0000 0.21800  0.40930  0.29675  Biso   1.000  C
  H13      1.0000 0.18840  0.40520  0.29800  Biso   1.000  H
  C15      1.0000 0.23540  0.43399  0.26604  Biso   1.000  C
  N8       1.0000 0.22275  0.46869  0.20500  Biso   1.000  N
  C16      1.0000 0.19431  0.48991  0.17959  Biso   1.000  C
  C17      1.0000 0.14175  0.52161  0.15150  Biso   1.000  C
  H14      1.0000 0.11440  0.53270  0.14720  Biso   1.000  H
  C18      1.0000 0.17438  0.52484  0.12363  Biso   1.000  C
  H15      1.0000 0.17400  0.53830  0.09700  Biso   1.000  H
  H16      1.0000 0.27030  0.50400  0.14740  Biso   1.000  H
  N9       1.0000 0.79408  0.04625  0.23778  Biso   1.000  N
  N10      1.0000 0.84562  0.99984  0.18634  Biso   1.000  N
  N11      1.0000 0.79241  0.99537  0.14208  Biso   1.000  N
  C19      1.0000 0.72173  0.05860  0.26382  Biso   1.000  C
  H17      1.0000 0.71050  0.04110  0.24240  Biso   1.000  H
  C20      1.0000 0.69550  0.07710  0.29330  Biso   1.000  C
  H18      1.0000 0.66600  0.07260  0.29210  Biso   1.000  H
  C21      1.0000 0.71250  0.10230  0.32420  Biso   1.000  C
  H19      1.0000 0.69460  0.11480  0.34450  Biso   1.000  H
  C22      1.0000 0.75570  0.10960  0.32610  Biso   1.000  C
  H20      1.0000 0.76700  0.12730  0.34720  Biso   1.000  H
  C23      1.0000 0.78200  0.09070  0.29675  Biso   1.000  C
  H21      1.0000 0.81160  0.09480  0.29800  Biso   1.000  H
  C24      1.0000 0.76460  0.06601  0.26604  Biso   1.000  C
  N12      1.0000 0.77725  0.03131  0.20500  Biso   1.000  N
  C25      1.0000 0.80569  0.01009  0.17959  Biso   1.000  C
  C26      1.0000 0.85825  0.97839  0.15150  Biso   1.000  C
  H22      1.0000 0.88560  0.96730  0.14720  Biso   1.000  H
  C27      1.0000 0.82562  0.97516  0.12363  Biso   1.000  C
  H23      1.0000 0.82600  0.96170  0.09700  Biso   1.000  H
  H24      1.0000 0.72970  0.99600  0.14740  Biso   1.000  H
  N13      1.0000 0.29408  0.54625  0.73778  Biso   1.000  N
  N14      1.0000 0.34562  0.49984  0.68634  Biso   1.000  N
  N15      1.0000 0.29241  0.49537  0.64208  Biso   1.000  N
  C28      1.0000 0.22173  0.55860  0.76382  Biso   1.000  C
  H25      1.0000 0.21050  0.54110  0.74240  Biso   1.000  H
  C29      1.0000 0.19550  0.57710  0.79330  Biso   1.000  C
  H26      1.0000 0.16600  0.57260  0.79210  Biso   1.000  H
  C30      1.0000 0.21250  0.60230  0.82420  Biso   1.000  C
  H27      1.0000 0.19460  0.61480  0.84450  Biso   1.000  H
  C31      1.0000 0.25570  0.60960  0.82610  Biso   1.000  C
  H28      1.0000 0.26700  0.62730  0.84720  Biso   1.000  H
  C32      1.0000 0.28200  0.59070  0.79675  Biso   1.000  C
  H29      1.0000 0.31160  0.59480  0.79800  Biso   1.000  H
  C33      1.0000 0.26460  0.56601  0.76604  Biso   1.000  C
  N16      1.0000 0.27725  0.53131  0.70500  Biso   1.000  N
  C34      1.0000 0.30569  0.51009  0.67959  Biso   1.000  C
  C35      1.0000 0.35825  0.47839  0.65150  Biso   1.000  C
  H30      1.0000 0.38560  0.46730  0.64720  Biso   1.000  H
  C36      1.0000 0.32562  0.47516  0.62363  Biso   1.000  C
  H31      1.0000 0.32600  0.46170  0.59700  Biso   1.000  H
  H32      1.0000 0.22970  0.49600  0.64740  Biso   1.000  H
  N17      1.0000 0.29408  0.45375  0.76222  Biso   1.000  N
  N18      1.0000 0.34562  0.50016  0.81366  Biso   1.000  N
  N19      1.0000 0.29241  0.50463  0.85792  Biso   1.000  N
  C37      1.0000 0.22173  0.44140  0.73618  Biso   1.000  C
  H33      1.0000 0.21050  0.45890  0.75760  Biso   1.000  H
  C38      1.0000 0.19550  0.42290  0.70670  Biso   1.000  C
  H34      1.0000 0.16600  0.42740  0.70790  Biso   1.000  H
  C39      1.0000 0.21250  0.39770  0.67580  Biso   1.000  C
  H35      1.0000 0.19460  0.38520  0.65550  Biso   1.000  H
  C40      1.0000 0.25570  0.39040  0.67390  Biso   1.000  C
  H36      1.0000 0.26700  0.37270  0.65280  Biso   1.000  H
  C41      1.0000 0.28200  0.40930  0.70325  Biso   1.000  C
  H37      1.0000 0.31160  0.40520  0.70200  Biso   1.000  H
  C42      1.0000 0.26460  0.43399  0.73396  Biso   1.000  C
  N20      1.0000 0.27725  0.46869  0.79500  Biso   1.000  N
  C43      1.0000 0.30569  0.48991  0.82041  Biso   1.000  C
  C44      1.0000 0.35825  0.52161  0.84850  Biso   1.000  C
  H38      1.0000 0.38560  0.53270  0.85280  Biso   1.000  H
  C45      1.0000 0.32562  0.52484  0.87637  Biso   1.000  C
  H39      1.0000 0.32600  0.53830  0.90300  Biso   1.000  H
  H40      1.0000 0.22970  0.50400  0.85260  Biso   1.000  H
  N21      1.0000 0.79408  0.95375  0.26222  Biso   1.000  N
  N22      1.0000 0.84562  0.00016  0.31366  Biso   1.000  N
  N23      1.0000 0.79241  0.00463  0.35792  Biso   1.000  N
  C46      1.0000 0.72173  0.94140  0.23618  Biso   1.000  C
  H41      1.0000 0.71050  0.95890  0.25760  Biso   1.000  H
  C47      1.0000 0.69550  0.92290  0.20670  Biso   1.000  C
  H42      1.0000 0.66600  0.92740  0.20790  Biso   1.000  H
  C48      1.0000 0.71250  0.89770  0.17580  Biso   1.000  C
  H43      1.0000 0.69460  0.88520  0.15550  Biso   1.000  H
  C49      1.0000 0.75570  0.89040  0.17390  Biso   1.000  C
  H44      1.0000 0.76700  0.87270  0.15280  Biso   1.000  H
  C50      1.0000 0.78200  0.90930  0.20325  Biso   1.000  C
  H45      1.0000 0.81160  0.90520  0.20200  Biso   1.000  H
  C51      1.0000 0.76460  0.93399  0.23396  Biso   1.000  C
  N24      1.0000 0.77725  0.96869  0.29500  Biso   1.000  N
  C52      1.0000 0.80569  0.98991  0.32041  Biso   1.000  C
  C53      1.0000 0.85825  0.02161  0.34850  Biso   1.000  C
  H46      1.0000 0.88560  0.03270  0.35280  Biso   1.000  H
  C54      1.0000 0.82562  0.02484  0.37637  Biso   1.000  C
  H47      1.0000 0.82600  0.03830  0.40300  Biso   1.000  H
  H48      1.0000 0.72970  0.00400  0.35260  Biso   1.000  H
  N25      1.0000 0.20592  0.54625  0.26222  Biso   1.000  N
  N26      1.0000 0.15438  0.49984  0.31366  Biso   1.000  N
  N27      1.0000 0.20759  0.49537  0.35792  Biso   1.000  N
  C55      1.0000 0.27827  0.55860  0.23618  Biso   1.000  C
  H49      1.0000 0.28950  0.54110  0.25760  Biso   1.000  H
  C56      1.0000 0.30450  0.57710  0.20670  Biso   1.000  C
  H50      1.0000 0.33400  0.57260  0.20790  Biso   1.000  H
  C57      1.0000 0.28750  0.60230  0.17580  Biso   1.000  C
  H51      1.0000 0.30540  0.61480  0.15550  Biso   1.000  H
  C58      1.0000 0.24430  0.60960  0.17390  Biso   1.000  C
  H52      1.0000 0.23300  0.62730  0.15280  Biso   1.000  H
  C59      1.0000 0.21800  0.59070  0.20325  Biso   1.000  C
  H53      1.0000 0.18840  0.59480  0.20200  Biso   1.000  H
  C60      1.0000 0.23540  0.56601  0.23396  Biso   1.000  C
  N28      1.0000 0.22275  0.53131  0.29500  Biso   1.000  N
  C61      1.0000 0.19431  0.51009  0.32041  Biso   1.000  C
  C62      1.0000 0.14175  0.47839  0.34850  Biso   1.000  C
  H54      1.0000 0.11440  0.46730  0.35280  Biso   1.000  H
  C63      1.0000 0.17438  0.47516  0.37637  Biso   1.000  C
  H55      1.0000 0.17400  0.46170  0.40300  Biso   1.000  H
  H56      1.0000 0.27030  0.49600  0.35260  Biso   1.000  H
  N29      1.0000 0.70592  0.04625  0.76222  Biso   1.000  N
  N30      1.0000 0.65438  0.99984  0.81366  Biso   1.000  N
  N31      1.0000 0.70759  0.99537  0.85792  Biso   1.000  N
  C64      1.0000 0.77827  0.05860  0.73618  Biso   1.000  C
  H57      1.0000 0.78950  0.04110  0.75760  Biso   1.000  H
  C65      1.0000 0.80450  0.07710  0.70670  Biso   1.000  C
  H58      1.0000 0.83400  0.07260  0.70790  Biso   1.000  H
  C66      1.0000 0.78750  0.10230  0.67580  Biso   1.000  C
  H59      1.0000 0.80540  0.11480  0.65550  Biso   1.000  H
  C67      1.0000 0.74430  0.10960  0.67390  Biso   1.000  C
  H60      1.0000 0.73300  0.12730  0.65280  Biso   1.000  H
  C68      1.0000 0.71800  0.09070  0.70325  Biso   1.000  C
  H61      1.0000 0.68840  0.09480  0.70200  Biso   1.000  H
  C69      1.0000 0.73540  0.06601  0.73396  Biso   1.000  C
  N32      1.0000 0.72275  0.03131  0.79500  Biso   1.000  N
  C70      1.0000 0.69431  0.01009  0.82041  Biso   1.000  C
  C71      1.0000 0.64175  0.97839  0.84850  Biso   1.000  C
  H62      1.0000 0.61440  0.96730  0.85280  Biso   1.000  H
  C72      1.0000 0.67438  0.97516  0.87637  Biso   1.000  C
  H63      1.0000 0.67400  0.96170  0.90300  Biso   1.000  H
  H64      1.0000 0.77030  0.99600  0.85260  Biso   1.000  H
  N33      1.0000 0.73778  0.70592  0.95375  Biso   1.000  N
  N34      1.0000 0.68634  0.65438  0.00016  Biso   1.000  N
  N35      1.0000 0.64208  0.70759  0.00463  Biso   1.000  N
  C73      1.0000 0.76382  0.77827  0.94140  Biso   1.000  C
  H65      1.0000 0.74240  0.78950  0.95890  Biso   1.000  H
  C74      1.0000 0.79330  0.80450  0.92290  Biso   1.000  C
  H66      1.0000 0.79210  0.83400  0.92740  Biso   1.000  H
  C75      1.0000 0.82420  0.78750  0.89770  Biso   1.000  C
  H67      1.0000 0.84450  0.80540  0.88520  Biso   1.000  H
  C76      1.0000 0.82610  0.74430  0.89040  Biso   1.000  C
  H68      1.0000 0.84720  0.73300  0.87270  Biso   1.000  H
  C77      1.0000 0.79675  0.71800  0.90930  Biso   1.000  C
  H69      1.0000 0.79800  0.68840  0.90520  Biso   1.000  H
  C78      1.0000 0.76604  0.73540  0.93399  Biso   1.000  C
  N36      1.0000 0.70500  0.72275  0.96869  Biso   1.000  N
  C79      1.0000 0.67959  0.69431  0.98991  Biso   1.000  C
  C80      1.0000 0.65150  0.64175  0.02161  Biso   1.000  C
  H70      1.0000 0.64720  0.61440  0.03270  Biso   1.000  H
  C81      1.0000 0.62363  0.67438  0.02484  Biso   1.000  C
  H71      1.0000 0.59700  0.67400  0.03830  Biso   1.000  H
  H72      1.0000 0.64740  0.77030  0.00400  Biso   1.000  H
  N37      1.0000 0.23778  0.20592  0.45375  Biso   1.000  N
  N38      1.0000 0.18634  0.15438  0.50016  Biso   1.000  N
  N39      1.0000 0.14208  0.20759  0.50463  Biso   1.000  N
  C82      1.0000 0.26382  0.27827  0.44140  Biso   1.000  C
  H73      1.0000 0.24240  0.28950  0.45890  Biso   1.000  H
  C83      1.0000 0.29330  0.30450  0.42290  Biso   1.000  C
  H74      1.0000 0.29210  0.33400  0.42740  Biso   1.000  H
  C84      1.0000 0.32420  0.28750  0.39770  Biso   1.000  C
  H75      1.0000 0.34450  0.30540  0.38520  Biso   1.000  H
  C85      1.0000 0.32610  0.24430  0.39040  Biso   1.000  C
  H76      1.0000 0.34720  0.23300  0.37270  Biso   1.000  H
  C86      1.0000 0.29675  0.21800  0.40930  Biso   1.000  C
  H77      1.0000 0.29800  0.18840  0.40520  Biso   1.000  H
  C87      1.0000 0.26604  0.23540  0.43399  Biso   1.000  C
  N40      1.0000 0.20500  0.22275  0.46869  Biso   1.000  N
  C88      1.0000 0.17959  0.19431  0.48991  Biso   1.000  C
  C89      1.0000 0.15150  0.14175  0.52161  Biso   1.000  C
  H78      1.0000 0.14720  0.11440  0.53270  Biso   1.000  H
  C90      1.0000 0.12363  0.17438  0.52484  Biso   1.000  C
  H79      1.0000 0.09700  0.17400  0.53830  Biso   1.000  H
  H80      1.0000 0.14740  0.27030  0.50400  Biso   1.000  H
  N41      1.0000 0.23778  0.79408  0.04625  Biso   1.000  N
  N42      1.0000 0.18634  0.84562  0.99984  Biso   1.000  N
  N43      1.0000 0.14208  0.79241  0.99537  Biso   1.000  N
  C91      1.0000 0.26382  0.72173  0.05860  Biso   1.000  C
  H81      1.0000 0.24240  0.71050  0.04110  Biso   1.000  H
  C92      1.0000 0.29330  0.69550  0.07710  Biso   1.000  C
  H82      1.0000 0.29210  0.66600  0.07260  Biso   1.000  H
  C93      1.0000 0.32420  0.71250  0.10230  Biso   1.000  C
  H83      1.0000 0.34450  0.69460  0.11480  Biso   1.000  H
  C94      1.0000 0.32610  0.75570  0.10960  Biso   1.000  C
  H84      1.0000 0.34720  0.76700  0.12730  Biso   1.000  H
  C95      1.0000 0.29675  0.78200  0.09070  Biso   1.000  C
  H85      1.0000 0.29800  0.81160  0.09480  Biso   1.000  H
  C96      1.0000 0.26604  0.76460  0.06601  Biso   1.000  C
  N44      1.0000 0.20500  0.77725  0.03131  Biso   1.000  N
  C97      1.0000 0.17959  0.80569  0.01009  Biso   1.000  C
  C98      1.0000 0.15150  0.85825  0.97839  Biso   1.000  C
  H86      1.0000 0.14720  0.88560  0.96730  Biso   1.000  H
  C99      1.0000 0.12363  0.82562  0.97516  Biso   1.000  C
  H87      1.0000 0.09700  0.82600  0.96170  Biso   1.000  H
  H88      1.0000 0.14740  0.72970  0.99600  Biso   1.000  H
  N45      1.0000 0.73778  0.29408  0.54625  Biso   1.000  N
  N46      1.0000 0.68634  0.34562  0.49984  Biso   1.000  N
  N47      1.0000 0.64208  0.29241  0.49537  Biso   1.000  N
  C100     1.0000 0.76382  0.22173  0.55860  Biso   1.000  C
  H89      1.0000 0.74240  0.21050  0.54110  Biso   1.000  H
  C101     1.0000 0.79330  0.19550  0.57710  Biso   1.000  C
  H90      1.0000 0.79210  0.16600  0.57260  Biso   1.000  H
  C102     1.0000 0.82420  0.21250  0.60230  Biso   1.000  C
  H91      1.0000 0.84450  0.19460  0.61480  Biso   1.000  H
  C103     1.0000 0.82610  0.25570  0.60960  Biso   1.000  C
  H92      1.0000 0.84720  0.26700  0.62730  Biso   1.000  H
  C104     1.0000 0.79675  0.28200  0.59070  Biso   1.000  C
  H93      1.0000 0.79800  0.31160  0.59480  Biso   1.000  H
  C105     1.0000 0.76604  0.26460  0.56601  Biso   1.000  C
  N48      1.0000 0.70500  0.27725  0.53131  Biso   1.000  N
  C106     1.0000 0.67959  0.30569  0.51009  Biso   1.000  C
  C107     1.0000 0.65150  0.35825  0.47839  Biso   1.000  C
  H94      1.0000 0.64720  0.38560  0.46730  Biso   1.000  H
  C108     1.0000 0.62363  0.32562  0.47516  Biso   1.000  C
  H95      1.0000 0.59700  0.32600  0.46170  Biso   1.000  H
  H96      1.0000 0.64740  0.22970  0.49600  Biso   1.000  H
  N49      1.0000 0.76222  0.29408  0.45375  Biso   1.000  N
  N50      1.0000 0.81366  0.34562  0.50016  Biso   1.000  N
  N51      1.0000 0.85792  0.29241  0.50463  Biso   1.000  N
  C109     1.0000 0.73618  0.22173  0.44140  Biso   1.000  C
  H97      1.0000 0.75760  0.21050  0.45890  Biso   1.000  H
  C110     1.0000 0.70670  0.19550  0.42290  Biso   1.000  C
  H98      1.0000 0.70790  0.16600  0.42740  Biso   1.000  H
  C111     1.0000 0.67580  0.21250  0.39770  Biso   1.000  C
  H99      1.0000 0.65550  0.19460  0.38520  Biso   1.000  H
  C112     1.0000 0.67390  0.25570  0.39040  Biso   1.000  C
  H100     1.0000 0.65280  0.26700  0.37270  Biso   1.000  H
  C113     1.0000 0.70325  0.28200  0.40930  Biso   1.000  C
  H101     1.0000 0.70200  0.31160  0.40520  Biso   1.000  H
  C114     1.0000 0.73396  0.26460  0.43399  Biso   1.000  C
  N52      1.0000 0.79500  0.27725  0.46869  Biso   1.000  N
  C115     1.0000 0.82041  0.30569  0.48991  Biso   1.000  C
  C116     1.0000 0.84850  0.35825  0.52161  Biso   1.000  C
  H102     1.0000 0.85280  0.38560  0.53270  Biso   1.000  H
  C117     1.0000 0.87637  0.32562  0.52484  Biso   1.000  C
  H103     1.0000 0.90300  0.32600  0.53830  Biso   1.000  H
  H104     1.0000 0.85260  0.22970  0.50400  Biso   1.000  H
  N53      1.0000 0.26222  0.79408  0.95375  Biso   1.000  N
  N54      1.0000 0.31366  0.84562  0.00016  Biso   1.000  N
  N55      1.0000 0.35792  0.79241  0.00463  Biso   1.000  N
  C118     1.0000 0.23618  0.72173  0.94140  Biso   1.000  C
  H105     1.0000 0.25760  0.71050  0.95890  Biso   1.000  H
  C119     1.0000 0.20670  0.69550  0.92290  Biso   1.000  C
  H106     1.0000 0.20790  0.66600  0.92740  Biso   1.000  H
  C120     1.0000 0.17580  0.71250  0.89770  Biso   1.000  C
  H107     1.0000 0.15550  0.69460  0.88520  Biso   1.000  H
  C121     1.0000 0.17390  0.75570  0.89040  Biso   1.000  C
  H108     1.0000 0.15280  0.76700  0.87270  Biso   1.000  H
  C122     1.0000 0.20325  0.78200  0.90930  Biso   1.000  C
  H109     1.0000 0.20200  0.81160  0.90520  Biso   1.000  H
  C123     1.0000 0.23396  0.76460  0.93399  Biso   1.000  C
  N56      1.0000 0.29500  0.77725  0.96869  Biso   1.000  N
  C124     1.0000 0.32041  0.80569  0.98991  Biso   1.000  C
  C125     1.0000 0.34850  0.85825  0.02161  Biso   1.000  C
  H110     1.0000 0.35280  0.88560  0.03270  Biso   1.000  H
  C126     1.0000 0.37637  0.82562  0.02484  Biso   1.000  C
  H111     1.0000 0.40300  0.82600  0.03830  Biso   1.000  H
  H112     1.0000 0.35260  0.72970  0.00400  Biso   1.000  H
  N57      1.0000 0.26222  0.20592  0.54625  Biso   1.000  N
  N58      1.0000 0.31366  0.15438  0.49984  Biso   1.000  N
  N59      1.0000 0.35792  0.20759  0.49537  Biso   1.000  N
  C127     1.0000 0.23618  0.27827  0.55860  Biso   1.000  C
  H113     1.0000 0.25760  0.28950  0.54110  Biso   1.000  H
  C128     1.0000 0.20670  0.30450  0.57710  Biso   1.000  C
  H114     1.0000 0.20790  0.33400  0.57260  Biso   1.000  H
  C129     1.0000 0.17580  0.28750  0.60230  Biso   1.000  C
  H115     1.0000 0.15550  0.30540  0.61480  Biso   1.000  H
  C130     1.0000 0.17390  0.24430  0.60960  Biso   1.000  C
  H116     1.0000 0.15280  0.23300  0.62730  Biso   1.000  H
  C131     1.0000 0.20325  0.21800  0.59070  Biso   1.000  C
  H117     1.0000 0.20200  0.18840  0.59480  Biso   1.000  H
  C132     1.0000 0.23396  0.23540  0.56601  Biso   1.000  C
  N60      1.0000 0.29500  0.22275  0.53131  Biso   1.000  N
  C133     1.0000 0.32041  0.19431  0.51009  Biso   1.000  C
  C134     1.0000 0.34850  0.14175  0.47839  Biso   1.000  C
  H118     1.0000 0.35280  0.11440  0.46730  Biso   1.000  H
  C135     1.0000 0.37637  0.17438  0.47516  Biso   1.000  C
  H119     1.0000 0.40300  0.17400  0.46170  Biso   1.000  H
  H120     1.0000 0.35260  0.27030  0.49600  Biso   1.000  H
  N61      1.0000 0.76222  0.70592  0.04625  Biso   1.000  N
  N62      1.0000 0.81366  0.65438  0.99984  Biso   1.000  N
  N63      1.0000 0.85792  0.70759  0.99537  Biso   1.000  N
  C136     1.0000 0.73618  0.77827  0.05860  Biso   1.000  C
  H121     1.0000 0.75760  0.78950  0.04110  Biso   1.000  H
  C137     1.0000 0.70670  0.80450  0.07710  Biso   1.000  C
  H122     1.0000 0.70790  0.83400  0.07260  Biso   1.000  H
  C138     1.0000 0.67580  0.78750  0.10230  Biso   1.000  C
  H123     1.0000 0.65550  0.80540  0.11480  Biso   1.000  H
  C139     1.0000 0.67390  0.74430  0.10960  Biso   1.000  C
  H124     1.0000 0.65280  0.73300  0.12730  Biso   1.000  H
  C140     1.0000 0.70325  0.71800  0.09070  Biso   1.000  C
  H125     1.0000 0.70200  0.68840  0.09480  Biso   1.000  H
  C141     1.0000 0.73396  0.73540  0.06601  Biso   1.000  C
  N64      1.0000 0.79500  0.72275  0.03131  Biso   1.000  N
  C142     1.0000 0.82041  0.69431  0.01009  Biso   1.000  C
  C143     1.0000 0.84850  0.64175  0.97839  Biso   1.000  C
  H126     1.0000 0.85280  0.61440  0.96730  Biso   1.000  H
  C144     1.0000 0.87637  0.67438  0.97516  Biso   1.000  C
  H127     1.0000 0.90300  0.67400  0.96170  Biso   1.000  H
  H128     1.0000 0.85260  0.77030  0.99600  Biso   1.000  H
  N65      1.0000 0.95375  0.73778  0.70592  Biso   1.000  N
  N66      1.0000 0.00016  0.68634  0.65438  Biso   1.000  N
  N67      1.0000 0.00463  0.64208  0.70759  Biso   1.000  N
  C145     1.0000 0.94140  0.76382  0.77827  Biso   1.000  C
  H129     1.0000 0.95890  0.74240  0.78950  Biso   1.000  H
  C146     1.0000 0.92290  0.79330  0.80450  Biso   1.000  C
  H130     1.0000 0.92740  0.79210  0.83400  Biso   1.000  H
  C147     1.0000 0.89770  0.82420  0.78750  Biso   1.000  C
  H131     1.0000 0.88520  0.84450  0.80540  Biso   1.000  H
  C148     1.0000 0.89040  0.82610  0.74430  Biso   1.000  C
  H132     1.0000 0.87270  0.84720  0.73300  Biso   1.000  H
  C149     1.0000 0.90930  0.79675  0.71800  Biso   1.000  C
  H133     1.0000 0.90520  0.79800  0.68840  Biso   1.000  H
  C150     1.0000 0.93399  0.76604  0.73540  Biso   1.000  C
  N68      1.0000 0.96869  0.70500  0.72275  Biso   1.000  N
  C151     1.0000 0.98991  0.67959  0.69431  Biso   1.000  C
  C152     1.0000 0.02161  0.65150  0.64175  Biso   1.000  C
  H134     1.0000 0.03270  0.64720  0.61440  Biso   1.000  H
  C153     1.0000 0.02484  0.62363  0.67438  Biso   1.000  C
  H135     1.0000 0.03830  0.59700  0.67400  Biso   1.000  H
  H136     1.0000 0.00400  0.64740  0.77030  Biso   1.000  H
  N69      1.0000 0.45375  0.23778  0.20592  Biso   1.000  N
  N70      1.0000 0.50016  0.18634  0.15438  Biso   1.000  N
  N71      1.0000 0.50463  0.14208  0.20759  Biso   1.000  N
  C154     1.0000 0.44140  0.26382  0.27827  Biso   1.000  C
  H137     1.0000 0.45890  0.24240  0.28950  Biso   1.000  H
  C155     1.0000 0.42290  0.29330  0.30450  Biso   1.000  C
  H138     1.0000 0.42740  0.29210  0.33400  Biso   1.000  H
  C156     1.0000 0.39770  0.32420  0.28750  Biso   1.000  C
  H139     1.0000 0.38520  0.34450  0.30540  Biso   1.000  H
  C157     1.0000 0.39040  0.32610  0.24430  Biso   1.000  C
  H140     1.0000 0.37270  0.34720  0.23300  Biso   1.000  H
  C158     1.0000 0.40930  0.29675  0.21800  Biso   1.000  C
  H141     1.0000 0.40520  0.29800  0.18840  Biso   1.000  H
  C159     1.0000 0.43399  0.26604  0.23540  Biso   1.000  C
  N72      1.0000 0.46869  0.20500  0.22275  Biso   1.000  N
  C160     1.0000 0.48991  0.17959  0.19431  Biso   1.000  C
  C161     1.0000 0.52161  0.15150  0.14175  Biso   1.000  C
  H142     1.0000 0.53270  0.14720  0.11440  Biso   1.000  H
  C162     1.0000 0.52484  0.12363  0.17438  Biso   1.000  C
  H143     1.0000 0.53830  0.09700  0.17400  Biso   1.000  H
  H144     1.0000 0.50400  0.14740  0.27030  Biso   1.000  H
  N73      1.0000 0.04625  0.23778  0.79408  Biso   1.000  N
  N74      1.0000 0.99984  0.18634  0.84562  Biso   1.000  N
  N75      1.0000 0.99537  0.14208  0.79241  Biso   1.000  N
  C163     1.0000 0.05860  0.26382  0.72173  Biso   1.000  C
  H145     1.0000 0.04110  0.24240  0.71050  Biso   1.000  H
  C164     1.0000 0.07710  0.29330  0.69550  Biso   1.000  C
  H146     1.0000 0.07260  0.29210  0.66600  Biso   1.000  H
  C165     1.0000 0.10230  0.32420  0.71250  Biso   1.000  C
  H147     1.0000 0.11480  0.34450  0.69460  Biso   1.000  H
  C166     1.0000 0.10960  0.32610  0.75570  Biso   1.000  C
  H148     1.0000 0.12730  0.34720  0.76700  Biso   1.000  H
  C167     1.0000 0.09070  0.29675  0.78200  Biso   1.000  C
  H149     1.0000 0.09480  0.29800  0.81160  Biso   1.000  H
  C168     1.0000 0.06601  0.26604  0.76460  Biso   1.000  C
  N76      1.0000 0.03131  0.20500  0.77725  Biso   1.000  N
  C169     1.0000 0.01009  0.17959  0.80569  Biso   1.000  C
  C170     1.0000 0.97839  0.15150  0.85825  Biso   1.000  C
  H150     1.0000 0.96730  0.14720  0.88560  Biso   1.000  H
  C171     1.0000 0.97516  0.12363  0.82562  Biso   1.000  C
  H151     1.0000 0.96170  0.09700  0.82600  Biso   1.000  H
  H152     1.0000 0.99600  0.14740  0.72970  Biso   1.000  H
  N77      1.0000 0.54625  0.73778  0.29408  Biso   1.000  N
  N78      1.0000 0.49984  0.68634  0.34562  Biso   1.000  N
  N79      1.0000 0.49537  0.64208  0.29241  Biso   1.000  N
  C172     1.0000 0.55860  0.76382  0.22173  Biso   1.000  C
  H153     1.0000 0.54110  0.74240  0.21050  Biso   1.000  H
  C173     1.0000 0.57710  0.79330  0.19550  Biso   1.000  C
  H154     1.0000 0.57260  0.79210  0.16600  Biso   1.000  H
  C174     1.0000 0.60230  0.82420  0.21250  Biso   1.000  C
  H155     1.0000 0.61480  0.84450  0.19460  Biso   1.000  H
  C175     1.0000 0.60960  0.82610  0.25570  Biso   1.000  C
  H156     1.0000 0.62730  0.84720  0.26700  Biso   1.000  H
  C176     1.0000 0.59070  0.79675  0.28200  Biso   1.000  C
  H157     1.0000 0.59480  0.79800  0.31160  Biso   1.000  H
  C177     1.0000 0.56601  0.76604  0.26460  Biso   1.000  C
  N80      1.0000 0.53131  0.70500  0.27725  Biso   1.000  N
  C178     1.0000 0.51009  0.67959  0.30569  Biso   1.000  C
  C179     1.0000 0.47839  0.65150  0.35825  Biso   1.000  C
  H158     1.0000 0.46730  0.64720  0.38560  Biso   1.000  H
  C180     1.0000 0.47516  0.62363  0.32562  Biso   1.000  C
  H159     1.0000 0.46170  0.59700  0.32600  Biso   1.000  H
  H160     1.0000 0.49600  0.64740  0.22970  Biso   1.000  H
  N81      1.0000 0.45375  0.76222  0.29408  Biso   1.000  N
  N82      1.0000 0.50016  0.81366  0.34562  Biso   1.000  N
  N83      1.0000 0.50463  0.85792  0.29241  Biso   1.000  N
  C181     1.0000 0.44140  0.73618  0.22173  Biso   1.000  C
  H161     1.0000 0.45890  0.75760  0.21050  Biso   1.000  H
  C182     1.0000 0.42290  0.70670  0.19550  Biso   1.000  C
  H162     1.0000 0.42740  0.70790  0.16600  Biso   1.000  H
  C183     1.0000 0.39770  0.67580  0.21250  Biso   1.000  C
  H163     1.0000 0.38520  0.65550  0.19460  Biso   1.000  H
  C184     1.0000 0.39040  0.67390  0.25570  Biso   1.000  C
  H164     1.0000 0.37270  0.65280  0.26700  Biso   1.000  H
  C185     1.0000 0.40930  0.70325  0.28200  Biso   1.000  C
  H165     1.0000 0.40520  0.70200  0.31160  Biso   1.000  H
  C186     1.0000 0.43399  0.73396  0.26460  Biso   1.000  C
  N84      1.0000 0.46869  0.79500  0.27725  Biso   1.000  N
  C187     1.0000 0.48991  0.82041  0.30569  Biso   1.000  C
  C188     1.0000 0.52161  0.84850  0.35825  Biso   1.000  C
  H166     1.0000 0.53270  0.85280  0.38560  Biso   1.000  H
  C189     1.0000 0.52484  0.87637  0.32562  Biso   1.000  C
  H167     1.0000 0.53830  0.90300  0.32600  Biso   1.000  H
  H168     1.0000 0.50400  0.85260  0.22970  Biso   1.000  H
  N85      1.0000 0.95375  0.26222  0.79408  Biso   1.000  N
  N86      1.0000 0.00016  0.31366  0.84562  Biso   1.000  N
  N87      1.0000 0.00463  0.35792  0.79241  Biso   1.000  N
  C190     1.0000 0.94140  0.23618  0.72173  Biso   1.000  C
  H169     1.0000 0.95890  0.25760  0.71050  Biso   1.000  H
  C191     1.0000 0.92290  0.20670  0.69550  Biso   1.000  C
  H170     1.0000 0.92740  0.20790  0.66600  Biso   1.000  H
  C192     1.0000 0.89770  0.17580  0.71250  Biso   1.000  C
  H171     1.0000 0.88520  0.15550  0.69460  Biso   1.000  H
  C193     1.0000 0.89040  0.17390  0.75570  Biso   1.000  C
  H172     1.0000 0.87270  0.15280  0.76700  Biso   1.000  H
  C194     1.0000 0.90930  0.20325  0.78200  Biso   1.000  C
  H173     1.0000 0.90520  0.20200  0.81160  Biso   1.000  H
  C195     1.0000 0.93399  0.23396  0.76460  Biso   1.000  C
  N88      1.0000 0.96869  0.29500  0.77725  Biso   1.000  N
  C196     1.0000 0.98991  0.32041  0.80569  Biso   1.000  C
  C197     1.0000 0.02161  0.34850  0.85825  Biso   1.000  C
  H174     1.0000 0.03270  0.35280  0.88560  Biso   1.000  H
  C198     1.0000 0.02484  0.37637  0.82562  Biso   1.000  C
  H175     1.0000 0.03830  0.40300  0.82600  Biso   1.000  H
  H176     1.0000 0.00400  0.35260  0.72970  Biso   1.000  H
  N89      1.0000 0.54625  0.26222  0.20592  Biso   1.000  N
  N90      1.0000 0.49984  0.31366  0.15438  Biso   1.000  N
  N91      1.0000 0.49537  0.35792  0.20759  Biso   1.000  N
  C199     1.0000 0.55860  0.23618  0.27827  Biso   1.000  C
  H177     1.0000 0.54110  0.25760  0.28950  Biso   1.000  H
  C200     1.0000 0.57710  0.20670  0.30450  Biso   1.000  C
  H178     1.0000 0.57260  0.20790  0.33400  Biso   1.000  H
  C201     1.0000 0.60230  0.17580  0.28750  Biso   1.000  C
  H179     1.0000 0.61480  0.15550  0.30540  Biso   1.000  H
  C202     1.0000 0.60960  0.17390  0.24430  Biso   1.000  C
  H180     1.0000 0.62730  0.15280  0.23300  Biso   1.000  H
  C203     1.0000 0.59070  0.20325  0.21800  Biso   1.000  C
  H181     1.0000 0.59480  0.20200  0.18840  Biso   1.000  H
  C204     1.0000 0.56601  0.23396  0.23540  Biso   1.000  C
  N92      1.0000 0.53131  0.29500  0.22275  Biso   1.000  N
  C205     1.0000 0.51009  0.32041  0.19431  Biso   1.000  C
  C206     1.0000 0.47839  0.34850  0.14175  Biso   1.000  C
  H182     1.0000 0.46730  0.35280  0.11440  Biso   1.000  H
  C207     1.0000 0.47516  0.37637  0.17438  Biso   1.000  C
  H183     1.0000 0.46170  0.40300  0.17400  Biso   1.000  H
  H184     1.0000 0.49600  0.35260  0.27030  Biso   1.000  H
  N93      1.0000 0.04625  0.76222  0.70592  Biso   1.000  N
  N94      1.0000 0.99984  0.81366  0.65438  Biso   1.000  N
  N95      1.0000 0.99537  0.85792  0.70759  Biso   1.000  N
  C208     1.0000 0.05860  0.73618  0.77827  Biso   1.000  C
  H185     1.0000 0.04110  0.75760  0.78950  Biso   1.000  H
  C209     1.0000 0.07710  0.70670  0.80450  Biso   1.000  C
  H186     1.0000 0.07260  0.70790  0.83400  Biso   1.000  H
  C210     1.0000 0.10230  0.67580  0.78750  Biso   1.000  C
  H187     1.0000 0.11480  0.65550  0.80540  Biso   1.000  H
  C211     1.0000 0.10960  0.67390  0.74430  Biso   1.000  C
  H188     1.0000 0.12730  0.65280  0.73300  Biso   1.000  H
  C212     1.0000 0.09070  0.70325  0.71800  Biso   1.000  C
  H189     1.0000 0.09480  0.70200  0.68840  Biso   1.000  H
  C213     1.0000 0.06601  0.73396  0.73540  Biso   1.000  C
  N96      1.0000 0.03131  0.79500  0.72275  Biso   1.000  N
  C214     1.0000 0.01009  0.82041  0.69431  Biso   1.000  C
  C215     1.0000 0.97839  0.84850  0.64175  Biso   1.000  C
  H190     1.0000 0.96730  0.85280  0.61440  Biso   1.000  H
  C216     1.0000 0.97516  0.87637  0.67438  Biso   1.000  C
  H191     1.0000 0.96170  0.90300  0.67400  Biso   1.000  H
  H192     1.0000 0.99600  0.85260  0.77030  Biso   1.000  H
  N97      1.0000 0.70375  0.95592  0.51222  Biso   1.000  N
  N98      1.0000 0.75016  0.90438  0.56366  Biso   1.000  N
  N99      1.0000 0.75463  0.95759  0.60792  Biso   1.000  N
  C217     1.0000 0.69140  0.02827  0.48618  Biso   1.000  C
  H193     1.0000 0.70890  0.03950  0.50760  Biso   1.000  H
  C218     1.0000 0.67290  0.05450  0.45670  Biso   1.000  C
  H194     1.0000 0.67740  0.08400  0.45790  Biso   1.000  H
  C219     1.0000 0.64770  0.03750  0.42580  Biso   1.000  C
  H195     1.0000 0.63520  0.05540  0.40550  Biso   1.000  H
  C220     1.0000 0.64040  0.99430  0.42390  Biso   1.000  C
  H196     1.0000 0.62270  0.98300  0.40280  Biso   1.000  H
  C221     1.0000 0.65930  0.96800  0.45325  Biso   1.000  C
  H197     1.0000 0.65520  0.93840  0.45200  Biso   1.000  H
  C222     1.0000 0.68399  0.98540  0.48396  Biso   1.000  C
  N100     1.0000 0.71869  0.97275  0.54500  Biso   1.000  N
  C223     1.0000 0.73991  0.94431  0.57041  Biso   1.000  C
  C224     1.0000 0.77161  0.89175  0.59850  Biso   1.000  C
  H198     1.0000 0.78270  0.86440  0.60280  Biso   1.000  H
  C225     1.0000 0.77484  0.92438  0.62637  Biso   1.000  C
  H199     1.0000 0.78830  0.92400  0.65300  Biso   1.000  H
  H200     1.0000 0.75400  0.02030  0.60260  Biso   1.000  H
  N101     1.0000 0.20375  0.45592  0.01222  Biso   1.000  N
  N102     1.0000 0.25016  0.40438  0.06366  Biso   1.000  N
  N103     1.0000 0.25463  0.45759  0.10792  Biso   1.000  N
  C226     1.0000 0.19140  0.52827  0.98618  Biso   1.000  C
  H201     1.0000 0.20890  0.53950  0.00760  Biso   1.000  H
  C227     1.0000 0.17290  0.55450  0.95670  Biso   1.000  C
  H202     1.0000 0.17740  0.58400  0.95790  Biso   1.000  H
  C228     1.0000 0.14770  0.53750  0.92580  Biso   1.000  C
  H203     1.0000 0.13520  0.55540  0.90550  Biso   1.000  H
  C229     1.0000 0.14040  0.49430  0.92390  Biso   1.000  C
  H204     1.0000 0.12270  0.48300  0.90280  Biso   1.000  H
  C230     1.0000 0.15930  0.46800  0.95325  Biso   1.000  C
  H205     1.0000 0.15520  0.43840  0.95200  Biso   1.000  H
  C231     1.0000 0.18399  0.48540  0.98396  Biso   1.000  C
  N104     1.0000 0.21869  0.47275  0.04500  Biso   1.000  N
  C232     1.0000 0.23991  0.44431  0.07041  Biso   1.000  C
  C233     1.0000 0.27161  0.39175  0.09850  Biso   1.000  C
  H206     1.0000 0.28270  0.36440  0.10280  Biso   1.000  H
  C234     1.0000 0.27484  0.42438  0.12637  Biso   1.000  C
  H207     1.0000 0.28830  0.42400  0.15300  Biso   1.000  H
  H208     1.0000 0.25400  0.52030  0.10260  Biso   1.000  H
  N105     1.0000 0.79625  0.04408  0.01222  Biso   1.000  N
  N106     1.0000 0.74984  0.09562  0.06366  Biso   1.000  N
  N107     1.0000 0.74537  0.04241  0.10792  Biso   1.000  N
  C235     1.0000 0.80860  0.97173  0.98618  Biso   1.000  C
  H209     1.0000 0.79110  0.96050  0.00760  Biso   1.000  H
  C236     1.0000 0.82710  0.94550  0.95670  Biso   1.000  C
  H210     1.0000 0.82260  0.91600  0.95790  Biso   1.000  H
  C237     1.0000 0.85230  0.96250  0.92580  Biso   1.000  C
  H211     1.0000 0.86480  0.94460  0.90550  Biso   1.000  H
  C238     1.0000 0.85960  0.00570  0.92390  Biso   1.000  C
  H212     1.0000 0.87730  0.01700  0.90280  Biso   1.000  H
  C239     1.0000 0.84070  0.03200  0.95325  Biso   1.000  C
  H213     1.0000 0.84480  0.06160  0.95200  Biso   1.000  H
  C240     1.0000 0.81601  0.01460  0.98396  Biso   1.000  C
  N108     1.0000 0.78131  0.02725  0.04500  Biso   1.000  N
  C241     1.0000 0.76009  0.05569  0.07041  Biso   1.000  C
  C242     1.0000 0.72839  0.10825  0.09850  Biso   1.000  C
  H214     1.0000 0.71730  0.13560  0.10280  Biso   1.000  H
  C243     1.0000 0.72516  0.07562  0.12637  Biso   1.000  C
  H215     1.0000 0.71170  0.07600  0.15300  Biso   1.000  H
  H216     1.0000 0.74600  0.97970  0.10260  Biso   1.000  H
  N109     1.0000 0.29625  0.54408  0.51222  Biso   1.000  N
  N110     1.0000 0.24984  0.59562  0.56366  Biso   1.000  N
  N111     1.0000 0.24537  0.54241  0.60792  Biso   1.000  N
  C244     1.0000 0.30860  0.47173  0.48618  Biso   1.000  C
  H217     1.0000 0.29110  0.46050  0.50760  Biso   1.000  H
  C245     1.0000 0.32710  0.44550  0.45670  Biso   1.000  C
  H218     1.0000 0.32260  0.41600  0.45790  Biso   1.000  H
  C246     1.0000 0.35230  0.46250  0.42580  Biso   1.000  C
  H219     1.0000 0.36480  0.44460  0.40550  Biso   1.000  H
  C247     1.0000 0.35960  0.50570  0.42390  Biso   1.000  C
  H220     1.0000 0.37730  0.51700  0.40280  Biso   1.000  H
  C248     1.0000 0.34070  0.53200  0.45325  Biso   1.000  C
  H221     1.0000 0.34480  0.56160  0.45200  Biso   1.000  H
  C249     1.0000 0.31601  0.51460  0.48396  Biso   1.000  C
  N112     1.0000 0.28131  0.52725  0.54500  Biso   1.000  N
  C250     1.0000 0.26009  0.55569  0.57041  Biso   1.000  C
  C251     1.0000 0.22839  0.60825  0.59850  Biso   1.000  C
  H222     1.0000 0.21730  0.63560  0.60280  Biso   1.000  H
  C252     1.0000 0.22516  0.57562  0.62637  Biso   1.000  C
  H223     1.0000 0.21170  0.57600  0.65300  Biso   1.000  H
  H224     1.0000 0.24600  0.47970  0.60260  Biso   1.000  H
  N113     1.0000 0.20375  0.54408  0.48778  Biso   1.000  N
  N114     1.0000 0.25016  0.59562  0.43634  Biso   1.000  N
  N115     1.0000 0.25463  0.54241  0.39208  Biso   1.000  N
  C253     1.0000 0.19140  0.47173  0.51382  Biso   1.000  C
  H225     1.0000 0.20890  0.46050  0.49240  Biso   1.000  H
  C254     1.0000 0.17290  0.44550  0.54330  Biso   1.000  C
  H226     1.0000 0.17740  0.41600  0.54210  Biso   1.000  H
  C255     1.0000 0.14770  0.46250  0.57420  Biso   1.000  C
  H227     1.0000 0.13520  0.44460  0.59450  Biso   1.000  H
  C256     1.0000 0.14040  0.50570  0.57610  Biso   1.000  C
  H228     1.0000 0.12270  0.51700  0.59720  Biso   1.000  H
  C257     1.0000 0.15930  0.53200  0.54675  Biso   1.000  C
  H229     1.0000 0.15520  0.56160  0.54800  Biso   1.000  H
  C258     1.0000 0.18399  0.51460  0.51604  Biso   1.000  C
  N116     1.0000 0.21869  0.52725  0.45500  Biso   1.000  N
  C259     1.0000 0.23991  0.55569  0.42959  Biso   1.000  C
  C260     1.0000 0.27161  0.60825  0.40150  Biso   1.000  C
  H230     1.0000 0.28270  0.63560  0.39720  Biso   1.000  H
  C261     1.0000 0.27484  0.57562  0.37363  Biso   1.000  C
  H231     1.0000 0.28830  0.57600  0.34700  Biso   1.000  H
  H232     1.0000 0.25400  0.47970  0.39740  Biso   1.000  H
  N117     1.0000 0.70375  0.04408  0.98778  Biso   1.000  N
  N118     1.0000 0.75016  0.09562  0.93634  Biso   1.000  N
  N119     1.0000 0.75463  0.04241  0.89208  Biso   1.000  N
  C262     1.0000 0.69140  0.97173  0.01382  Biso   1.000  C
  H233     1.0000 0.70890  0.96050  0.99240  Biso   1.000  H
  C263     1.0000 0.67290  0.94550  0.04330  Biso   1.000  C
  H234     1.0000 0.67740  0.91600  0.04210  Biso   1.000  H
  C264     1.0000 0.64770  0.96250  0.07420  Biso   1.000  C
  H235     1.0000 0.63520  0.94460  0.09450  Biso   1.000  H
  C265     1.0000 0.64040  0.00570  0.07610  Biso   1.000  C
  H236     1.0000 0.62270  0.01700  0.09720  Biso   1.000  H
  C266     1.0000 0.65930  0.03200  0.04675  Biso   1.000  C
  H237     1.0000 0.65520  0.06160  0.04800  Biso   1.000  H
  C267     1.0000 0.68399  0.01460  0.01604  Biso   1.000  C
  N120     1.0000 0.71869  0.02725  0.95500  Biso   1.000  N
  C268     1.0000 0.73991  0.05569  0.92959  Biso   1.000  C
  C269     1.0000 0.77161  0.10825  0.90150  Biso   1.000  C
  H238     1.0000 0.78270  0.13560  0.89720  Biso   1.000  H
  C270     1.0000 0.77484  0.07562  0.87363  Biso   1.000  C
  H239     1.0000 0.78830  0.07600  0.84700  Biso   1.000  H
  H240     1.0000 0.75400  0.97970  0.89740  Biso   1.000  H
  N121     1.0000 0.29625  0.45592  0.98778  Biso   1.000  N
  N122     1.0000 0.24984  0.40438  0.93634  Biso   1.000  N
  N123     1.0000 0.24537  0.45759  0.89208  Biso   1.000  N
  C271     1.0000 0.30860  0.52827  0.01382  Biso   1.000  C
  H241     1.0000 0.29110  0.53950  0.99240  Biso   1.000  H
  C272     1.0000 0.32710  0.55450  0.04330  Biso   1.000  C
  H242     1.0000 0.32260  0.58400  0.04210  Biso   1.000  H
  C273     1.0000 0.35230  0.53750  0.07420  Biso   1.000  C
  H243     1.0000 0.36480  0.55540  0.09450  Biso   1.000  H
  C274     1.0000 0.35960  0.49430  0.07610  Biso   1.000  C
  H244     1.0000 0.37730  0.48300  0.09720  Biso   1.000  H
  C275     1.0000 0.34070  0.46800  0.04675  Biso   1.000  C
  H245     1.0000 0.34480  0.43840  0.04800  Biso   1.000  H
  C276     1.0000 0.31601  0.48540  0.01604  Biso   1.000  C
  N124     1.0000 0.28131  0.47275  0.95500  Biso   1.000  N
  C277     1.0000 0.26009  0.44431  0.92959  Biso   1.000  C
  C278     1.0000 0.22839  0.39175  0.90150  Biso   1.000  C
  H246     1.0000 0.21730  0.36440  0.89720  Biso   1.000  H
  C279     1.0000 0.22516  0.42438  0.87363  Biso   1.000  C
  H247     1.0000 0.21170  0.42400  0.84700  Biso   1.000  H
  H248     1.0000 0.24600  0.52030  0.89740  Biso   1.000  H
  N125     1.0000 0.79625  0.95592  0.48778  Biso   1.000  N
  N126     1.0000 0.74984  0.90438  0.43634  Biso   1.000  N
  N127     1.0000 0.74537  0.95759  0.39208  Biso   1.000  N
  C280     1.0000 0.80860  0.02827  0.51382  Biso   1.000  C
  H249     1.0000 0.79110  0.03950  0.49240  Biso   1.000  H
  C281     1.0000 0.82710  0.05450  0.54330  Biso   1.000  C
  H250     1.0000 0.82260  0.08400  0.54210  Biso   1.000  H
  C282     1.0000 0.85230  0.03750  0.57420  Biso   1.000  C
  H251     1.0000 0.86480  0.05540  0.59450  Biso   1.000  H
  C283     1.0000 0.85960  0.99430  0.57610  Biso   1.000  C
  H252     1.0000 0.87730  0.98300  0.59720  Biso   1.000  H
  C284     1.0000 0.84070  0.96800  0.54675  Biso   1.000  C
  H253     1.0000 0.84480  0.93840  0.54800  Biso   1.000  H
  C285     1.0000 0.81601  0.98540  0.51604  Biso   1.000  C
  N128     1.0000 0.78131  0.97275  0.45500  Biso   1.000  N
  C286     1.0000 0.76009  0.94431  0.42959  Biso   1.000  C
  C287     1.0000 0.72839  0.89175  0.40150  Biso   1.000  C
  H254     1.0000 0.71730  0.86440  0.39720  Biso   1.000  H
  C288     1.0000 0.72516  0.92438  0.37363  Biso   1.000  C
  H255     1.0000 0.71170  0.92400  0.34700  Biso   1.000  H
  H256     1.0000 0.74600  0.02030  0.39740  Biso   1.000  H
  N129     1.0000 0.45592  0.98778  0.29625  Biso   1.000  N
  N130     1.0000 0.40438  0.93634  0.24984  Biso   1.000  N
  N131     1.0000 0.45759  0.89208  0.24537  Biso   1.000  N
  C289     1.0000 0.52827  0.01382  0.30860  Biso   1.000  C
  H257     1.0000 0.53950  0.99240  0.29110  Biso   1.000  H
  C290     1.0000 0.55450  0.04330  0.32710  Biso   1.000  C
  H258     1.0000 0.58400  0.04210  0.32260  Biso   1.000  H
  C291     1.0000 0.53750  0.07420  0.35230  Biso   1.000  C
  H259     1.0000 0.55540  0.09450  0.36480  Biso   1.000  H
  C292     1.0000 0.49430  0.07610  0.35960  Biso   1.000  C
  H260     1.0000 0.48300  0.09720  0.37730  Biso   1.000  H
  C293     1.0000 0.46800  0.04675  0.34070  Biso   1.000  C
  H261     1.0000 0.43840  0.04800  0.34480  Biso   1.000  H
  C294     1.0000 0.48540  0.01604  0.31601  Biso   1.000  C
  N132     1.0000 0.47275  0.95500  0.28131  Biso   1.000  N
  C295     1.0000 0.44431  0.92959  0.26009  Biso   1.000  C
  C296     1.0000 0.39175  0.90150  0.22839  Biso   1.000  C
  H262     1.0000 0.36440  0.89720  0.21730  Biso   1.000  H
  C297     1.0000 0.42438  0.87363  0.22516  Biso   1.000  C
  H263     1.0000 0.42400  0.84700  0.21170  Biso   1.000  H
  H264     1.0000 0.52030  0.89740  0.24600  Biso   1.000  H
  N133     1.0000 0.95592  0.48778  0.79625  Biso   1.000  N
  N134     1.0000 0.90438  0.43634  0.74984  Biso   1.000  N
  N135     1.0000 0.95759  0.39208  0.74537  Biso   1.000  N
  C298     1.0000 0.02827  0.51382  0.80860  Biso   1.000  C
  H265     1.0000 0.03950  0.49240  0.79110  Biso   1.000  H
  C299     1.0000 0.05450  0.54330  0.82710  Biso   1.000  C
  H266     1.0000 0.08400  0.54210  0.82260  Biso   1.000  H
  C300     1.0000 0.03750  0.57420  0.85230  Biso   1.000  C
  H267     1.0000 0.05540  0.59450  0.86480  Biso   1.000  H
  C301     1.0000 0.99430  0.57610  0.85960  Biso   1.000  C
  H268     1.0000 0.98300  0.59720  0.87730  Biso   1.000  H
  C302     1.0000 0.96800  0.54675  0.84070  Biso   1.000  C
  H269     1.0000 0.93840  0.54800  0.84480  Biso   1.000  H
  C303     1.0000 0.98540  0.51604  0.81601  Biso   1.000  C
  N136     1.0000 0.97275  0.45500  0.78131  Biso   1.000  N
  C304     1.0000 0.94431  0.42959  0.76009  Biso   1.000  C
  C305     1.0000 0.89175  0.40150  0.72839  Biso   1.000  C
  H270     1.0000 0.86440  0.39720  0.71730  Biso   1.000  H
  C306     1.0000 0.92438  0.37363  0.72516  Biso   1.000  C
  H271     1.0000 0.92400  0.34700  0.71170  Biso   1.000  H
  H272     1.0000 0.02030  0.39740  0.74600  Biso   1.000  H
  N137     1.0000 0.54408  0.48778  0.20375  Biso   1.000  N
  N138     1.0000 0.59562  0.43634  0.25016  Biso   1.000  N
  N139     1.0000 0.54241  0.39208  0.25463  Biso   1.000  N
  C307     1.0000 0.47173  0.51382  0.19140  Biso   1.000  C
  H273     1.0000 0.46050  0.49240  0.20890  Biso   1.000  H
  C308     1.0000 0.44550  0.54330  0.17290  Biso   1.000  C
  H274     1.0000 0.41600  0.54210  0.17740  Biso   1.000  H
  C309     1.0000 0.46250  0.57420  0.14770  Biso   1.000  C
  H275     1.0000 0.44460  0.59450  0.13520  Biso   1.000  H
  C310     1.0000 0.50570  0.57610  0.14040  Biso   1.000  C
  H276     1.0000 0.51700  0.59720  0.12270  Biso   1.000  H
  C311     1.0000 0.53200  0.54675  0.15930  Biso   1.000  C
  H277     1.0000 0.56160  0.54800  0.15520  Biso   1.000  H
  C312     1.0000 0.51460  0.51604  0.18399  Biso   1.000  C
  N140     1.0000 0.52725  0.45500  0.21869  Biso   1.000  N
  C313     1.0000 0.55569  0.42959  0.23991  Biso   1.000  C
  C314     1.0000 0.60825  0.40150  0.27161  Biso   1.000  C
  H278     1.0000 0.63560  0.39720  0.28270  Biso   1.000  H
  C315     1.0000 0.57562  0.37363  0.27484  Biso   1.000  C
  H279     1.0000 0.57600  0.34700  0.28830  Biso   1.000  H
  H280     1.0000 0.47970  0.39740  0.25400  Biso   1.000  H
  N141     1.0000 0.04408  0.98778  0.70375  Biso   1.000  N
  N142     1.0000 0.09562  0.93634  0.75016  Biso   1.000  N
  N143     1.0000 0.04241  0.89208  0.75463  Biso   1.000  N
  C316     1.0000 0.97173  0.01382  0.69140  Biso   1.000  C
  H281     1.0000 0.96050  0.99240  0.70890  Biso   1.000  H
  C317     1.0000 0.94550  0.04330  0.67290  Biso   1.000  C
  H282     1.0000 0.91600  0.04210  0.67740  Biso   1.000  H
  C318     1.0000 0.96250  0.07420  0.64770  Biso   1.000  C
  H283     1.0000 0.94460  0.09450  0.63520  Biso   1.000  H
  C319     1.0000 0.00570  0.07610  0.64040  Biso   1.000  C
  H284     1.0000 0.01700  0.09720  0.62270  Biso   1.000  H
  C320     1.0000 0.03200  0.04675  0.65930  Biso   1.000  C
  H285     1.0000 0.06160  0.04800  0.65520  Biso   1.000  H
  C321     1.0000 0.01460  0.01604  0.68399  Biso   1.000  C
  N144     1.0000 0.02725  0.95500  0.71869  Biso   1.000  N
  C322     1.0000 0.05569  0.92959  0.73991  Biso   1.000  C
  C323     1.0000 0.10825  0.90150  0.77161  Biso   1.000  C
  H286     1.0000 0.13560  0.89720  0.78270  Biso   1.000  H
  C324     1.0000 0.07562  0.87363  0.77484  Biso   1.000  C
  H287     1.0000 0.07600  0.84700  0.78830  Biso   1.000  H
  H288     1.0000 0.97970  0.89740  0.75400  Biso   1.000  H
  N145     1.0000 0.04408  0.01222  0.79625  Biso   1.000  N
  N146     1.0000 0.09562  0.06366  0.74984  Biso   1.000  N
  N147     1.0000 0.04241  0.10792  0.74537  Biso   1.000  N
  C325     1.0000 0.97173  0.98618  0.80860  Biso   1.000  C
  H289     1.0000 0.96050  0.00760  0.79110  Biso   1.000  H
  C326     1.0000 0.94550  0.95670  0.82710  Biso   1.000  C
  H290     1.0000 0.91600  0.95790  0.82260  Biso   1.000  H
  C327     1.0000 0.96250  0.92580  0.85230  Biso   1.000  C
  H291     1.0000 0.94460  0.90550  0.86480  Biso   1.000  H
  C328     1.0000 0.00570  0.92390  0.85960  Biso   1.000  C
  H292     1.0000 0.01700  0.90280  0.87730  Biso   1.000  H
  C329     1.0000 0.03200  0.95325  0.84070  Biso   1.000  C
  H293     1.0000 0.06160  0.95200  0.84480  Biso   1.000  H
  C330     1.0000 0.01460  0.98396  0.81601  Biso   1.000  C
  N148     1.0000 0.02725  0.04500  0.78131  Biso   1.000  N
  C331     1.0000 0.05569  0.07041  0.76009  Biso   1.000  C
  C332     1.0000 0.10825  0.09850  0.72839  Biso   1.000  C
  H294     1.0000 0.13560  0.10280  0.71730  Biso   1.000  H
  C333     1.0000 0.07562  0.12637  0.72516  Biso   1.000  C
  H295     1.0000 0.07600  0.15300  0.71170  Biso   1.000  H
  H296     1.0000 0.97970  0.10260  0.74600  Biso   1.000  H
  N149     1.0000 0.54408  0.51222  0.29625  Biso   1.000  N
  N150     1.0000 0.59562  0.56366  0.24984  Biso   1.000  N
  N151     1.0000 0.54241  0.60792  0.24537  Biso   1.000  N
  C334     1.0000 0.47173  0.48618  0.30860  Biso   1.000  C
  H297     1.0000 0.46050  0.50760  0.29110  Biso   1.000  H
  C335     1.0000 0.44550  0.45670  0.32710  Biso   1.000  C
  H298     1.0000 0.41600  0.45790  0.32260  Biso   1.000  H
  C336     1.0000 0.46250  0.42580  0.35230  Biso   1.000  C
  H299     1.0000 0.44460  0.40550  0.36480  Biso   1.000  H
  C337     1.0000 0.50570  0.42390  0.35960  Biso   1.000  C
  H300     1.0000 0.51700  0.40280  0.37730  Biso   1.000  H
  C338     1.0000 0.53200  0.45325  0.34070  Biso   1.000  C
  H301     1.0000 0.56160  0.45200  0.34480  Biso   1.000  H
  C339     1.0000 0.51460  0.48396  0.31601  Biso   1.000  C
  N152     1.0000 0.52725  0.54500  0.28131  Biso   1.000  N
  C340     1.0000 0.55569  0.57041  0.26009  Biso   1.000  C
  C341     1.0000 0.60825  0.59850  0.22839  Biso   1.000  C
  H302     1.0000 0.63560  0.60280  0.21730  Biso   1.000  H
  C342     1.0000 0.57562  0.62637  0.22516  Biso   1.000  C
  H303     1.0000 0.57600  0.65300  0.21170  Biso   1.000  H
  H304     1.0000 0.47970  0.60260  0.24600  Biso   1.000  H
  N153     1.0000 0.95592  0.51222  0.70375  Biso   1.000  N
  N154     1.0000 0.90438  0.56366  0.75016  Biso   1.000  N
  N155     1.0000 0.95759  0.60792  0.75463  Biso   1.000  N
  C343     1.0000 0.02827  0.48618  0.69140  Biso   1.000  C
  H305     1.0000 0.03950  0.50760  0.70890  Biso   1.000  H
  C344     1.0000 0.05450  0.45670  0.67290  Biso   1.000  C
  H306     1.0000 0.08400  0.45790  0.67740  Biso   1.000  H
  C345     1.0000 0.03750  0.42580  0.64770  Biso   1.000  C
  H307     1.0000 0.05540  0.40550  0.63520  Biso   1.000  H
  C346     1.0000 0.99430  0.42390  0.64040  Biso   1.000  C
  H308     1.0000 0.98300  0.40280  0.62270  Biso   1.000  H
  C347     1.0000 0.96800  0.45325  0.65930  Biso   1.000  C
  H309     1.0000 0.93840  0.45200  0.65520  Biso   1.000  H
  C348     1.0000 0.98540  0.48396  0.68399  Biso   1.000  C
  N156     1.0000 0.97275  0.54500  0.71869  Biso   1.000  N
  C349     1.0000 0.94431  0.57041  0.73991  Biso   1.000  C
  C350     1.0000 0.89175  0.59850  0.77161  Biso   1.000  C
  H310     1.0000 0.86440  0.60280  0.78270  Biso   1.000  H
  C351     1.0000 0.92438  0.62637  0.77484  Biso   1.000  C
  H311     1.0000 0.92400  0.65300  0.78830  Biso   1.000  H
  H312     1.0000 0.02030  0.60260  0.75400  Biso   1.000  H
  N157     1.0000 0.45592  0.01222  0.20375  Biso   1.000  N
  N158     1.0000 0.40438  0.06366  0.25016  Biso   1.000  N
  N159     1.0000 0.45759  0.10792  0.25463  Biso   1.000  N
  C352     1.0000 0.52827  0.98618  0.19140  Biso   1.000  C
  H313     1.0000 0.53950  0.00760  0.20890  Biso   1.000  H
  C353     1.0000 0.55450  0.95670  0.17290  Biso   1.000  C
  H314     1.0000 0.58400  0.95790  0.17740  Biso   1.000  H
  C354     1.0000 0.53750  0.92580  0.14770  Biso   1.000  C
  H315     1.0000 0.55540  0.90550  0.13520  Biso   1.000  H
  C355     1.0000 0.49430  0.92390  0.14040  Biso   1.000  C
  H316     1.0000 0.48300  0.90280  0.12270  Biso   1.000  H
  C356     1.0000 0.46800  0.95325  0.15930  Biso   1.000  C
  H317     1.0000 0.43840  0.95200  0.15520  Biso   1.000  H
  C357     1.0000 0.48540  0.98396  0.18399  Biso   1.000  C
  N160     1.0000 0.47275  0.04500  0.21869  Biso   1.000  N
  C358     1.0000 0.44431  0.07041  0.23991  Biso   1.000  C
  C359     1.0000 0.39175  0.09850  0.27161  Biso   1.000  C
  H318     1.0000 0.36440  0.10280  0.28270  Biso   1.000  H
  C360     1.0000 0.42438  0.12637  0.27484  Biso   1.000  C
  H319     1.0000 0.42400  0.15300  0.28830  Biso   1.000  H
  H320     1.0000 0.52030  0.10260  0.25400  Biso   1.000  H
  N161     1.0000 0.48778  0.20375  0.54408  Biso   1.000  N
  N162     1.0000 0.43634  0.25016  0.59562  Biso   1.000  N
  N163     1.0000 0.39208  0.25463  0.54241  Biso   1.000  N
  C361     1.0000 0.51382  0.19140  0.47173  Biso   1.000  C
  H321     1.0000 0.49240  0.20890  0.46050  Biso   1.000  H
  C362     1.0000 0.54330  0.17290  0.44550  Biso   1.000  C
  H322     1.0000 0.54210  0.17740  0.41600  Biso   1.000  H
  C363     1.0000 0.57420  0.14770  0.46250  Biso   1.000  C
  H323     1.0000 0.59450  0.13520  0.44460  Biso   1.000  H
  C364     1.0000 0.57610  0.14040  0.50570  Biso   1.000  C
  H324     1.0000 0.59720  0.12270  0.51700  Biso   1.000  H
  C365     1.0000 0.54675  0.15930  0.53200  Biso   1.000  C
  H325     1.0000 0.54800  0.15520  0.56160  Biso   1.000  H
  C366     1.0000 0.51604  0.18399  0.51460  Biso   1.000  C
  N164     1.0000 0.45500  0.21869  0.52725  Biso   1.000  N
  C367     1.0000 0.42959  0.23991  0.55569  Biso   1.000  C
  C368     1.0000 0.40150  0.27161  0.60825  Biso   1.000  C
  H326     1.0000 0.39720  0.28270  0.63560  Biso   1.000  H
  C369     1.0000 0.37363  0.27484  0.57562  Biso   1.000  C
  H327     1.0000 0.34700  0.28830  0.57600  Biso   1.000  H
  H328     1.0000 0.39740  0.25400  0.47970  Biso   1.000  H
  N165     1.0000 0.98778  0.70375  0.04408  Biso   1.000  N
  N166     1.0000 0.93634  0.75016  0.09562  Biso   1.000  N
  N167     1.0000 0.89208  0.75463  0.04241  Biso   1.000  N
  C370     1.0000 0.01382  0.69140  0.97173  Biso   1.000  C
  H329     1.0000 0.99240  0.70890  0.96050  Biso   1.000  H
  C371     1.0000 0.04330  0.67290  0.94550  Biso   1.000  C
  H330     1.0000 0.04210  0.67740  0.91600  Biso   1.000  H
  C372     1.0000 0.07420  0.64770  0.96250  Biso   1.000  C
  H331     1.0000 0.09450  0.63520  0.94460  Biso   1.000  H
  C373     1.0000 0.07610  0.64040  0.00570  Biso   1.000  C
  H332     1.0000 0.09720  0.62270  0.01700  Biso   1.000  H
  C374     1.0000 0.04675  0.65930  0.03200  Biso   1.000  C
  H333     1.0000 0.04800  0.65520  0.06160  Biso   1.000  H
  C375     1.0000 0.01604  0.68399  0.01460  Biso   1.000  C
  N168     1.0000 0.95500  0.71869  0.02725  Biso   1.000  N
  C376     1.0000 0.92959  0.73991  0.05569  Biso   1.000  C
  C377     1.0000 0.90150  0.77161  0.10825  Biso   1.000  C
  H334     1.0000 0.89720  0.78270  0.13560  Biso   1.000  H
  C378     1.0000 0.87363  0.77484  0.07562  Biso   1.000  C
  H335     1.0000 0.84700  0.78830  0.07600  Biso   1.000  H
  H336     1.0000 0.89740  0.75400  0.97970  Biso   1.000  H
  N169     1.0000 0.98778  0.29625  0.45592  Biso   1.000  N
  N170     1.0000 0.93634  0.24984  0.40438  Biso   1.000  N
  N171     1.0000 0.89208  0.24537  0.45759  Biso   1.000  N
  C379     1.0000 0.01382  0.30860  0.52827  Biso   1.000  C
  H337     1.0000 0.99240  0.29110  0.53950  Biso   1.000  H
  C380     1.0000 0.04330  0.32710  0.55450  Biso   1.000  C
  H338     1.0000 0.04210  0.32260  0.58400  Biso   1.000  H
  C381     1.0000 0.07420  0.35230  0.53750  Biso   1.000  C
  H339     1.0000 0.09450  0.36480  0.55540  Biso   1.000  H
  C382     1.0000 0.07610  0.35960  0.49430  Biso   1.000  C
  H340     1.0000 0.09720  0.37730  0.48300  Biso   1.000  H
  C383     1.0000 0.04675  0.34070  0.46800  Biso   1.000  C
  H341     1.0000 0.04800  0.34480  0.43840  Biso   1.000  H
  C384     1.0000 0.01604  0.31601  0.48540  Biso   1.000  C
  N172     1.0000 0.95500  0.28131  0.47275  Biso   1.000  N
  C385     1.0000 0.92959  0.26009  0.44431  Biso   1.000  C
  C386     1.0000 0.90150  0.22839  0.39175  Biso   1.000  C
  H342     1.0000 0.89720  0.21730  0.36440  Biso   1.000  H
  C387     1.0000 0.87363  0.22516  0.42438  Biso   1.000  C
  H343     1.0000 0.84700  0.21170  0.42400  Biso   1.000  H
  H344     1.0000 0.89740  0.24600  0.52030  Biso   1.000  H
  N173     1.0000 0.48778  0.79625  0.95592  Biso   1.000  N
  N174     1.0000 0.43634  0.74984  0.90438  Biso   1.000  N
  N175     1.0000 0.39208  0.74537  0.95759  Biso   1.000  N
  C388     1.0000 0.51382  0.80860  0.02827  Biso   1.000  C
  H345     1.0000 0.49240  0.79110  0.03950  Biso   1.000  H
  C389     1.0000 0.54330  0.82710  0.05450  Biso   1.000  C
  H346     1.0000 0.54210  0.82260  0.08400  Biso   1.000  H
  C390     1.0000 0.57420  0.85230  0.03750  Biso   1.000  C
  H347     1.0000 0.59450  0.86480  0.05540  Biso   1.000  H
  C391     1.0000 0.57610  0.85960  0.99430  Biso   1.000  C
  H348     1.0000 0.59720  0.87730  0.98300  Biso   1.000  H
  C392     1.0000 0.54675  0.84070  0.96800  Biso   1.000  C
  H349     1.0000 0.54800  0.84480  0.93840  Biso   1.000  H
  C393     1.0000 0.51604  0.81601  0.98540  Biso   1.000  C
  N176     1.0000 0.45500  0.78131  0.97275  Biso   1.000  N
  C394     1.0000 0.42959  0.76009  0.94431  Biso   1.000  C
  C395     1.0000 0.40150  0.72839  0.89175  Biso   1.000  C
  H350     1.0000 0.39720  0.71730  0.86440  Biso   1.000  H
  C396     1.0000 0.37363  0.72516  0.92438  Biso   1.000  C
  H351     1.0000 0.34700  0.71170  0.92400  Biso   1.000  H
  H352     1.0000 0.39740  0.74600  0.02030  Biso   1.000  H
  N177     1.0000 0.51222  0.70375  0.95592  Biso   1.000  N
  N178     1.0000 0.56366  0.75016  0.90438  Biso   1.000  N
  N179     1.0000 0.60792  0.75463  0.95759  Biso   1.000  N
  C397     1.0000 0.48618  0.69140  0.02827  Biso   1.000  C
  H353     1.0000 0.50760  0.70890  0.03950  Biso   1.000  H
  C398     1.0000 0.45670  0.67290  0.05450  Biso   1.000  C
  H354     1.0000 0.45790  0.67740  0.08400  Biso   1.000  H
  C399     1.0000 0.42580  0.64770  0.03750  Biso   1.000  C
  H355     1.0000 0.40550  0.63520  0.05540  Biso   1.000  H
  C400     1.0000 0.42390  0.64040  0.99430  Biso   1.000  C
  H356     1.0000 0.40280  0.62270  0.98300  Biso   1.000  H
  C401     1.0000 0.45325  0.65930  0.96800  Biso   1.000  C
  H357     1.0000 0.45200  0.65520  0.93840  Biso   1.000  H
  C402     1.0000 0.48396  0.68399  0.98540  Biso   1.000  C
  N180     1.0000 0.54500  0.71869  0.97275  Biso   1.000  N
  C403     1.0000 0.57041  0.73991  0.94431  Biso   1.000  C
  C404     1.0000 0.59850  0.77161  0.89175  Biso   1.000  C
  H358     1.0000 0.60280  0.78270  0.86440  Biso   1.000  H
  C405     1.0000 0.62637  0.77484  0.92438  Biso   1.000  C
  H359     1.0000 0.65300  0.78830  0.92400  Biso   1.000  H
  H360     1.0000 0.60260  0.75400  0.02030  Biso   1.000  H
  N181     1.0000 0.01222  0.20375  0.45592  Biso   1.000  N
  N182     1.0000 0.06366  0.25016  0.40438  Biso   1.000  N
  N183     1.0000 0.10792  0.25463  0.45759  Biso   1.000  N
  C406     1.0000 0.98618  0.19140  0.52827  Biso   1.000  C
  H361     1.0000 0.00760  0.20890  0.53950  Biso   1.000  H
  C407     1.0000 0.95670  0.17290  0.55450  Biso   1.000  C
  H362     1.0000 0.95790  0.17740  0.58400  Biso   1.000  H
  C408     1.0000 0.92580  0.14770  0.53750  Biso   1.000  C
  H363     1.0000 0.90550  0.13520  0.55540  Biso   1.000  H
  C409     1.0000 0.92390  0.14040  0.49430  Biso   1.000  C
  H364     1.0000 0.90280  0.12270  0.48300  Biso   1.000  H
  C410     1.0000 0.95325  0.15930  0.46800  Biso   1.000  C
  H365     1.0000 0.95200  0.15520  0.43840  Biso   1.000  H
  C411     1.0000 0.98396  0.18399  0.48540  Biso   1.000  C
  N184     1.0000 0.04500  0.21869  0.47275  Biso   1.000  N
  C412     1.0000 0.07041  0.23991  0.44431  Biso   1.000  C
  C413     1.0000 0.09850  0.27161  0.39175  Biso   1.000  C
  H366     1.0000 0.10280  0.28270  0.36440  Biso   1.000  H
  C414     1.0000 0.12637  0.27484  0.42438  Biso   1.000  C
  H367     1.0000 0.15300  0.28830  0.42400  Biso   1.000  H
  H368     1.0000 0.10260  0.25400  0.52030  Biso   1.000  H
  N185     1.0000 0.01222  0.79625  0.04408  Biso   1.000  N
  N186     1.0000 0.06366  0.74984  0.09562  Biso   1.000  N
  N187     1.0000 0.10792  0.74537  0.04241  Biso   1.000  N
  C415     1.0000 0.98618  0.80860  0.97173  Biso   1.000  C
  H369     1.0000 0.00760  0.79110  0.96050  Biso   1.000  H
  C416     1.0000 0.95670  0.82710  0.94550  Biso   1.000  C
  H370     1.0000 0.95790  0.82260  0.91600  Biso   1.000  H
  C417     1.0000 0.92580  0.85230  0.96250  Biso   1.000  C
  H371     1.0000 0.90550  0.86480  0.94460  Biso   1.000  H
  C418     1.0000 0.92390  0.85960  0.00570  Biso   1.000  C
  H372     1.0000 0.90280  0.87730  0.01700  Biso   1.000  H
  C419     1.0000 0.95325  0.84070  0.03200  Biso   1.000  C
  H373     1.0000 0.95200  0.84480  0.06160  Biso   1.000  H
  C420     1.0000 0.98396  0.81601  0.01460  Biso   1.000  C
  N188     1.0000 0.04500  0.78131  0.02725  Biso   1.000  N
  C421     1.0000 0.07041  0.76009  0.05569  Biso   1.000  C
  C422     1.0000 0.09850  0.72839  0.10825  Biso   1.000  C
  H374     1.0000 0.10280  0.71730  0.13560  Biso   1.000  H
  C423     1.0000 0.12637  0.72516  0.07562  Biso   1.000  C
  H375     1.0000 0.15300  0.71170  0.07600  Biso   1.000  H
  H376     1.0000 0.10260  0.74600  0.97970  Biso   1.000  H
  N189     1.0000 0.51222  0.29625  0.54408  Biso   1.000  N
  N190     1.0000 0.56366  0.24984  0.59562  Biso   1.000  N
  N191     1.0000 0.60792  0.24537  0.54241  Biso   1.000  N
  C424     1.0000 0.48618  0.30860  0.47173  Biso   1.000  C
  H377     1.0000 0.50760  0.29110  0.46050  Biso   1.000  H
  C425     1.0000 0.45670  0.32710  0.44550  Biso   1.000  C
  H378     1.0000 0.45790  0.32260  0.41600  Biso   1.000  H
  C426     1.0000 0.42580  0.35230  0.46250  Biso   1.000  C
  H379     1.0000 0.40550  0.36480  0.44460  Biso   1.000  H
  C427     1.0000 0.42390  0.35960  0.50570  Biso   1.000  C
  H380     1.0000 0.40280  0.37730  0.51700  Biso   1.000  H
  C428     1.0000 0.45325  0.34070  0.53200  Biso   1.000  C
  H381     1.0000 0.45200  0.34480  0.56160  Biso   1.000  H
  C429     1.0000 0.48396  0.31601  0.51460  Biso   1.000  C
  N192     1.0000 0.54500  0.28131  0.52725  Biso   1.000  N
  C430     1.0000 0.57041  0.26009  0.55569  Biso   1.000  C
  C431     1.0000 0.59850  0.22839  0.60825  Biso   1.000  C
  H382     1.0000 0.60280  0.21730  0.63560  Biso   1.000  H
  C432     1.0000 0.62637  0.22516  0.57562  Biso   1.000  C
  H383     1.0000 0.65300  0.21170  0.57600  Biso   1.000  H
  H384     1.0000 0.60260  0.24600  0.47970  Biso   1.000  H
  N193     1.0000 0.29408  0.04625  0.26222  Biso   1.000  N
  N194     1.0000 0.34562  0.99984  0.31366  Biso   1.000  N
  N195     1.0000 0.29241  0.99537  0.35792  Biso   1.000  N
  C433     1.0000 0.22173  0.05860  0.23618  Biso   1.000  C
  H385     1.0000 0.21050  0.04110  0.25760  Biso   1.000  H
  C434     1.0000 0.19550  0.07710  0.20670  Biso   1.000  C
  H386     1.0000 0.16600  0.07260  0.20790  Biso   1.000  H
  C435     1.0000 0.21250  0.10230  0.17580  Biso   1.000  C
  H387     1.0000 0.19460  0.11480  0.15550  Biso   1.000  H
  C436     1.0000 0.25570  0.10960  0.17390  Biso   1.000  C
  H388     1.0000 0.26700  0.12730  0.15280  Biso   1.000  H
  C437     1.0000 0.28200  0.09070  0.20325  Biso   1.000  C
  H389     1.0000 0.31160  0.09480  0.20200  Biso   1.000  H
  C438     1.0000 0.26460  0.06601  0.23396  Biso   1.000  C
  N196     1.0000 0.27725  0.03131  0.29500  Biso   1.000  N
  C439     1.0000 0.30569  0.01009  0.32041  Biso   1.000  C
  C440     1.0000 0.35825  0.97839  0.34850  Biso   1.000  C
  H390     1.0000 0.38560  0.96730  0.35280  Biso   1.000  H
  C441     1.0000 0.32562  0.97516  0.37637  Biso   1.000  C
  H391     1.0000 0.32600  0.96170  0.40300  Biso   1.000  H
  H392     1.0000 0.22970  0.99600  0.35260  Biso   1.000  H
  N197     1.0000 0.79408  0.54625  0.76222  Biso   1.000  N
  N198     1.0000 0.84562  0.49984  0.81366  Biso   1.000  N
  N199     1.0000 0.79241  0.49537  0.85792  Biso   1.000  N
  C442     1.0000 0.72173  0.55860  0.73618  Biso   1.000  C
  H393     1.0000 0.71050  0.54110  0.75760  Biso   1.000  H
  C443     1.0000 0.69550  0.57710  0.70670  Biso   1.000  C
  H394     1.0000 0.66600  0.57260  0.70790  Biso   1.000  H
  C444     1.0000 0.71250  0.60230  0.67580  Biso   1.000  C
  H395     1.0000 0.69460  0.61480  0.65550  Biso   1.000  H
  C445     1.0000 0.75570  0.60960  0.67390  Biso   1.000  C
  H396     1.0000 0.76700  0.62730  0.65280  Biso   1.000  H
  C446     1.0000 0.78200  0.59070  0.70325  Biso   1.000  C
  H397     1.0000 0.81160  0.59480  0.70200  Biso   1.000  H
  C447     1.0000 0.76460  0.56601  0.73396  Biso   1.000  C
  N200     1.0000 0.77725  0.53131  0.79500  Biso   1.000  N
  C448     1.0000 0.80569  0.51009  0.82041  Biso   1.000  C
  C449     1.0000 0.85825  0.47839  0.84850  Biso   1.000  C
  H398     1.0000 0.88560  0.46730  0.85280  Biso   1.000  H
  C450     1.0000 0.82562  0.47516  0.87637  Biso   1.000  C
  H399     1.0000 0.82600  0.46170  0.90300  Biso   1.000  H
  H400     1.0000 0.72970  0.49600  0.85260  Biso   1.000  H
  N201     1.0000 0.20592  0.95375  0.76222  Biso   1.000  N
  N202     1.0000 0.15438  0.00016  0.81366  Biso   1.000  N
  N203     1.0000 0.20759  0.00463  0.85792  Biso   1.000  N
  C451     1.0000 0.27827  0.94140  0.73618  Biso   1.000  C
  H401     1.0000 0.28950  0.95890  0.75760  Biso   1.000  H
  C452     1.0000 0.30450  0.92290  0.70670  Biso   1.000  C
  H402     1.0000 0.33400  0.92740  0.70790  Biso   1.000  H
  C453     1.0000 0.28750  0.89770  0.67580  Biso   1.000  C
  H403     1.0000 0.30540  0.88520  0.65550  Biso   1.000  H
  C454     1.0000 0.24430  0.89040  0.67390  Biso   1.000  C
  H404     1.0000 0.23300  0.87270  0.65280  Biso   1.000  H
  C455     1.0000 0.21800  0.90930  0.70325  Biso   1.000  C
  H405     1.0000 0.18840  0.90520  0.70200  Biso   1.000  H
  C456     1.0000 0.23540  0.93399  0.73396  Biso   1.000  C
  N204     1.0000 0.22275  0.96869  0.79500  Biso   1.000  N
  C457     1.0000 0.19431  0.98991  0.82041  Biso   1.000  C
  C458     1.0000 0.14175  0.02161  0.84850  Biso   1.000  C
  H406     1.0000 0.11440  0.03270  0.85280  Biso   1.000  H
  C459     1.0000 0.17438  0.02484  0.87637  Biso   1.000  C
  H407     1.0000 0.17400  0.03830  0.90300  Biso   1.000  H
  H408     1.0000 0.27030  0.00400  0.85260  Biso   1.000  H
  N205     1.0000 0.70592  0.45375  0.26222  Biso   1.000  N
  N206     1.0000 0.65438  0.50016  0.31366  Biso   1.000  N
  N207     1.0000 0.70759  0.50463  0.35792  Biso   1.000  N
  C460     1.0000 0.77827  0.44140  0.23618  Biso   1.000  C
  H409     1.0000 0.78950  0.45890  0.25760  Biso   1.000  H
  C461     1.0000 0.80450  0.42290  0.20670  Biso   1.000  C
  H410     1.0000 0.83400  0.42740  0.20790  Biso   1.000  H
  C462     1.0000 0.78750  0.39770  0.17580  Biso   1.000  C
  H411     1.0000 0.80540  0.38520  0.15550  Biso   1.000  H
  C463     1.0000 0.74430  0.39040  0.17390  Biso   1.000  C
  H412     1.0000 0.73300  0.37270  0.15280  Biso   1.000  H
  C464     1.0000 0.71800  0.40930  0.20325  Biso   1.000  C
  H413     1.0000 0.68840  0.40520  0.20200  Biso   1.000  H
  C465     1.0000 0.73540  0.43399  0.23396  Biso   1.000  C
  N208     1.0000 0.72275  0.46869  0.29500  Biso   1.000  N
  C466     1.0000 0.69431  0.48991  0.32041  Biso   1.000  C
  C467     1.0000 0.64175  0.52161  0.34850  Biso   1.000  C
  H414     1.0000 0.61440  0.53270  0.35280  Biso   1.000  H
  C468     1.0000 0.67438  0.52484  0.37637  Biso   1.000  C
  H415     1.0000 0.67400  0.53830  0.40300  Biso   1.000  H
  H416     1.0000 0.77030  0.50400  0.35260  Biso   1.000  H
  N209     1.0000 0.70592  0.54625  0.23778  Biso   1.000  N
  N210     1.0000 0.65438  0.49984  0.18634  Biso   1.000  N
  N211     1.0000 0.70759  0.49537  0.14208  Biso   1.000  N
  C469     1.0000 0.77827  0.55860  0.26382  Biso   1.000  C
  H417     1.0000 0.78950  0.54110  0.24240  Biso   1.000  H
  C470     1.0000 0.80450  0.57710  0.29330  Biso   1.000  C
  H418     1.0000 0.83400  0.57260  0.29210  Biso   1.000  H
  C471     1.0000 0.78750  0.60230  0.32420  Biso   1.000  C
  H419     1.0000 0.80540  0.61480  0.34450  Biso   1.000  H
  C472     1.0000 0.74430  0.60960  0.32610  Biso   1.000  C
  H420     1.0000 0.73300  0.62730  0.34720  Biso   1.000  H
  C473     1.0000 0.71800  0.59070  0.29675  Biso   1.000  C
  H421     1.0000 0.68840  0.59480  0.29800  Biso   1.000  H
  C474     1.0000 0.73540  0.56601  0.26604  Biso   1.000  C
  N212     1.0000 0.72275  0.53131  0.20500  Biso   1.000  N
  C475     1.0000 0.69431  0.51009  0.17959  Biso   1.000  C
  C476     1.0000 0.64175  0.47839  0.15150  Biso   1.000  C
  H422     1.0000 0.61440  0.46730  0.14720  Biso   1.000  H
  C477     1.0000 0.67438  0.47516  0.12363  Biso   1.000  C
  H423     1.0000 0.67400  0.46170  0.09700  Biso   1.000  H
  H424     1.0000 0.77030  0.49600  0.14740  Biso   1.000  H
  N213     1.0000 0.20592  0.04625  0.73778  Biso   1.000  N
  N214     1.0000 0.15438  0.99984  0.68634  Biso   1.000  N
  N215     1.0000 0.20759  0.99537  0.64208  Biso   1.000  N
  C478     1.0000 0.27827  0.05860  0.76382  Biso   1.000  C
  H425     1.0000 0.28950  0.04110  0.74240  Biso   1.000  H
  C479     1.0000 0.30450  0.07710  0.79330  Biso   1.000  C
  H426     1.0000 0.33400  0.07260  0.79210  Biso   1.000  H
  C480     1.0000 0.28750  0.10230  0.82420  Biso   1.000  C
  H427     1.0000 0.30540  0.11480  0.84450  Biso   1.000  H
  C481     1.0000 0.24430  0.10960  0.82610  Biso   1.000  C
  H428     1.0000 0.23300  0.12730  0.84720  Biso   1.000  H
  C482     1.0000 0.21800  0.09070  0.79675  Biso   1.000  C
  H429     1.0000 0.18840  0.09480  0.79800  Biso   1.000  H
  C483     1.0000 0.23540  0.06601  0.76604  Biso   1.000  C
  N216     1.0000 0.22275  0.03131  0.70500  Biso   1.000  N
  C484     1.0000 0.19431  0.01009  0.67959  Biso   1.000  C
  C485     1.0000 0.14175  0.97839  0.65150  Biso   1.000  C
  H430     1.0000 0.11440  0.96730  0.64720  Biso   1.000  H
  C486     1.0000 0.17438  0.97516  0.62363  Biso   1.000  C
  H431     1.0000 0.17400  0.96170  0.59700  Biso   1.000  H
  H432     1.0000 0.27030  0.99600  0.64740  Biso   1.000  H
  N217     1.0000 0.79408  0.45375  0.73778  Biso   1.000  N
  N218     1.0000 0.84562  0.50016  0.68634  Biso   1.000  N
  N219     1.0000 0.79241  0.50463  0.64208  Biso   1.000  N
  C487     1.0000 0.72173  0.44140  0.76382  Biso   1.000  C
  H433     1.0000 0.71050  0.45890  0.74240  Biso   1.000  H
  C488     1.0000 0.69550  0.42290  0.79330  Biso   1.000  C
  H434     1.0000 0.66600  0.42740  0.79210  Biso   1.000  H
  C489     1.0000 0.71250  0.39770  0.82420  Biso   1.000  C
  H435     1.0000 0.69460  0.38520  0.84450  Biso   1.000  H
  C490     1.0000 0.75570  0.39040  0.82610  Biso   1.000  C
  H436     1.0000 0.76700  0.37270  0.84720  Biso   1.000  H
  C491     1.0000 0.78200  0.40930  0.79675  Biso   1.000  C
  H437     1.0000 0.81160  0.40520  0.79800  Biso   1.000  H
  C492     1.0000 0.76460  0.43399  0.76604  Biso   1.000  C
  N220     1.0000 0.77725  0.46869  0.70500  Biso   1.000  N
  C493     1.0000 0.80569  0.48991  0.67959  Biso   1.000  C
  C494     1.0000 0.85825  0.52161  0.65150  Biso   1.000  C
  H438     1.0000 0.88560  0.53270  0.64720  Biso   1.000  H
  C495     1.0000 0.82562  0.52484  0.62363  Biso   1.000  C
  H439     1.0000 0.82600  0.53830  0.59700  Biso   1.000  H
  H440     1.0000 0.72970  0.50400  0.64740  Biso   1.000  H
  N221     1.0000 0.29408  0.95375  0.23778  Biso   1.000  N
  N222     1.0000 0.34562  0.00016  0.18634  Biso   1.000  N
  N223     1.0000 0.29241  0.00463  0.14208  Biso   1.000  N
  C496     1.0000 0.22173  0.94140  0.26382  Biso   1.000  C
  H441     1.0000 0.21050  0.95890  0.24240  Biso   1.000  H
  C497     1.0000 0.19550  0.92290  0.29330  Biso   1.000  C
  H442     1.0000 0.16600  0.92740  0.29210  Biso   1.000  H
  C498     1.0000 0.21250  0.89770  0.32420  Biso   1.000  C
  H443     1.0000 0.19460  0.88520  0.34450  Biso   1.000  H
  C499     1.0000 0.25570  0.89040  0.32610  Biso   1.000  C
  H444     1.0000 0.26700  0.87270  0.34720  Biso   1.000  H
  C500     1.0000 0.28200  0.90930  0.29675  Biso   1.000  C
  H445     1.0000 0.31160  0.90520  0.29800  Biso   1.000  H
  C501     1.0000 0.26460  0.93399  0.26604  Biso   1.000  C
  N224     1.0000 0.27725  0.96869  0.20500  Biso   1.000  N
  C502     1.0000 0.30569  0.98991  0.17959  Biso   1.000  C
  C503     1.0000 0.35825  0.02161  0.15150  Biso   1.000  C
  H446     1.0000 0.38560  0.03270  0.14720  Biso   1.000  H
  C504     1.0000 0.32562  0.02484  0.12363  Biso   1.000  C
  H447     1.0000 0.32600  0.03830  0.09700  Biso   1.000  H
  H448     1.0000 0.22970  0.00400  0.14740  Biso   1.000  H
  N225     1.0000 0.26222  0.29408  0.04625  Biso   1.000  N
  N226     1.0000 0.31366  0.34562  0.99984  Biso   1.000  N
  N227     1.0000 0.35792  0.29241  0.99537  Biso   1.000  N
  C505     1.0000 0.23618  0.22173  0.05860  Biso   1.000  C
  H449     1.0000 0.25760  0.21050  0.04110  Biso   1.000  H
  C506     1.0000 0.20670  0.19550  0.07710  Biso   1.000  C
  H450     1.0000 0.20790  0.16600  0.07260  Biso   1.000  H
  C507     1.0000 0.17580  0.21250  0.10230  Biso   1.000  C
  H451     1.0000 0.15550  0.19460  0.11480  Biso   1.000  H
  C508     1.0000 0.17390  0.25570  0.10960  Biso   1.000  C
  H452     1.0000 0.15280  0.26700  0.12730  Biso   1.000  H
  C509     1.0000 0.20325  0.28200  0.09070  Biso   1.000  C
  H453     1.0000 0.20200  0.31160  0.09480  Biso   1.000  H
  C510     1.0000 0.23396  0.26460  0.06601  Biso   1.000  C
  N228     1.0000 0.29500  0.27725  0.03131  Biso   1.000  N
  C511     1.0000 0.32041  0.30569  0.01009  Biso   1.000  C
  C512     1.0000 0.34850  0.35825  0.97839  Biso   1.000  C
  H454     1.0000 0.35280  0.38560  0.96730  Biso   1.000  H
  C513     1.0000 0.37637  0.32562  0.97516  Biso   1.000  C
  H455     1.0000 0.40300  0.32600  0.96170  Biso   1.000  H
  H456     1.0000 0.35260  0.22970  0.99600  Biso   1.000  H
  N229     1.0000 0.76222  0.79408  0.54625  Biso   1.000  N
  N230     1.0000 0.81366  0.84562  0.49984  Biso   1.000  N
  N231     1.0000 0.85792  0.79241  0.49537  Biso   1.000  N
  C514     1.0000 0.73618  0.72173  0.55860  Biso   1.000  C
  H457     1.0000 0.75760  0.71050  0.54110  Biso   1.000  H
  C515     1.0000 0.70670  0.69550  0.57710  Biso   1.000  C
  H458     1.0000 0.70790  0.66600  0.57260  Biso   1.000  H
  C516     1.0000 0.67580  0.71250  0.60230  Biso   1.000  C
  H459     1.0000 0.65550  0.69460  0.61480  Biso   1.000  H
  C517     1.0000 0.67390  0.75570  0.60960  Biso   1.000  C
  H460     1.0000 0.65280  0.76700  0.62730  Biso   1.000  H
  C518     1.0000 0.70325  0.78200  0.59070  Biso   1.000  C
  H461     1.0000 0.70200  0.81160  0.59480  Biso   1.000  H
  C519     1.0000 0.73396  0.76460  0.56601  Biso   1.000  C
  N232     1.0000 0.79500  0.77725  0.53131  Biso   1.000  N
  C520     1.0000 0.82041  0.80569  0.51009  Biso   1.000  C
  C521     1.0000 0.84850  0.85825  0.47839  Biso   1.000  C
  H462     1.0000 0.85280  0.88560  0.46730  Biso   1.000  H
  C522     1.0000 0.87637  0.82562  0.47516  Biso   1.000  C
  H463     1.0000 0.90300  0.82600  0.46170  Biso   1.000  H
  H464     1.0000 0.85260  0.72970  0.49600  Biso   1.000  H
  N233     1.0000 0.76222  0.20592  0.95375  Biso   1.000  N
  N234     1.0000 0.81366  0.15438  0.00016  Biso   1.000  N
  N235     1.0000 0.85792  0.20759  0.00463  Biso   1.000  N
  C523     1.0000 0.73618  0.27827  0.94140  Biso   1.000  C
  H465     1.0000 0.75760  0.28950  0.95890  Biso   1.000  H
  C524     1.0000 0.70670  0.30450  0.92290  Biso   1.000  C
  H466     1.0000 0.70790  0.33400  0.92740  Biso   1.000  H
  C525     1.0000 0.67580  0.28750  0.89770  Biso   1.000  C
  H467     1.0000 0.65550  0.30540  0.88520  Biso   1.000  H
  C526     1.0000 0.67390  0.24430  0.89040  Biso   1.000  C
  H468     1.0000 0.65280  0.23300  0.87270  Biso   1.000  H
  C527     1.0000 0.70325  0.21800  0.90930  Biso   1.000  C
  H469     1.0000 0.70200  0.18840  0.90520  Biso   1.000  H
  C528     1.0000 0.73396  0.23540  0.93399  Biso   1.000  C
  N236     1.0000 0.79500  0.22275  0.96869  Biso   1.000  N
  C529     1.0000 0.82041  0.19431  0.98991  Biso   1.000  C
  C530     1.0000 0.84850  0.14175  0.02161  Biso   1.000  C
  H470     1.0000 0.85280  0.11440  0.03270  Biso   1.000  H
  C531     1.0000 0.87637  0.17438  0.02484  Biso   1.000  C
  H471     1.0000 0.90300  0.17400  0.03830  Biso   1.000  H
  H472     1.0000 0.85260  0.27030  0.00400  Biso   1.000  H
  N237     1.0000 0.26222  0.70592  0.45375  Biso   1.000  N
  N238     1.0000 0.31366  0.65438  0.50016  Biso   1.000  N
  N239     1.0000 0.35792  0.70759  0.50463  Biso   1.000  N
  C532     1.0000 0.23618  0.77827  0.44140  Biso   1.000  C
  H473     1.0000 0.25760  0.78950  0.45890  Biso   1.000  H
  C533     1.0000 0.20670  0.80450  0.42290  Biso   1.000  C
  H474     1.0000 0.20790  0.83400  0.42740  Biso   1.000  H
  C534     1.0000 0.17580  0.78750  0.39770  Biso   1.000  C
  H475     1.0000 0.15550  0.80540  0.38520  Biso   1.000  H
  C535     1.0000 0.17390  0.74430  0.39040  Biso   1.000  C
  H476     1.0000 0.15280  0.73300  0.37270  Biso   1.000  H
  C536     1.0000 0.20325  0.71800  0.40930  Biso   1.000  C
  H477     1.0000 0.20200  0.68840  0.40520  Biso   1.000  H
  C537     1.0000 0.23396  0.73540  0.43399  Biso   1.000  C
  N240     1.0000 0.29500  0.72275  0.46869  Biso   1.000  N
  C538     1.0000 0.32041  0.69431  0.48991  Biso   1.000  C
  C539     1.0000 0.34850  0.64175  0.52161  Biso   1.000  C
  H478     1.0000 0.35280  0.61440  0.53270  Biso   1.000  H
  C540     1.0000 0.37637  0.67438  0.52484  Biso   1.000  C
  H479     1.0000 0.40300  0.67400  0.53830  Biso   1.000  H
  H480     1.0000 0.35260  0.77030  0.50400  Biso   1.000  H
  N241     1.0000 0.23778  0.70592  0.54625  Biso   1.000  N
  N242     1.0000 0.18634  0.65438  0.49984  Biso   1.000  N
  N243     1.0000 0.14208  0.70759  0.49537  Biso   1.000  N
  C541     1.0000 0.26382  0.77827  0.55860  Biso   1.000  C
  H481     1.0000 0.24240  0.78950  0.54110  Biso   1.000  H
  C542     1.0000 0.29330  0.80450  0.57710  Biso   1.000  C
  H482     1.0000 0.29210  0.83400  0.57260  Biso   1.000  H
  C543     1.0000 0.32420  0.78750  0.60230  Biso   1.000  C
  H483     1.0000 0.34450  0.80540  0.61480  Biso   1.000  H
  C544     1.0000 0.32610  0.74430  0.60960  Biso   1.000  C
  H484     1.0000 0.34720  0.73300  0.62730  Biso   1.000  H
  C545     1.0000 0.29675  0.71800  0.59070  Biso   1.000  C
  H485     1.0000 0.29800  0.68840  0.59480  Biso   1.000  H
  C546     1.0000 0.26604  0.73540  0.56601  Biso   1.000  C
  N244     1.0000 0.20500  0.72275  0.53131  Biso   1.000  N
  C547     1.0000 0.17959  0.69431  0.51009  Biso   1.000  C
  C548     1.0000 0.15150  0.64175  0.47839  Biso   1.000  C
  H486     1.0000 0.14720  0.61440  0.46730  Biso   1.000  H
  C549     1.0000 0.12363  0.67438  0.47516  Biso   1.000  C
  H487     1.0000 0.09700  0.67400  0.46170  Biso   1.000  H
  H488     1.0000 0.14740  0.77030  0.49600  Biso   1.000  H
  N245     1.0000 0.73778  0.20592  0.04625  Biso   1.000  N
  N246     1.0000 0.68634  0.15438  0.99984  Biso   1.000  N
  N247     1.0000 0.64208  0.20759  0.99537  Biso   1.000  N
  C550     1.0000 0.76382  0.27827  0.05860  Biso   1.000  C
  H489     1.0000 0.74240  0.28950  0.04110  Biso   1.000  H
  C551     1.0000 0.79330  0.30450  0.07710  Biso   1.000  C
  H490     1.0000 0.79210  0.33400  0.07260  Biso   1.000  H
  C552     1.0000 0.82420  0.28750  0.10230  Biso   1.000  C
  H491     1.0000 0.84450  0.30540  0.11480  Biso   1.000  H
  C553     1.0000 0.82610  0.24430  0.10960  Biso   1.000  C
  H492     1.0000 0.84720  0.23300  0.12730  Biso   1.000  H
  C554     1.0000 0.79675  0.21800  0.09070  Biso   1.000  C
  H493     1.0000 0.79800  0.18840  0.09480  Biso   1.000  H
  C555     1.0000 0.76604  0.23540  0.06601  Biso   1.000  C
  N248     1.0000 0.70500  0.22275  0.03131  Biso   1.000  N
  C556     1.0000 0.67959  0.19431  0.01009  Biso   1.000  C
  C557     1.0000 0.65150  0.14175  0.97839  Biso   1.000  C
  H494     1.0000 0.64720  0.11440  0.96730  Biso   1.000  H
  C558     1.0000 0.62363  0.17438  0.97516  Biso   1.000  C
  H495     1.0000 0.59700  0.17400  0.96170  Biso   1.000  H
  H496     1.0000 0.64740  0.27030  0.99600  Biso   1.000  H
  N249     1.0000 0.73778  0.79408  0.45375  Biso   1.000  N
  N250     1.0000 0.68634  0.84562  0.50016  Biso   1.000  N
  N251     1.0000 0.64208  0.79241  0.50463  Biso   1.000  N
  C559     1.0000 0.76382  0.72173  0.44140  Biso   1.000  C
  H497     1.0000 0.74240  0.71050  0.45890  Biso   1.000  H
  C560     1.0000 0.79330  0.69550  0.42290  Biso   1.000  C
  H498     1.0000 0.79210  0.66600  0.42740  Biso   1.000  H
  C561     1.0000 0.82420  0.71250  0.39770  Biso   1.000  C
  H499     1.0000 0.84450  0.69460  0.38520  Biso   1.000  H
  C562     1.0000 0.82610  0.75570  0.39040  Biso   1.000  C
  H500     1.0000 0.84720  0.76700  0.37270  Biso   1.000  H
  C563     1.0000 0.79675  0.78200  0.40930  Biso   1.000  C
  H501     1.0000 0.79800  0.81160  0.40520  Biso   1.000  H
  C564     1.0000 0.76604  0.76460  0.43399  Biso   1.000  C
  N252     1.0000 0.70500  0.77725  0.46869  Biso   1.000  N
  C565     1.0000 0.67959  0.80569  0.48991  Biso   1.000  C
  C566     1.0000 0.65150  0.85825  0.52161  Biso   1.000  C
  H502     1.0000 0.64720  0.88560  0.53270  Biso   1.000  H
  C567     1.0000 0.62363  0.82562  0.52484  Biso   1.000  C
  H503     1.0000 0.59700  0.82600  0.53830  Biso   1.000  H
  H504     1.0000 0.64740  0.72970  0.50400  Biso   1.000  H
  N253     1.0000 0.23778  0.29408  0.95375  Biso   1.000  N
  N254     1.0000 0.18634  0.34562  0.00016  Biso   1.000  N
  N255     1.0000 0.14208  0.29241  0.00463  Biso   1.000  N
  C568     1.0000 0.26382  0.22173  0.94140  Biso   1.000  C
  H505     1.0000 0.24240  0.21050  0.95890  Biso   1.000  H
  C569     1.0000 0.29330  0.19550  0.92290  Biso   1.000  C
  H506     1.0000 0.29210  0.16600  0.92740  Biso   1.000  H
  C570     1.0000 0.32420  0.21250  0.89770  Biso   1.000  C
  H507     1.0000 0.34450  0.19460  0.88520  Biso   1.000  H
  C571     1.0000 0.32610  0.25570  0.89040  Biso   1.000  C
  H508     1.0000 0.34720  0.26700  0.87270  Biso   1.000  H
  C572     1.0000 0.29675  0.28200  0.90930  Biso   1.000  C
  H509     1.0000 0.29800  0.31160  0.90520  Biso   1.000  H
  C573     1.0000 0.26604  0.26460  0.93399  Biso   1.000  C
  N256     1.0000 0.20500  0.27725  0.96869  Biso   1.000  N
  C574     1.0000 0.17959  0.30569  0.98991  Biso   1.000  C
  C575     1.0000 0.15150  0.35825  0.02161  Biso   1.000  C
  H510     1.0000 0.14720  0.38560  0.03270  Biso   1.000  H
  C576     1.0000 0.12363  0.32562  0.02484  Biso   1.000  C
  H511     1.0000 0.09700  0.32600  0.03830  Biso   1.000  H
  H512     1.0000 0.14740  0.22970  0.00400  Biso   1.000  H
  N257     1.0000 0.04625  0.26222  0.29408  Biso   1.000  N
  N258     1.0000 0.99984  0.31366  0.34562  Biso   1.000  N
  N259     1.0000 0.99537  0.35792  0.29241  Biso   1.000  N
  C577     1.0000 0.05860  0.23618  0.22173  Biso   1.000  C
  H513     1.0000 0.04110  0.25760  0.21050  Biso   1.000  H
  C578     1.0000 0.07710  0.20670  0.19550  Biso   1.000  C
  H514     1.0000 0.07260  0.20790  0.16600  Biso   1.000  H
  C579     1.0000 0.10230  0.17580  0.21250  Biso   1.000  C
  H515     1.0000 0.11480  0.15550  0.19460  Biso   1.000  H
  C580     1.0000 0.10960  0.17390  0.25570  Biso   1.000  C
  H516     1.0000 0.12730  0.15280  0.26700  Biso   1.000  H
  C581     1.0000 0.09070  0.20325  0.28200  Biso   1.000  C
  H517     1.0000 0.09480  0.20200  0.31160  Biso   1.000  H
  C582     1.0000 0.06601  0.23396  0.26460  Biso   1.000  C
  N260     1.0000 0.03131  0.29500  0.27725  Biso   1.000  N
  C583     1.0000 0.01009  0.32041  0.30569  Biso   1.000  C
  C584     1.0000 0.97839  0.34850  0.35825  Biso   1.000  C
  H518     1.0000 0.96730  0.35280  0.38560  Biso   1.000  H
  C585     1.0000 0.97516  0.37637  0.32562  Biso   1.000  C
  H519     1.0000 0.96170  0.40300  0.32600  Biso   1.000  H
  H520     1.0000 0.99600  0.35260  0.22970  Biso   1.000  H
  N261     1.0000 0.54625  0.76222  0.79408  Biso   1.000  N
  N262     1.0000 0.49984  0.81366  0.84562  Biso   1.000  N
  N263     1.0000 0.49537  0.85792  0.79241  Biso   1.000  N
  C586     1.0000 0.55860  0.73618  0.72173  Biso   1.000  C
  H521     1.0000 0.54110  0.75760  0.71050  Biso   1.000  H
  C587     1.0000 0.57710  0.70670  0.69550  Biso   1.000  C
  H522     1.0000 0.57260  0.70790  0.66600  Biso   1.000  H
  C588     1.0000 0.60230  0.67580  0.71250  Biso   1.000  C
  H523     1.0000 0.61480  0.65550  0.69460  Biso   1.000  H
  C589     1.0000 0.60960  0.67390  0.75570  Biso   1.000  C
  H524     1.0000 0.62730  0.65280  0.76700  Biso   1.000  H
  C590     1.0000 0.59070  0.70325  0.78200  Biso   1.000  C
  H525     1.0000 0.59480  0.70200  0.81160  Biso   1.000  H
  C591     1.0000 0.56601  0.73396  0.76460  Biso   1.000  C
  N264     1.0000 0.53131  0.79500  0.77725  Biso   1.000  N
  C592     1.0000 0.51009  0.82041  0.80569  Biso   1.000  C
  C593     1.0000 0.47839  0.84850  0.85825  Biso   1.000  C
  H526     1.0000 0.46730  0.85280  0.88560  Biso   1.000  H
  C594     1.0000 0.47516  0.87637  0.82562  Biso   1.000  C
  H527     1.0000 0.46170  0.90300  0.82600  Biso   1.000  H
  H528     1.0000 0.49600  0.85260  0.72970  Biso   1.000  H
  N265     1.0000 0.95375  0.76222  0.20592  Biso   1.000  N
  N266     1.0000 0.00016  0.81366  0.15438  Biso   1.000  N
  N267     1.0000 0.00463  0.85792  0.20759  Biso   1.000  N
  C595     1.0000 0.94140  0.73618  0.27827  Biso   1.000  C
  H529     1.0000 0.95890  0.75760  0.28950  Biso   1.000  H
  C596     1.0000 0.92290  0.70670  0.30450  Biso   1.000  C
  H530     1.0000 0.92740  0.70790  0.33400  Biso   1.000  H
  C597     1.0000 0.89770  0.67580  0.28750  Biso   1.000  C
  H531     1.0000 0.88520  0.65550  0.30540  Biso   1.000  H
  C598     1.0000 0.89040  0.67390  0.24430  Biso   1.000  C
  H532     1.0000 0.87270  0.65280  0.23300  Biso   1.000  H
  C599     1.0000 0.90930  0.70325  0.21800  Biso   1.000  C
  H533     1.0000 0.90520  0.70200  0.18840  Biso   1.000  H
  C600     1.0000 0.93399  0.73396  0.23540  Biso   1.000  C
  N268     1.0000 0.96869  0.79500  0.22275  Biso   1.000  N
  C601     1.0000 0.98991  0.82041  0.19431  Biso   1.000  C
  C602     1.0000 0.02161  0.84850  0.14175  Biso   1.000  C
  H534     1.0000 0.03270  0.85280  0.11440  Biso   1.000  H
  C603     1.0000 0.02484  0.87637  0.17438  Biso   1.000  C
  H535     1.0000 0.03830  0.90300  0.17400  Biso   1.000  H
  H536     1.0000 0.00400  0.85260  0.27030  Biso   1.000  H
  N269     1.0000 0.45375  0.26222  0.70592  Biso   1.000  N
  N270     1.0000 0.50016  0.31366  0.65438  Biso   1.000  N
  N271     1.0000 0.50463  0.35792  0.70759  Biso   1.000  N
  C604     1.0000 0.44140  0.23618  0.77827  Biso   1.000  C
  H537     1.0000 0.45890  0.25760  0.78950  Biso   1.000  H
  C605     1.0000 0.42290  0.20670  0.80450  Biso   1.000  C
  H538     1.0000 0.42740  0.20790  0.83400  Biso   1.000  H
  C606     1.0000 0.39770  0.17580  0.78750  Biso   1.000  C
  H539     1.0000 0.38520  0.15550  0.80540  Biso   1.000  H
  C607     1.0000 0.39040  0.17390  0.74430  Biso   1.000  C
  H540     1.0000 0.37270  0.15280  0.73300  Biso   1.000  H
  C608     1.0000 0.40930  0.20325  0.71800  Biso   1.000  C
  H541     1.0000 0.40520  0.20200  0.68840  Biso   1.000  H
  C609     1.0000 0.43399  0.23396  0.73540  Biso   1.000  C
  N272     1.0000 0.46869  0.29500  0.72275  Biso   1.000  N
  C610     1.0000 0.48991  0.32041  0.69431  Biso   1.000  C
  C611     1.0000 0.52161  0.34850  0.64175  Biso   1.000  C
  H542     1.0000 0.53270  0.35280  0.61440  Biso   1.000  H
  C612     1.0000 0.52484  0.37637  0.67438  Biso   1.000  C
  H543     1.0000 0.53830  0.40300  0.67400  Biso   1.000  H
  H544     1.0000 0.50400  0.35260  0.77030  Biso   1.000  H
  N273     1.0000 0.54625  0.23778  0.70592  Biso   1.000  N
  N274     1.0000 0.49984  0.18634  0.65438  Biso   1.000  N
  N275     1.0000 0.49537  0.14208  0.70759  Biso   1.000  N
  C613     1.0000 0.55860  0.26382  0.77827  Biso   1.000  C
  H545     1.0000 0.54110  0.24240  0.78950  Biso   1.000  H
  C614     1.0000 0.57710  0.29330  0.80450  Biso   1.000  C
  H546     1.0000 0.57260  0.29210  0.83400  Biso   1.000  H
  C615     1.0000 0.60230  0.32420  0.78750  Biso   1.000  C
  H547     1.0000 0.61480  0.34450  0.80540  Biso   1.000  H
  C616     1.0000 0.60960  0.32610  0.74430  Biso   1.000  C
  H548     1.0000 0.62730  0.34720  0.73300  Biso   1.000  H
  C617     1.0000 0.59070  0.29675  0.71800  Biso   1.000  C
  H549     1.0000 0.59480  0.29800  0.68840  Biso   1.000  H
  C618     1.0000 0.56601  0.26604  0.73540  Biso   1.000  C
  N276     1.0000 0.53131  0.20500  0.72275  Biso   1.000  N
  C619     1.0000 0.51009  0.17959  0.69431  Biso   1.000  C
  C620     1.0000 0.47839  0.15150  0.64175  Biso   1.000  C
  H550     1.0000 0.46730  0.14720  0.61440  Biso   1.000  H
  C621     1.0000 0.47516  0.12363  0.67438  Biso   1.000  C
  H551     1.0000 0.46170  0.09700  0.67400  Biso   1.000  H
  H552     1.0000 0.49600  0.14740  0.77030  Biso   1.000  H
  N277     1.0000 0.04625  0.73778  0.20592  Biso   1.000  N
  N278     1.0000 0.99984  0.68634  0.15438  Biso   1.000  N
  N279     1.0000 0.99537  0.64208  0.20759  Biso   1.000  N
  C622     1.0000 0.05860  0.76382  0.27827  Biso   1.000  C
  H553     1.0000 0.04110  0.74240  0.28950  Biso   1.000  H
  C623     1.0000 0.07710  0.79330  0.30450  Biso   1.000  C
  H554     1.0000 0.07260  0.79210  0.33400  Biso   1.000  H
  C624     1.0000 0.10230  0.82420  0.28750  Biso   1.000  C
  H555     1.0000 0.11480  0.84450  0.30540  Biso   1.000  H
  C625     1.0000 0.10960  0.82610  0.24430  Biso   1.000  C
  H556     1.0000 0.12730  0.84720  0.23300  Biso   1.000  H
  C626     1.0000 0.09070  0.79675  0.21800  Biso   1.000  C
  H557     1.0000 0.09480  0.79800  0.18840  Biso   1.000  H
  C627     1.0000 0.06601  0.76604  0.23540  Biso   1.000  C
  N280     1.0000 0.03131  0.70500  0.22275  Biso   1.000  N
  C628     1.0000 0.01009  0.67959  0.19431  Biso   1.000  C
  C629     1.0000 0.97839  0.65150  0.14175  Biso   1.000  C
  H558     1.0000 0.96730  0.64720  0.11440  Biso   1.000  H
  C630     1.0000 0.97516  0.62363  0.17438  Biso   1.000  C
  H559     1.0000 0.96170  0.59700  0.17400  Biso   1.000  H
  H560     1.0000 0.99600  0.64740  0.27030  Biso   1.000  H
  N281     1.0000 0.45375  0.73778  0.79408  Biso   1.000  N
  N282     1.0000 0.50016  0.68634  0.84562  Biso   1.000  N
  N283     1.0000 0.50463  0.64208  0.79241  Biso   1.000  N
  C631     1.0000 0.44140  0.76382  0.72173  Biso   1.000  C
  H561     1.0000 0.45890  0.74240  0.71050  Biso   1.000  H
  C632     1.0000 0.42290  0.79330  0.69550  Biso   1.000  C
  H562     1.0000 0.42740  0.79210  0.66600  Biso   1.000  H
  C633     1.0000 0.39770  0.82420  0.71250  Biso   1.000  C
  H563     1.0000 0.38520  0.84450  0.69460  Biso   1.000  H
  C634     1.0000 0.39040  0.82610  0.75570  Biso   1.000  C
  H564     1.0000 0.37270  0.84720  0.76700  Biso   1.000  H
  C635     1.0000 0.40930  0.79675  0.78200  Biso   1.000  C
  H565     1.0000 0.40520  0.79800  0.81160  Biso   1.000  H
  C636     1.0000 0.43399  0.76604  0.76460  Biso   1.000  C
  N284     1.0000 0.46869  0.70500  0.77725  Biso   1.000  N
  C637     1.0000 0.48991  0.67959  0.80569  Biso   1.000  C
  C638     1.0000 0.52161  0.65150  0.85825  Biso   1.000  C
  H566     1.0000 0.53270  0.64720  0.88560  Biso   1.000  H
  C639     1.0000 0.52484  0.62363  0.82562  Biso   1.000  C
  H567     1.0000 0.53830  0.59700  0.82600  Biso   1.000  H
  H568     1.0000 0.50400  0.64740  0.72970  Biso   1.000  H
  N285     1.0000 0.95375  0.23778  0.29408  Biso   1.000  N
  N286     1.0000 0.00016  0.18634  0.34562  Biso   1.000  N
  N287     1.0000 0.00463  0.14208  0.29241  Biso   1.000  N
  C640     1.0000 0.94140  0.26382  0.22173  Biso   1.000  C
  H569     1.0000 0.95890  0.24240  0.21050  Biso   1.000  H
  C641     1.0000 0.92290  0.29330  0.19550  Biso   1.000  C
  H570     1.0000 0.92740  0.29210  0.16600  Biso   1.000  H
  C642     1.0000 0.89770  0.32420  0.21250  Biso   1.000  C
  H571     1.0000 0.88520  0.34450  0.19460  Biso   1.000  H
  C643     1.0000 0.89040  0.32610  0.25570  Biso   1.000  C
  H572     1.0000 0.87270  0.34720  0.26700  Biso   1.000  H
  C644     1.0000 0.90930  0.29675  0.28200  Biso   1.000  C
  H573     1.0000 0.90520  0.29800  0.31160  Biso   1.000  H
  C645     1.0000 0.93399  0.26604  0.26460  Biso   1.000  C
  N288     1.0000 0.96869  0.20500  0.27725  Biso   1.000  N
  C646     1.0000 0.98991  0.17959  0.30569  Biso   1.000  C
  C647     1.0000 0.02161  0.15150  0.35825  Biso   1.000  C
  H574     1.0000 0.03270  0.14720  0.38560  Biso   1.000  H
  C648     1.0000 0.02484  0.12363  0.32562  Biso   1.000  C
  H575     1.0000 0.03830  0.09700  0.32600  Biso   1.000  H
  H576     1.0000 0.00400  0.14740  0.22970  Biso   1.000  H
  N289     1.0000 0.29625  0.04408  0.48778  Biso   1.000  N
  N290     1.0000 0.24984  0.09562  0.43634  Biso   1.000  N
  N291     1.0000 0.24537  0.04241  0.39208  Biso   1.000  N
  C649     1.0000 0.30860  0.97173  0.51382  Biso   1.000  C
  H577     1.0000 0.29110  0.96050  0.49240  Biso   1.000  H
  C650     1.0000 0.32710  0.94550  0.54330  Biso   1.000  C
  H578     1.0000 0.32260  0.91600  0.54210  Biso   1.000  H
  C651     1.0000 0.35230  0.96250  0.57420  Biso   1.000  C
  H579     1.0000 0.36480  0.94460  0.59450  Biso   1.000  H
  C652     1.0000 0.35960  0.00570  0.57610  Biso   1.000  C
  H580     1.0000 0.37730  0.01700  0.59720  Biso   1.000  H
  C653     1.0000 0.34070  0.03200  0.54675  Biso   1.000  C
  H581     1.0000 0.34480  0.06160  0.54800  Biso   1.000  H
  C654     1.0000 0.31601  0.01460  0.51604  Biso   1.000  C
  N292     1.0000 0.28131  0.02725  0.45500  Biso   1.000  N
  C655     1.0000 0.26009  0.05569  0.42959  Biso   1.000  C
  C656     1.0000 0.22839  0.10825  0.40150  Biso   1.000  C
  H582     1.0000 0.21730  0.13560  0.39720  Biso   1.000  H
  C657     1.0000 0.22516  0.07562  0.37363  Biso   1.000  C
  H583     1.0000 0.21170  0.07600  0.34700  Biso   1.000  H
  H584     1.0000 0.24600  0.97970  0.39740  Biso   1.000  H
  N293     1.0000 0.79625  0.54408  0.98778  Biso   1.000  N
  N294     1.0000 0.74984  0.59562  0.93634  Biso   1.000  N
  N295     1.0000 0.74537  0.54241  0.89208  Biso   1.000  N
  C658     1.0000 0.80860  0.47173  0.01382  Biso   1.000  C
  H585     1.0000 0.79110  0.46050  0.99240  Biso   1.000  H
  C659     1.0000 0.82710  0.44550  0.04330  Biso   1.000  C
  H586     1.0000 0.82260  0.41600  0.04210  Biso   1.000  H
  C660     1.0000 0.85230  0.46250  0.07420  Biso   1.000  C
  H587     1.0000 0.86480  0.44460  0.09450  Biso   1.000  H
  C661     1.0000 0.85960  0.50570  0.07610  Biso   1.000  C
  H588     1.0000 0.87730  0.51700  0.09720  Biso   1.000  H
  C662     1.0000 0.84070  0.53200  0.04675  Biso   1.000  C
  H589     1.0000 0.84480  0.56160  0.04800  Biso   1.000  H
  C663     1.0000 0.81601  0.51460  0.01604  Biso   1.000  C
  N296     1.0000 0.78131  0.52725  0.95500  Biso   1.000  N
  C664     1.0000 0.76009  0.55569  0.92959  Biso   1.000  C
  C665     1.0000 0.72839  0.60825  0.90150  Biso   1.000  C
  H590     1.0000 0.71730  0.63560  0.89720  Biso   1.000  H
  C666     1.0000 0.72516  0.57562  0.87363  Biso   1.000  C
  H591     1.0000 0.71170  0.57600  0.84700  Biso   1.000  H
  H592     1.0000 0.74600  0.47970  0.89740  Biso   1.000  H
  N297     1.0000 0.20375  0.95592  0.98778  Biso   1.000  N
  N298     1.0000 0.25016  0.90438  0.93634  Biso   1.000  N
  N299     1.0000 0.25463  0.95759  0.89208  Biso   1.000  N
  C667     1.0000 0.19140  0.02827  0.01382  Biso   1.000  C
  H593     1.0000 0.20890  0.03950  0.99240  Biso   1.000  H
  C668     1.0000 0.17290  0.05450  0.04330  Biso   1.000  C
  H594     1.0000 0.17740  0.08400  0.04210  Biso   1.000  H
  C669     1.0000 0.14770  0.03750  0.07420  Biso   1.000  C
  H595     1.0000 0.13520  0.05540  0.09450  Biso   1.000  H
  C670     1.0000 0.14040  0.99430  0.07610  Biso   1.000  C
  H596     1.0000 0.12270  0.98300  0.09720  Biso   1.000  H
  C671     1.0000 0.15930  0.96800  0.04675  Biso   1.000  C
  H597     1.0000 0.15520  0.93840  0.04800  Biso   1.000  H
  C672     1.0000 0.18399  0.98540  0.01604  Biso   1.000  C
  N300     1.0000 0.21869  0.97275  0.95500  Biso   1.000  N
  C673     1.0000 0.23991  0.94431  0.92959  Biso   1.000  C
  C674     1.0000 0.27161  0.89175  0.90150  Biso   1.000  C
  H598     1.0000 0.28270  0.86440  0.89720  Biso   1.000  H
  C675     1.0000 0.27484  0.92438  0.87363  Biso   1.000  C
  H599     1.0000 0.28830  0.92400  0.84700  Biso   1.000  H
  H600     1.0000 0.25400  0.02030  0.89740  Biso   1.000  H
  N301     1.0000 0.70375  0.45592  0.48778  Biso   1.000  N
  N302     1.0000 0.75016  0.40438  0.43634  Biso   1.000  N
  N303     1.0000 0.75463  0.45759  0.39208  Biso   1.000  N
  C676     1.0000 0.69140  0.52827  0.51382  Biso   1.000  C
  H601     1.0000 0.70890  0.53950  0.49240  Biso   1.000  H
  C677     1.0000 0.67290  0.55450  0.54330  Biso   1.000  C
  H602     1.0000 0.67740  0.58400  0.54210  Biso   1.000  H
  C678     1.0000 0.64770  0.53750  0.57420  Biso   1.000  C
  H603     1.0000 0.63520  0.55540  0.59450  Biso   1.000  H
  C679     1.0000 0.64040  0.49430  0.57610  Biso   1.000  C
  H604     1.0000 0.62270  0.48300  0.59720  Biso   1.000  H
  C680     1.0000 0.65930  0.46800  0.54675  Biso   1.000  C
  H605     1.0000 0.65520  0.43840  0.54800  Biso   1.000  H
  C681     1.0000 0.68399  0.48540  0.51604  Biso   1.000  C
  N304     1.0000 0.71869  0.47275  0.45500  Biso   1.000  N
  C682     1.0000 0.73991  0.44431  0.42959  Biso   1.000  C
  C683     1.0000 0.77161  0.39175  0.40150  Biso   1.000  C
  H606     1.0000 0.78270  0.36440  0.39720  Biso   1.000  H
  C684     1.0000 0.77484  0.42438  0.37363  Biso   1.000  C
  H607     1.0000 0.78830  0.42400  0.34700  Biso   1.000  H
  H608     1.0000 0.75400  0.52030  0.39740  Biso   1.000  H
  N305     1.0000 0.79625  0.45592  0.51222  Biso   1.000  N
  N306     1.0000 0.74984  0.40438  0.56366  Biso   1.000  N
  N307     1.0000 0.74537  0.45759  0.60792  Biso   1.000  N
  C685     1.0000 0.80860  0.52827  0.48618  Biso   1.000  C
  H609     1.0000 0.79110  0.53950  0.50760  Biso   1.000  H
  C686     1.0000 0.82710  0.55450  0.45670  Biso   1.000  C
  H610     1.0000 0.82260  0.58400  0.45790  Biso   1.000  H
  C687     1.0000 0.85230  0.53750  0.42580  Biso   1.000  C
  H611     1.0000 0.86480  0.55540  0.40550  Biso   1.000  H
  C688     1.0000 0.85960  0.49430  0.42390  Biso   1.000  C
  H612     1.0000 0.87730  0.48300  0.40280  Biso   1.000  H
  C689     1.0000 0.84070  0.46800  0.45325  Biso   1.000  C
  H613     1.0000 0.84480  0.43840  0.45200  Biso   1.000  H
  C690     1.0000 0.81601  0.48540  0.48396  Biso   1.000  C
  N308     1.0000 0.78131  0.47275  0.54500  Biso   1.000  N
  C691     1.0000 0.76009  0.44431  0.57041  Biso   1.000  C
  C692     1.0000 0.72839  0.39175  0.59850  Biso   1.000  C
  H614     1.0000 0.71730  0.36440  0.60280  Biso   1.000  H
  C693     1.0000 0.72516  0.42438  0.62637  Biso   1.000  C
  H615     1.0000 0.71170  0.42400  0.65300  Biso   1.000  H
  H616     1.0000 0.74600  0.52030  0.60260  Biso   1.000  H
  N309     1.0000 0.29625  0.95592  0.01222  Biso   1.000  N
  N310     1.0000 0.24984  0.90438  0.06366  Biso   1.000  N
  N311     1.0000 0.24537  0.95759  0.10792  Biso   1.000  N
  C694     1.0000 0.30860  0.02827  0.98618  Biso   1.000  C
  H617     1.0000 0.29110  0.03950  0.00760  Biso   1.000  H
  C695     1.0000 0.32710  0.05450  0.95670  Biso   1.000  C
  H618     1.0000 0.32260  0.08400  0.95790  Biso   1.000  H
  C696     1.0000 0.35230  0.03750  0.92580  Biso   1.000  C
  H619     1.0000 0.36480  0.05540  0.90550  Biso   1.000  H
  C697     1.0000 0.35960  0.99430  0.92390  Biso   1.000  C
  H620     1.0000 0.37730  0.98300  0.90280  Biso   1.000  H
  C698     1.0000 0.34070  0.96800  0.95325  Biso   1.000  C
  H621     1.0000 0.34480  0.93840  0.95200  Biso   1.000  H
  C699     1.0000 0.31601  0.98540  0.98396  Biso   1.000  C
  N312     1.0000 0.28131  0.97275  0.04500  Biso   1.000  N
  C700     1.0000 0.26009  0.94431  0.07041  Biso   1.000  C
  C701     1.0000 0.22839  0.89175  0.09850  Biso   1.000  C
  H622     1.0000 0.21730  0.86440  0.10280  Biso   1.000  H
  C702     1.0000 0.22516  0.92438  0.12637  Biso   1.000  C
  H623     1.0000 0.21170  0.92400  0.15300  Biso   1.000  H
  H624     1.0000 0.24600  0.02030  0.10260  Biso   1.000  H
  N313     1.0000 0.70375  0.54408  0.01222  Biso   1.000  N
  N314     1.0000 0.75016  0.59562  0.06366  Biso   1.000  N
  N315     1.0000 0.75463  0.54241  0.10792  Biso   1.000  N
  C703     1.0000 0.69140  0.47173  0.98618  Biso   1.000  C
  H625     1.0000 0.70890  0.46050  0.00760  Biso   1.000  H
  C704     1.0000 0.67290  0.44550  0.95670  Biso   1.000  C
  H626     1.0000 0.67740  0.41600  0.95790  Biso   1.000  H
  C705     1.0000 0.64770  0.46250  0.92580  Biso   1.000  C
  H627     1.0000 0.63520  0.44460  0.90550  Biso   1.000  H
  C706     1.0000 0.64040  0.50570  0.92390  Biso   1.000  C
  H628     1.0000 0.62270  0.51700  0.90280  Biso   1.000  H
  C707     1.0000 0.65930  0.53200  0.95325  Biso   1.000  C
  H629     1.0000 0.65520  0.56160  0.95200  Biso   1.000  H
  C708     1.0000 0.68399  0.51460  0.98396  Biso   1.000  C
  N316     1.0000 0.71869  0.52725  0.04500  Biso   1.000  N
  C709     1.0000 0.73991  0.55569  0.07041  Biso   1.000  C
  C710     1.0000 0.77161  0.60825  0.09850  Biso   1.000  C
  H630     1.0000 0.78270  0.63560  0.10280  Biso   1.000  H
  C711     1.0000 0.77484  0.57562  0.12637  Biso   1.000  C
  H631     1.0000 0.78830  0.57600  0.15300  Biso   1.000  H
  H632     1.0000 0.75400  0.47970  0.10260  Biso   1.000  H
  N317     1.0000 0.20375  0.04408  0.51222  Biso   1.000  N
  N318     1.0000 0.25016  0.09562  0.56366  Biso   1.000  N
  N319     1.0000 0.25463  0.04241  0.60792  Biso   1.000  N
  C712     1.0000 0.19140  0.97173  0.48618  Biso   1.000  C
  H633     1.0000 0.20890  0.96050  0.50760  Biso   1.000  H
  C713     1.0000 0.17290  0.94550  0.45670  Biso   1.000  C
  H634     1.0000 0.17740  0.91600  0.45790  Biso   1.000  H
  C714     1.0000 0.14770  0.96250  0.42580  Biso   1.000  C
  H635     1.0000 0.13520  0.94460  0.40550  Biso   1.000  H
  C715     1.0000 0.14040  0.00570  0.42390  Biso   1.000  C
  H636     1.0000 0.12270  0.01700  0.40280  Biso   1.000  H
  C716     1.0000 0.15930  0.03200  0.45325  Biso   1.000  C
  H637     1.0000 0.15520  0.06160  0.45200  Biso   1.000  H
  C717     1.0000 0.18399  0.01460  0.48396  Biso   1.000  C
  N320     1.0000 0.21869  0.02725  0.54500  Biso   1.000  N
  C718     1.0000 0.23991  0.05569  0.57041  Biso   1.000  C
  C719     1.0000 0.27161  0.10825  0.59850  Biso   1.000  C
  H638     1.0000 0.28270  0.13560  0.60280  Biso   1.000  H
  C720     1.0000 0.27484  0.07562  0.62637  Biso   1.000  C
  H639     1.0000 0.28830  0.07600  0.65300  Biso   1.000  H
  H640     1.0000 0.25400  0.97970  0.60260  Biso   1.000  H
  N321     1.0000 0.54408  0.01222  0.70375  Biso   1.000  N
  N322     1.0000 0.59562  0.06366  0.75016  Biso   1.000  N
  N323     1.0000 0.54241  0.10792  0.75463  Biso   1.000  N
  C721     1.0000 0.47173  0.98618  0.69140  Biso   1.000  C
  H641     1.0000 0.46050  0.00760  0.70890  Biso   1.000  H
  C722     1.0000 0.44550  0.95670  0.67290  Biso   1.000  C
  H642     1.0000 0.41600  0.95790  0.67740  Biso   1.000  H
  C723     1.0000 0.46250  0.92580  0.64770  Biso   1.000  C
  H643     1.0000 0.44460  0.90550  0.63520  Biso   1.000  H
  C724     1.0000 0.50570  0.92390  0.64040  Biso   1.000  C
  H644     1.0000 0.51700  0.90280  0.62270  Biso   1.000  H
  C725     1.0000 0.53200  0.95325  0.65930  Biso   1.000  C
  H645     1.0000 0.56160  0.95200  0.65520  Biso   1.000  H
  C726     1.0000 0.51460  0.98396  0.68399  Biso   1.000  C
  N324     1.0000 0.52725  0.04500  0.71869  Biso   1.000  N
  C727     1.0000 0.55569  0.07041  0.73991  Biso   1.000  C
  C728     1.0000 0.60825  0.09850  0.77161  Biso   1.000  C
  H646     1.0000 0.63560  0.10280  0.78270  Biso   1.000  H
  C729     1.0000 0.57562  0.12637  0.77484  Biso   1.000  C
  H647     1.0000 0.57600  0.15300  0.78830  Biso   1.000  H
  H648     1.0000 0.47970  0.10260  0.75400  Biso   1.000  H
  N325     1.0000 0.04408  0.51222  0.20375  Biso   1.000  N
  N326     1.0000 0.09562  0.56366  0.25016  Biso   1.000  N
  N327     1.0000 0.04241  0.60792  0.25463  Biso   1.000  N
  C730     1.0000 0.97173  0.48618  0.19140  Biso   1.000  C
  H649     1.0000 0.96050  0.50760  0.20890  Biso   1.000  H
  C731     1.0000 0.94550  0.45670  0.17290  Biso   1.000  C
  H650     1.0000 0.91600  0.45790  0.17740  Biso   1.000  H
  C732     1.0000 0.96250  0.42580  0.14770  Biso   1.000  C
  H651     1.0000 0.94460  0.40550  0.13520  Biso   1.000  H
  C733     1.0000 0.00570  0.42390  0.14040  Biso   1.000  C
  H652     1.0000 0.01700  0.40280  0.12270  Biso   1.000  H
  C734     1.0000 0.03200  0.45325  0.15930  Biso   1.000  C
  H653     1.0000 0.06160  0.45200  0.15520  Biso   1.000  H
  C735     1.0000 0.01460  0.48396  0.18399  Biso   1.000  C
  N328     1.0000 0.02725  0.54500  0.21869  Biso   1.000  N
  C736     1.0000 0.05569  0.57041  0.23991  Biso   1.000  C
  C737     1.0000 0.10825  0.59850  0.27161  Biso   1.000  C
  H654     1.0000 0.13560  0.60280  0.28270  Biso   1.000  H
  C738     1.0000 0.07562  0.62637  0.27484  Biso   1.000  C
  H655     1.0000 0.07600  0.65300  0.28830  Biso   1.000  H
  H656     1.0000 0.97970  0.60260  0.25400  Biso   1.000  H
  N329     1.0000 0.45592  0.51222  0.79625  Biso   1.000  N
  N330     1.0000 0.40438  0.56366  0.74984  Biso   1.000  N
  N331     1.0000 0.45759  0.60792  0.74537  Biso   1.000  N
  C739     1.0000 0.52827  0.48618  0.80860  Biso   1.000  C
  H657     1.0000 0.53950  0.50760  0.79110  Biso   1.000  H
  C740     1.0000 0.55450  0.45670  0.82710  Biso   1.000  C
  H658     1.0000 0.58400  0.45790  0.82260  Biso   1.000  H
  C741     1.0000 0.53750  0.42580  0.85230  Biso   1.000  C
  H659     1.0000 0.55540  0.40550  0.86480  Biso   1.000  H
  C742     1.0000 0.49430  0.42390  0.85960  Biso   1.000  C
  H660     1.0000 0.48300  0.40280  0.87730  Biso   1.000  H
  C743     1.0000 0.46800  0.45325  0.84070  Biso   1.000  C
  H661     1.0000 0.43840  0.45200  0.84480  Biso   1.000  H
  C744     1.0000 0.48540  0.48396  0.81601  Biso   1.000  C
  N332     1.0000 0.47275  0.54500  0.78131  Biso   1.000  N
  C745     1.0000 0.44431  0.57041  0.76009  Biso   1.000  C
  C746     1.0000 0.39175  0.59850  0.72839  Biso   1.000  C
  H662     1.0000 0.36440  0.60280  0.71730  Biso   1.000  H
  C747     1.0000 0.42438  0.62637  0.72516  Biso   1.000  C
  H663     1.0000 0.42400  0.65300  0.71170  Biso   1.000  H
  H664     1.0000 0.52030  0.60260  0.74600  Biso   1.000  H
  N333     1.0000 0.95592  0.01222  0.29625  Biso   1.000  N
  N334     1.0000 0.90438  0.06366  0.24984  Biso   1.000  N
  N335     1.0000 0.95759  0.10792  0.24537  Biso   1.000  N
  C748     1.0000 0.02827  0.98618  0.30860  Biso   1.000  C
  H665     1.0000 0.03950  0.00760  0.29110  Biso   1.000  H
  C749     1.0000 0.05450  0.95670  0.32710  Biso   1.000  C
  H666     1.0000 0.08400  0.95790  0.32260  Biso   1.000  H
  C750     1.0000 0.03750  0.92580  0.35230  Biso   1.000  C
  H667     1.0000 0.05540  0.90550  0.36480  Biso   1.000  H
  C751     1.0000 0.99430  0.92390  0.35960  Biso   1.000  C
  H668     1.0000 0.98300  0.90280  0.37730  Biso   1.000  H
  C752     1.0000 0.96800  0.95325  0.34070  Biso   1.000  C
  H669     1.0000 0.93840  0.95200  0.34480  Biso   1.000  H
  C753     1.0000 0.98540  0.98396  0.31601  Biso   1.000  C
  N336     1.0000 0.97275  0.04500  0.28131  Biso   1.000  N
  C754     1.0000 0.94431  0.07041  0.26009  Biso   1.000  C
  C755     1.0000 0.89175  0.09850  0.22839  Biso   1.000  C
  H670     1.0000 0.86440  0.10280  0.21730  Biso   1.000  H
  C756     1.0000 0.92438  0.12637  0.22516  Biso   1.000  C
  H671     1.0000 0.92400  0.15300  0.21170  Biso   1.000  H
  H672     1.0000 0.02030  0.10260  0.24600  Biso   1.000  H
  N337     1.0000 0.95592  0.98778  0.20375  Biso   1.000  N
  N338     1.0000 0.90438  0.93634  0.25016  Biso   1.000  N
  N339     1.0000 0.95759  0.89208  0.25463  Biso   1.000  N
  C757     1.0000 0.02827  0.01382  0.19140  Biso   1.000  C
  H673     1.0000 0.03950  0.99240  0.20890  Biso   1.000  H
  C758     1.0000 0.05450  0.04330  0.17290  Biso   1.000  C
  H674     1.0000 0.08400  0.04210  0.17740  Biso   1.000  H
  C759     1.0000 0.03750  0.07420  0.14770  Biso   1.000  C
  H675     1.0000 0.05540  0.09450  0.13520  Biso   1.000  H
  C760     1.0000 0.99430  0.07610  0.14040  Biso   1.000  C
  H676     1.0000 0.98300  0.09720  0.12270  Biso   1.000  H
  C761     1.0000 0.96800  0.04675  0.15930  Biso   1.000  C
  H677     1.0000 0.93840  0.04800  0.15520  Biso   1.000  H
  C762     1.0000 0.98540  0.01604  0.18399  Biso   1.000  C
  N340     1.0000 0.97275  0.95500  0.21869  Biso   1.000  N
  C763     1.0000 0.94431  0.92959  0.23991  Biso   1.000  C
  C764     1.0000 0.89175  0.90150  0.27161  Biso   1.000  C
  H678     1.0000 0.86440  0.89720  0.28270  Biso   1.000  H
  C765     1.0000 0.92438  0.87363  0.27484  Biso   1.000  C
  H679     1.0000 0.92400  0.84700  0.28830  Biso   1.000  H
  H680     1.0000 0.02030  0.89740  0.25400  Biso   1.000  H
  N341     1.0000 0.45592  0.48778  0.70375  Biso   1.000  N
  N342     1.0000 0.40438  0.43634  0.75016  Biso   1.000  N
  N343     1.0000 0.45759  0.39208  0.75463  Biso   1.000  N
  C766     1.0000 0.52827  0.51382  0.69140  Biso   1.000  C
  H681     1.0000 0.53950  0.49240  0.70890  Biso   1.000  H
  C767     1.0000 0.55450  0.54330  0.67290  Biso   1.000  C
  H682     1.0000 0.58400  0.54210  0.67740  Biso   1.000  H
  C768     1.0000 0.53750  0.57420  0.64770  Biso   1.000  C
  H683     1.0000 0.55540  0.59450  0.63520  Biso   1.000  H
  C769     1.0000 0.49430  0.57610  0.64040  Biso   1.000  C
  H684     1.0000 0.48300  0.59720  0.62270  Biso   1.000  H
  C770     1.0000 0.46800  0.54675  0.65930  Biso   1.000  C
  H685     1.0000 0.43840  0.54800  0.65520  Biso   1.000  H
  C771     1.0000 0.48540  0.51604  0.68399  Biso   1.000  C
  N344     1.0000 0.47275  0.45500  0.71869  Biso   1.000  N
  C772     1.0000 0.44431  0.42959  0.73991  Biso   1.000  C
  C773     1.0000 0.39175  0.40150  0.77161  Biso   1.000  C
  H686     1.0000 0.36440  0.39720  0.78270  Biso   1.000  H
  C774     1.0000 0.42438  0.37363  0.77484  Biso   1.000  C
  H687     1.0000 0.42400  0.34700  0.78830  Biso   1.000  H
  H688     1.0000 0.52030  0.39740  0.75400  Biso   1.000  H
  N345     1.0000 0.04408  0.48778  0.29625  Biso   1.000  N
  N346     1.0000 0.09562  0.43634  0.24984  Biso   1.000  N
  N347     1.0000 0.04241  0.39208  0.24537  Biso   1.000  N
  C775     1.0000 0.97173  0.51382  0.30860  Biso   1.000  C
  H689     1.0000 0.96050  0.49240  0.29110  Biso   1.000  H
  C776     1.0000 0.94550  0.54330  0.32710  Biso   1.000  C
  H690     1.0000 0.91600  0.54210  0.32260  Biso   1.000  H
  C777     1.0000 0.96250  0.57420  0.35230  Biso   1.000  C
  H691     1.0000 0.94460  0.59450  0.36480  Biso   1.000  H
  C778     1.0000 0.00570  0.57610  0.35960  Biso   1.000  C
  H692     1.0000 0.01700  0.59720  0.37730  Biso   1.000  H
  C779     1.0000 0.03200  0.54675  0.34070  Biso   1.000  C
  H693     1.0000 0.06160  0.54800  0.34480  Biso   1.000  H
  C780     1.0000 0.01460  0.51604  0.31601  Biso   1.000  C
  N348     1.0000 0.02725  0.45500  0.28131  Biso   1.000  N
  C781     1.0000 0.05569  0.42959  0.26009  Biso   1.000  C
  C782     1.0000 0.10825  0.40150  0.22839  Biso   1.000  C
  H694     1.0000 0.13560  0.39720  0.21730  Biso   1.000  H
  C783     1.0000 0.07562  0.37363  0.22516  Biso   1.000  C
  H695     1.0000 0.07600  0.34700  0.21170  Biso   1.000  H
  H696     1.0000 0.97970  0.39740  0.24600  Biso   1.000  H
  N349     1.0000 0.54408  0.98778  0.79625  Biso   1.000  N
  N350     1.0000 0.59562  0.93634  0.74984  Biso   1.000  N
  N351     1.0000 0.54241  0.89208  0.74537  Biso   1.000  N
  C784     1.0000 0.47173  0.01382  0.80860  Biso   1.000  C
  H697     1.0000 0.46050  0.99240  0.79110  Biso   1.000  H
  C785     1.0000 0.44550  0.04330  0.82710  Biso   1.000  C
  H698     1.0000 0.41600  0.04210  0.82260  Biso   1.000  H
  C786     1.0000 0.46250  0.07420  0.85230  Biso   1.000  C
  H699     1.0000 0.44460  0.09450  0.86480  Biso   1.000  H
  C787     1.0000 0.50570  0.07610  0.85960  Biso   1.000  C
  H700     1.0000 0.51700  0.09720  0.87730  Biso   1.000  H
  C788     1.0000 0.53200  0.04675  0.84070  Biso   1.000  C
  H701     1.0000 0.56160  0.04800  0.84480  Biso   1.000  H
  C789     1.0000 0.51460  0.01604  0.81601  Biso   1.000  C
  N352     1.0000 0.52725  0.95500  0.78131  Biso   1.000  N
  C790     1.0000 0.55569  0.92959  0.76009  Biso   1.000  C
  C791     1.0000 0.60825  0.90150  0.72839  Biso   1.000  C
  H702     1.0000 0.63560  0.89720  0.71730  Biso   1.000  H
  C792     1.0000 0.57562  0.87363  0.72516  Biso   1.000  C
  H703     1.0000 0.57600  0.84700  0.71170  Biso   1.000  H
  H704     1.0000 0.47970  0.89740  0.74600  Biso   1.000  H
  N353     1.0000 0.51222  0.79625  0.45592  Biso   1.000  N
  N354     1.0000 0.56366  0.74984  0.40438  Biso   1.000  N
  N355     1.0000 0.60792  0.74537  0.45759  Biso   1.000  N
  C793     1.0000 0.48618  0.80860  0.52827  Biso   1.000  C
  H705     1.0000 0.50760  0.79110  0.53950  Biso   1.000  H
  C794     1.0000 0.45670  0.82710  0.55450  Biso   1.000  C
  H706     1.0000 0.45790  0.82260  0.58400  Biso   1.000  H
  C795     1.0000 0.42580  0.85230  0.53750  Biso   1.000  C
  H707     1.0000 0.40550  0.86480  0.55540  Biso   1.000  H
  C796     1.0000 0.42390  0.85960  0.49430  Biso   1.000  C
  H708     1.0000 0.40280  0.87730  0.48300  Biso   1.000  H
  C797     1.0000 0.45325  0.84070  0.46800  Biso   1.000  C
  H709     1.0000 0.45200  0.84480  0.43840  Biso   1.000  H
  C798     1.0000 0.48396  0.81601  0.48540  Biso   1.000  C
  N356     1.0000 0.54500  0.78131  0.47275  Biso   1.000  N
  C799     1.0000 0.57041  0.76009  0.44431  Biso   1.000  C
  C800     1.0000 0.59850  0.72839  0.39175  Biso   1.000  C
  H710     1.0000 0.60280  0.71730  0.36440  Biso   1.000  H
  C801     1.0000 0.62637  0.72516  0.42438  Biso   1.000  C
  H711     1.0000 0.65300  0.71170  0.42400  Biso   1.000  H
  H712     1.0000 0.60260  0.74600  0.52030  Biso   1.000  H
  N357     1.0000 0.01222  0.29625  0.95592  Biso   1.000  N
  N358     1.0000 0.06366  0.24984  0.90438  Biso   1.000  N
  N359     1.0000 0.10792  0.24537  0.95759  Biso   1.000  N
  C802     1.0000 0.98618  0.30860  0.02827  Biso   1.000  C
  H713     1.0000 0.00760  0.29110  0.03950  Biso   1.000  H
  C803     1.0000 0.95670  0.32710  0.05450  Biso   1.000  C
  H714     1.0000 0.95790  0.32260  0.08400  Biso   1.000  H
  C804     1.0000 0.92580  0.35230  0.03750  Biso   1.000  C
  H715     1.0000 0.90550  0.36480  0.05540  Biso   1.000  H
  C805     1.0000 0.92390  0.35960  0.99430  Biso   1.000  C
  H716     1.0000 0.90280  0.37730  0.98300  Biso   1.000  H
  C806     1.0000 0.95325  0.34070  0.96800  Biso   1.000  C
  H717     1.0000 0.95200  0.34480  0.93840  Biso   1.000  H
  C807     1.0000 0.98396  0.31601  0.98540  Biso   1.000  C
  N360     1.0000 0.04500  0.28131  0.97275  Biso   1.000  N
  C808     1.0000 0.07041  0.26009  0.94431  Biso   1.000  C
  C809     1.0000 0.09850  0.22839  0.89175  Biso   1.000  C
  H718     1.0000 0.10280  0.21730  0.86440  Biso   1.000  H
  C810     1.0000 0.12637  0.22516  0.92438  Biso   1.000  C
  H719     1.0000 0.15300  0.21170  0.92400  Biso   1.000  H
  H720     1.0000 0.10260  0.24600  0.02030  Biso   1.000  H
  N361     1.0000 0.01222  0.70375  0.54408  Biso   1.000  N
  N362     1.0000 0.06366  0.75016  0.59562  Biso   1.000  N
  N363     1.0000 0.10792  0.75463  0.54241  Biso   1.000  N
  C811     1.0000 0.98618  0.69140  0.47173  Biso   1.000  C
  H721     1.0000 0.00760  0.70890  0.46050  Biso   1.000  H
  C812     1.0000 0.95670  0.67290  0.44550  Biso   1.000  C
  H722     1.0000 0.95790  0.67740  0.41600  Biso   1.000  H
  C813     1.0000 0.92580  0.64770  0.46250  Biso   1.000  C
  H723     1.0000 0.90550  0.63520  0.44460  Biso   1.000  H
  C814     1.0000 0.92390  0.64040  0.50570  Biso   1.000  C
  H724     1.0000 0.90280  0.62270  0.51700  Biso   1.000  H
  C815     1.0000 0.95325  0.65930  0.53200  Biso   1.000  C
  H725     1.0000 0.95200  0.65520  0.56160  Biso   1.000  H
  C816     1.0000 0.98396  0.68399  0.51460  Biso   1.000  C
  N364     1.0000 0.04500  0.71869  0.52725  Biso   1.000  N
  C817     1.0000 0.07041  0.73991  0.55569  Biso   1.000  C
  C818     1.0000 0.09850  0.77161  0.60825  Biso   1.000  C
  H726     1.0000 0.10280  0.78270  0.63560  Biso   1.000  H
  C819     1.0000 0.12637  0.77484  0.57562  Biso   1.000  C
  H727     1.0000 0.15300  0.78830  0.57600  Biso   1.000  H
  H728     1.0000 0.10260  0.75400  0.47970  Biso   1.000  H
  N365     1.0000 0.51222  0.20375  0.04408  Biso   1.000  N
  N366     1.0000 0.56366  0.25016  0.09562  Biso   1.000  N
  N367     1.0000 0.60792  0.25463  0.04241  Biso   1.000  N
  C820     1.0000 0.48618  0.19140  0.97173  Biso   1.000  C
  H729     1.0000 0.50760  0.20890  0.96050  Biso   1.000  H
  C821     1.0000 0.45670  0.17290  0.94550  Biso   1.000  C
  H730     1.0000 0.45790  0.17740  0.91600  Biso   1.000  H
  C822     1.0000 0.42580  0.14770  0.96250  Biso   1.000  C
  H731     1.0000 0.40550  0.13520  0.94460  Biso   1.000  H
  C823     1.0000 0.42390  0.14040  0.00570  Biso   1.000  C
  H732     1.0000 0.40280  0.12270  0.01700  Biso   1.000  H
  C824     1.0000 0.45325  0.15930  0.03200  Biso   1.000  C
  H733     1.0000 0.45200  0.15520  0.06160  Biso   1.000  H
  C825     1.0000 0.48396  0.18399  0.01460  Biso   1.000  C
  N368     1.0000 0.54500  0.21869  0.02725  Biso   1.000  N
  C826     1.0000 0.57041  0.23991  0.05569  Biso   1.000  C
  C827     1.0000 0.59850  0.27161  0.10825  Biso   1.000  C
  H734     1.0000 0.60280  0.28270  0.13560  Biso   1.000  H
  C828     1.0000 0.62637  0.27484  0.07562  Biso   1.000  C
  H735     1.0000 0.65300  0.28830  0.07600  Biso   1.000  H
  H736     1.0000 0.60260  0.25400  0.97970  Biso   1.000  H
  N369     1.0000 0.48778  0.29625  0.04408  Biso   1.000  N
  N370     1.0000 0.43634  0.24984  0.09562  Biso   1.000  N
  N371     1.0000 0.39208  0.24537  0.04241  Biso   1.000  N
  C829     1.0000 0.51382  0.30860  0.97173  Biso   1.000  C
  H737     1.0000 0.49240  0.29110  0.96050  Biso   1.000  H
  C830     1.0000 0.54330  0.32710  0.94550  Biso   1.000  C
  H738     1.0000 0.54210  0.32260  0.91600  Biso   1.000  H
  C831     1.0000 0.57420  0.35230  0.96250  Biso   1.000  C
  H739     1.0000 0.59450  0.36480  0.94460  Biso   1.000  H
  C832     1.0000 0.57610  0.35960  0.00570  Biso   1.000  C
  H740     1.0000 0.59720  0.37730  0.01700  Biso   1.000  H
  C833     1.0000 0.54675  0.34070  0.03200  Biso   1.000  C
  H741     1.0000 0.54800  0.34480  0.06160  Biso   1.000  H
  C834     1.0000 0.51604  0.31601  0.01460  Biso   1.000  C
  N372     1.0000 0.45500  0.28131  0.02725  Biso   1.000  N
  C835     1.0000 0.42959  0.26009  0.05569  Biso   1.000  C
  C836     1.0000 0.40150  0.22839  0.10825  Biso   1.000  C
  H742     1.0000 0.39720  0.21730  0.13560  Biso   1.000  H
  C837     1.0000 0.37363  0.22516  0.07562  Biso   1.000  C
  H743     1.0000 0.34700  0.21170  0.07600  Biso   1.000  H
  H744     1.0000 0.39740  0.24600  0.97970  Biso   1.000  H
  N373     1.0000 0.98778  0.79625  0.54408  Biso   1.000  N
  N374     1.0000 0.93634  0.74984  0.59562  Biso   1.000  N
  N375     1.0000 0.89208  0.74537  0.54241  Biso   1.000  N
  C838     1.0000 0.01382  0.80860  0.47173  Biso   1.000  C
  H745     1.0000 0.99240  0.79110  0.46050  Biso   1.000  H
  C839     1.0000 0.04330  0.82710  0.44550  Biso   1.000  C
  H746     1.0000 0.04210  0.82260  0.41600  Biso   1.000  H
  C840     1.0000 0.07420  0.85230  0.46250  Biso   1.000  C
  H747     1.0000 0.09450  0.86480  0.44460  Biso   1.000  H
  C841     1.0000 0.07610  0.85960  0.50570  Biso   1.000  C
  H748     1.0000 0.09720  0.87730  0.51700  Biso   1.000  H
  C842     1.0000 0.04675  0.84070  0.53200  Biso   1.000  C
  H749     1.0000 0.04800  0.84480  0.56160  Biso   1.000  H
  C843     1.0000 0.01604  0.81601  0.51460  Biso   1.000  C
  N376     1.0000 0.95500  0.78131  0.52725  Biso   1.000  N
  C844     1.0000 0.92959  0.76009  0.55569  Biso   1.000  C
  C845     1.0000 0.90150  0.72839  0.60825  Biso   1.000  C
  H750     1.0000 0.89720  0.71730  0.63560  Biso   1.000  H
  C846     1.0000 0.87363  0.72516  0.57562  Biso   1.000  C
  H751     1.0000 0.84700  0.71170  0.57600  Biso   1.000  H
  H752     1.0000 0.89740  0.74600  0.47970  Biso   1.000  H
  N377     1.0000 0.98778  0.20375  0.95592  Biso   1.000  N
  N378     1.0000 0.93634  0.25016  0.90438  Biso   1.000  N
  N379     1.0000 0.89208  0.25463  0.95759  Biso   1.000  N
  C847     1.0000 0.01382  0.19140  0.02827  Biso   1.000  C
  H753     1.0000 0.99240  0.20890  0.03950  Biso   1.000  H
  C848     1.0000 0.04330  0.17290  0.05450  Biso   1.000  C
  H754     1.0000 0.04210  0.17740  0.08400  Biso   1.000  H
  C849     1.0000 0.07420  0.14770  0.03750  Biso   1.000  C
  H755     1.0000 0.09450  0.13520  0.05540  Biso   1.000  H
  C850     1.0000 0.07610  0.14040  0.99430  Biso   1.000  C
  H756     1.0000 0.09720  0.12270  0.98300  Biso   1.000  H
  C851     1.0000 0.04675  0.15930  0.96800  Biso   1.000  C
  H757     1.0000 0.04800  0.15520  0.93840  Biso   1.000  H
  C852     1.0000 0.01604  0.18399  0.98540  Biso   1.000  C
  N380     1.0000 0.95500  0.21869  0.97275  Biso   1.000  N
  C853     1.0000 0.92959  0.23991  0.94431  Biso   1.000  C
  C854     1.0000 0.90150  0.27161  0.89175  Biso   1.000  C
  H758     1.0000 0.89720  0.28270  0.86440  Biso   1.000  H
  C855     1.0000 0.87363  0.27484  0.92438  Biso   1.000  C
  H759     1.0000 0.84700  0.28830  0.92400  Biso   1.000  H
  H760     1.0000 0.89740  0.25400  0.02030  Biso   1.000  H
  N381     1.0000 0.48778  0.70375  0.45592  Biso   1.000  N
  N382     1.0000 0.43634  0.75016  0.40438  Biso   1.000  N
  N383     1.0000 0.39208  0.75463  0.45759  Biso   1.000  N
  C856     1.0000 0.51382  0.69140  0.52827  Biso   1.000  C
  H761     1.0000 0.49240  0.70890  0.53950  Biso   1.000  H
  C857     1.0000 0.54330  0.67290  0.55450  Biso   1.000  C
  H762     1.0000 0.54210  0.67740  0.58400  Biso   1.000  H
  C858     1.0000 0.57420  0.64770  0.53750  Biso   1.000  C
  H763     1.0000 0.59450  0.63520  0.55540  Biso   1.000  H
  C859     1.0000 0.57610  0.64040  0.49430  Biso   1.000  C
  H764     1.0000 0.59720  0.62270  0.48300  Biso   1.000  H
  C860     1.0000 0.54675  0.65930  0.46800  Biso   1.000  C
  H765     1.0000 0.54800  0.65520  0.43840  Biso   1.000  H
  C861     1.0000 0.51604  0.68399  0.48540  Biso   1.000  C
  N384     1.0000 0.45500  0.71869  0.47275  Biso   1.000  N
  C862     1.0000 0.42959  0.73991  0.44431  Biso   1.000  C
  C863     1.0000 0.40150  0.77161  0.39175  Biso   1.000  C
  H766     1.0000 0.39720  0.78270  0.36440  Biso   1.000  H
  C864     1.0000 0.37363  0.77484  0.42438  Biso   1.000  C
  H767     1.0000 0.34700  0.78830  0.42400  Biso   1.000  H
  H768     1.0000 0.39740  0.75400  0.52030  Biso   1.000  H
  Cd1      1.0000 0.62500  0.00000  0.75000  Biso   1.000  Cd
  Cd2      1.0000 0.87500  0.00000  0.25000  Biso   1.000  Cd
  Cd3      1.0000 0.37500  0.50000  0.75000  Biso   1.000  Cd
  Cd4      1.0000 0.12500  0.50000  0.25000  Biso   1.000  Cd
  Cd5      1.0000 0.75000  0.62500  0.00000  Biso   1.000  Cd
  Cd6      1.0000 0.25000  0.87500  0.00000  Biso   1.000  Cd
  Cd7      1.0000 0.75000  0.37500  0.50000  Biso   1.000  Cd
  Cd8      1.0000 0.25000  0.12500  0.50000  Biso   1.000  Cd
  Cd9      1.0000 0.00000  0.75000  0.62500  Biso   1.000  Cd
  Cd10     1.0000 0.00000  0.25000  0.87500  Biso   1.000  Cd
  Cd11     1.0000 0.50000  0.75000  0.37500  Biso   1.000  Cd
  Cd12     1.0000 0.50000  0.25000  0.12500  Biso   1.000  Cd
  Cd13     1.0000 0.75000  0.87500  0.50000  Biso   1.000  Cd
  Cd14     1.0000 0.75000  0.12500  0.00000  Biso   1.000  Cd
  Cd15     1.0000 0.25000  0.62500  0.50000  Biso   1.000  Cd
  Cd16     1.0000 0.25000  0.37500  0.00000  Biso   1.000  Cd
  Cd17     1.0000 0.37500  0.00000  0.25000  Biso   1.000  Cd
  Cd18     1.0000 0.62500  0.50000  0.25000  Biso   1.000  Cd
  Cd19     1.0000 0.12500  0.00000  0.75000  Biso   1.000  Cd
  Cd20     1.0000 0.87500  0.50000  0.75000  Biso   1.000  Cd
  Cd21     1.0000 0.50000  0.25000  0.62500  Biso   1.000  Cd
  Cd22     1.0000 0.00000  0.25000  0.37500  Biso   1.000  Cd
  Cd23     1.0000 0.50000  0.75000  0.87500  Biso   1.000  Cd
  Cd24     1.0000 0.00000  0.75000  0.12500  Biso   1.000  Cd
  C865     1.0000 0.74919  0.99919  0.62500  Biso   1.000  C
  C866     1.0000 0.24919  0.49919  0.12500  Biso   1.000  C
  C867     1.0000 0.75081  0.00081  0.12500  Biso   1.000  C
  C868     1.0000 0.25081  0.50081  0.62500  Biso   1.000  C
  C869     1.0000 0.25081  0.49919  0.87500  Biso   1.000  C
  C870     1.0000 0.75081  0.99919  0.37500  Biso   1.000  C
  C871     1.0000 0.24919  0.50081  0.37500  Biso   1.000  C
  C872     1.0000 0.74919  0.00081  0.87500  Biso   1.000  C
  C873     1.0000 0.62500  0.74919  0.99919  Biso   1.000  C
  C874     1.0000 0.12500  0.24919  0.49919  Biso   1.000  C
  C875     1.0000 0.12500  0.75081  0.00081  Biso   1.000  C
  C876     1.0000 0.62500  0.25081  0.50081  Biso   1.000  C
  C877     1.0000 0.87500  0.25081  0.49919  Biso   1.000  C
  C878     1.0000 0.37500  0.75081  0.99919  Biso   1.000  C
  C879     1.0000 0.37500  0.24919  0.50081  Biso   1.000  C
  C880     1.0000 0.87500  0.74919  0.00081  Biso   1.000  C
  C881     1.0000 0.99919  0.62500  0.74919  Biso   1.000  C
  C882     1.0000 0.49919  0.12500  0.24919  Biso   1.000  C
  C883     1.0000 0.00081  0.12500  0.75081  Biso   1.000  C
  C884     1.0000 0.50081  0.62500  0.25081  Biso   1.000  C
  C885     1.0000 0.49919  0.87500  0.25081  Biso   1.000  C
  C886     1.0000 0.99919  0.37500  0.75081  Biso   1.000  C
  C887     1.0000 0.50081  0.37500  0.24919  Biso   1.000  C
  C888     1.0000 0.00081  0.87500  0.74919  Biso   1.000  C
  C889     1.0000 0.25081  0.00081  0.37500  Biso   1.000  C
  C890     1.0000 0.75081  0.50081  0.87500  Biso   1.000  C
  C891     1.0000 0.24919  0.99919  0.87500  Biso   1.000  C
  C892     1.0000 0.74919  0.49919  0.37500  Biso   1.000  C
  C893     1.0000 0.74919  0.50081  0.12500  Biso   1.000  C
  C894     1.0000 0.24919  0.00081  0.62500  Biso   1.000  C
  C895     1.0000 0.75081  0.49919  0.62500  Biso   1.000  C
  C896     1.0000 0.25081  0.99919  0.12500  Biso   1.000  C
  C897     1.0000 0.37500  0.25081  0.00081  Biso   1.000  C
  C898     1.0000 0.87500  0.75081  0.50081  Biso   1.000  C
  C899     1.0000 0.87500  0.24919  0.99919  Biso   1.000  C
  C900     1.0000 0.37500  0.74919  0.49919  Biso   1.000  C
  C901     1.0000 0.12500  0.74919  0.50081  Biso   1.000  C
  C902     1.0000 0.62500  0.24919  0.00081  Biso   1.000  C
  C903     1.0000 0.62500  0.75081  0.49919  Biso   1.000  C
  C904     1.0000 0.12500  0.25081  0.99919  Biso   1.000  C
  C905     1.0000 0.00081  0.37500  0.25081  Biso   1.000  C
  C906     1.0000 0.50081  0.87500  0.75081  Biso   1.000  C
  C907     1.0000 0.99919  0.87500  0.24919  Biso   1.000  C
  C908     1.0000 0.49919  0.37500  0.74919  Biso   1.000  C
  C909     1.0000 0.50081  0.12500  0.74919  Biso   1.000  C
  C910     1.0000 0.00081  0.62500  0.24919  Biso   1.000  C
  C911     1.0000 0.49919  0.62500  0.75081  Biso   1.000  C
  C912     1.0000 0.99919  0.12500  0.25081  Biso   1.000  C
