data_image0
_cell_length_a       31.1089
_cell_length_b       31.1089
_cell_length_c       31.1089
_cell_angle_alpha    90
_cell_angle_beta     90
_cell_angle_gamma    90

_symmetry_space_group_name_H-M    "P 1"
_symmetry_int_tables_number       1

loop_
  _symmetry_equiv_pos_as_xyz
  'x, y, z'

loop_
  _atom_site_label
  _atom_site_occupancy
  _atom_site_fract_x
  _atom_site_fract_y
  _atom_site_fract_z
  _atom_site_thermal_displace_type
  _atom_site_B_iso_or_equiv
  _atom_site_type_symbol
  C1       1.0000 0.10020  0.15430  0.31760  Biso   1.000  C
  H1       1.0000 0.08550  0.17610  0.33160  Biso   1.000  H
  C2       1.0000 0.09040  0.14500  0.27470  Biso   1.000  C
  C3       1.0000 0.05720  0.16970  0.25090  Biso   1.000  C
  O1       1.0000 0.04406  0.15394  0.21601  Biso   1.000  O
  O2       1.0000 0.04437  0.20456  0.26769  Biso   1.000  O
  C4       1.0000 0.60020  0.65430  0.81760  Biso   1.000  C
  H2       1.0000 0.58550  0.67610  0.83160  Biso   1.000  H
  C5       1.0000 0.59040  0.64500  0.77470  Biso   1.000  C
  C6       1.0000 0.55720  0.66970  0.75090  Biso   1.000  C
  O3       1.0000 0.54406  0.65394  0.71601  Biso   1.000  O
  O4       1.0000 0.54437  0.70456  0.76769  Biso   1.000  O
  C7       1.0000 0.89980  0.84570  0.31760  Biso   1.000  C
  H3       1.0000 0.91450  0.82390  0.33160  Biso   1.000  H
  C8       1.0000 0.90960  0.85500  0.27470  Biso   1.000  C
  C9       1.0000 0.94280  0.83030  0.25090  Biso   1.000  C
  O5       1.0000 0.95594  0.84606  0.21601  Biso   1.000  O
  O6       1.0000 0.95563  0.79544  0.26769  Biso   1.000  O
  C10      1.0000 0.39980  0.34570  0.81760  Biso   1.000  C
  H4       1.0000 0.41450  0.32390  0.83160  Biso   1.000  H
  C11      1.0000 0.40960  0.35500  0.77470  Biso   1.000  C
  C12      1.0000 0.44280  0.33030  0.75090  Biso   1.000  C
  O7       1.0000 0.45594  0.34606  0.71601  Biso   1.000  O
  O8       1.0000 0.45563  0.29544  0.76769  Biso   1.000  O
  C13      1.0000 0.89980  0.15430  0.68240  Biso   1.000  C
  H5       1.0000 0.91450  0.17610  0.66840  Biso   1.000  H
  C14      1.0000 0.90960  0.14500  0.72530  Biso   1.000  C
  C15      1.0000 0.94280  0.16970  0.74910  Biso   1.000  C
  O9       1.0000 0.95594  0.15394  0.78399  Biso   1.000  O
  O10      1.0000 0.95563  0.20456  0.73231  Biso   1.000  O
  C16      1.0000 0.39980  0.65430  0.18240  Biso   1.000  C
  H6       1.0000 0.41450  0.67610  0.16840  Biso   1.000  H
  C17      1.0000 0.40960  0.64500  0.22530  Biso   1.000  C
  C18      1.0000 0.44280  0.66970  0.24910  Biso   1.000  C
  O11      1.0000 0.45594  0.65394  0.28399  Biso   1.000  O
  O12      1.0000 0.45563  0.70456  0.23231  Biso   1.000  O
  C19      1.0000 0.10020  0.84570  0.68240  Biso   1.000  C
  H7       1.0000 0.08550  0.82390  0.66840  Biso   1.000  H
  C20      1.0000 0.09040  0.85500  0.72530  Biso   1.000  C
  C21      1.0000 0.05720  0.83030  0.74910  Biso   1.000  C
  O13      1.0000 0.04406  0.84606  0.78399  Biso   1.000  O
  O14      1.0000 0.04437  0.79544  0.73231  Biso   1.000  O
  C22      1.0000 0.60020  0.34570  0.18240  Biso   1.000  C
  H8       1.0000 0.58550  0.32390  0.16840  Biso   1.000  H
  C23      1.0000 0.59040  0.35500  0.22530  Biso   1.000  C
  C24      1.0000 0.55720  0.33030  0.24910  Biso   1.000  C
  O15      1.0000 0.54406  0.34606  0.28399  Biso   1.000  O
  O16      1.0000 0.54437  0.29544  0.23231  Biso   1.000  O
  C25      1.0000 0.31760  0.10020  0.15430  Biso   1.000  C
  H9       1.0000 0.33160  0.08550  0.17610  Biso   1.000  H
  C26      1.0000 0.27470  0.09040  0.14500  Biso   1.000  C
  C27      1.0000 0.25090  0.05720  0.16970  Biso   1.000  C
  O17      1.0000 0.21601  0.04406  0.15394  Biso   1.000  O
  O18      1.0000 0.26769  0.04437  0.20456  Biso   1.000  O
  C28      1.0000 0.81760  0.60020  0.65430  Biso   1.000  C
  H10      1.0000 0.83160  0.58550  0.67610  Biso   1.000  H
  C29      1.0000 0.77470  0.59040  0.64500  Biso   1.000  C
  C30      1.0000 0.75090  0.55720  0.66970  Biso   1.000  C
  O19      1.0000 0.71601  0.54406  0.65394  Biso   1.000  O
  O20      1.0000 0.76769  0.54437  0.70456  Biso   1.000  O
  C31      1.0000 0.31760  0.89980  0.84570  Biso   1.000  C
  H11      1.0000 0.33160  0.91450  0.82390  Biso   1.000  H
  C32      1.0000 0.27470  0.90960  0.85500  Biso   1.000  C
  C33      1.0000 0.25090  0.94280  0.83030  Biso   1.000  C
  O21      1.0000 0.21601  0.95594  0.84606  Biso   1.000  O
  O22      1.0000 0.26769  0.95563  0.79544  Biso   1.000  O
  C34      1.0000 0.81760  0.39980  0.34570  Biso   1.000  C
  H12      1.0000 0.83160  0.41450  0.32390  Biso   1.000  H
  C35      1.0000 0.77470  0.40960  0.35500  Biso   1.000  C
  C36      1.0000 0.75090  0.44280  0.33030  Biso   1.000  C
  O23      1.0000 0.71601  0.45594  0.34606  Biso   1.000  O
  O24      1.0000 0.76769  0.45563  0.29544  Biso   1.000  O
  C37      1.0000 0.68240  0.89980  0.15430  Biso   1.000  C
  H13      1.0000 0.66840  0.91450  0.17610  Biso   1.000  H
  C38      1.0000 0.72530  0.90960  0.14500  Biso   1.000  C
  C39      1.0000 0.74910  0.94280  0.16970  Biso   1.000  C
  O25      1.0000 0.78399  0.95594  0.15394  Biso   1.000  O
  O26      1.0000 0.73231  0.95563  0.20456  Biso   1.000  O
  C40      1.0000 0.18240  0.39980  0.65430  Biso   1.000  C
  H14      1.0000 0.16840  0.41450  0.67610  Biso   1.000  H
  C41      1.0000 0.22530  0.40960  0.64500  Biso   1.000  C
  C42      1.0000 0.24910  0.44280  0.66970  Biso   1.000  C
  O27      1.0000 0.28399  0.45594  0.65394  Biso   1.000  O
  O28      1.0000 0.23231  0.45563  0.70456  Biso   1.000  O
  C43      1.0000 0.68240  0.10020  0.84570  Biso   1.000  C
  H15      1.0000 0.66840  0.08550  0.82390  Biso   1.000  H
  C44      1.0000 0.72530  0.09040  0.85500  Biso   1.000  C
  C45      1.0000 0.74910  0.05720  0.83030  Biso   1.000  C
  O29      1.0000 0.78399  0.04406  0.84606  Biso   1.000  O
  O30      1.0000 0.73231  0.04437  0.79544  Biso   1.000  O
  C46      1.0000 0.18240  0.60020  0.34570  Biso   1.000  C
  H16      1.0000 0.16840  0.58550  0.32390  Biso   1.000  H
  C47      1.0000 0.22530  0.59040  0.35500  Biso   1.000  C
  C48      1.0000 0.24910  0.55720  0.33030  Biso   1.000  C
  O31      1.0000 0.28399  0.54406  0.34606  Biso   1.000  O
  O32      1.0000 0.23231  0.54437  0.29544  Biso   1.000  O
  C49      1.0000 0.15430  0.31760  0.10020  Biso   1.000  C
  H17      1.0000 0.17610  0.33160  0.08550  Biso   1.000  H
  C50      1.0000 0.14500  0.27470  0.09040  Biso   1.000  C
  C51      1.0000 0.16970  0.25090  0.05720  Biso   1.000  C
  O33      1.0000 0.15394  0.21601  0.04406  Biso   1.000  O
  O34      1.0000 0.20456  0.26769  0.04437  Biso   1.000  O
  C52      1.0000 0.65430  0.81760  0.60020  Biso   1.000  C
  H18      1.0000 0.67610  0.83160  0.58550  Biso   1.000  H
  C53      1.0000 0.64500  0.77470  0.59040  Biso   1.000  C
  C54      1.0000 0.66970  0.75090  0.55720  Biso   1.000  C
  O35      1.0000 0.65394  0.71601  0.54406  Biso   1.000  O
  O36      1.0000 0.70456  0.76769  0.54437  Biso   1.000  O
  C55      1.0000 0.84570  0.31760  0.89980  Biso   1.000  C
  H19      1.0000 0.82390  0.33160  0.91450  Biso   1.000  H
  C56      1.0000 0.85500  0.27470  0.90960  Biso   1.000  C
  C57      1.0000 0.83030  0.25090  0.94280  Biso   1.000  C
  O37      1.0000 0.84606  0.21601  0.95594  Biso   1.000  O
  O38      1.0000 0.79544  0.26769  0.95563  Biso   1.000  O
  C58      1.0000 0.34570  0.81760  0.39980  Biso   1.000  C
  H20      1.0000 0.32390  0.83160  0.41450  Biso   1.000  H
  C59      1.0000 0.35500  0.77470  0.40960  Biso   1.000  C
  C60      1.0000 0.33030  0.75090  0.44280  Biso   1.000  C
  O39      1.0000 0.34606  0.71601  0.45594  Biso   1.000  O
  O40      1.0000 0.29544  0.76769  0.45563  Biso   1.000  O
  C61      1.0000 0.15430  0.68240  0.89980  Biso   1.000  C
  H21      1.0000 0.17610  0.66840  0.91450  Biso   1.000  H
  C62      1.0000 0.14500  0.72530  0.90960  Biso   1.000  C
  C63      1.0000 0.16970  0.74910  0.94280  Biso   1.000  C
  O41      1.0000 0.15394  0.78399  0.95594  Biso   1.000  O
  O42      1.0000 0.20456  0.73231  0.95563  Biso   1.000  O
  C64      1.0000 0.65430  0.18240  0.39980  Biso   1.000  C
  H22      1.0000 0.67610  0.16840  0.41450  Biso   1.000  H
  C65      1.0000 0.64500  0.22530  0.40960  Biso   1.000  C
  C66      1.0000 0.66970  0.24910  0.44280  Biso   1.000  C
  O43      1.0000 0.65394  0.28399  0.45594  Biso   1.000  O
  O44      1.0000 0.70456  0.23231  0.45563  Biso   1.000  O
  C67      1.0000 0.84570  0.68240  0.10020  Biso   1.000  C
  H23      1.0000 0.82390  0.66840  0.08550  Biso   1.000  H
  C68      1.0000 0.85500  0.72530  0.09040  Biso   1.000  C
  C69      1.0000 0.83030  0.74910  0.05720  Biso   1.000  C
  O45      1.0000 0.84606  0.78399  0.04406  Biso   1.000  O
  O46      1.0000 0.79544  0.73231  0.04437  Biso   1.000  O
  C70      1.0000 0.34570  0.18240  0.60020  Biso   1.000  C
  H24      1.0000 0.32390  0.16840  0.58550  Biso   1.000  H
  C71      1.0000 0.35500  0.22530  0.59040  Biso   1.000  C
  C72      1.0000 0.33030  0.24910  0.55720  Biso   1.000  C
  O47      1.0000 0.34606  0.28399  0.54406  Biso   1.000  O
  O48      1.0000 0.29544  0.23231  0.54437  Biso   1.000  O
  C73      1.0000 0.15430  0.10020  0.68240  Biso   1.000  C
  H25      1.0000 0.17610  0.08550  0.66840  Biso   1.000  H
  C74      1.0000 0.14500  0.09040  0.72530  Biso   1.000  C
  C75      1.0000 0.16970  0.05720  0.74910  Biso   1.000  C
  O49      1.0000 0.15394  0.04406  0.78399  Biso   1.000  O
  O50      1.0000 0.20456  0.04437  0.73231  Biso   1.000  O
  C76      1.0000 0.65430  0.60020  0.18240  Biso   1.000  C
  H26      1.0000 0.67610  0.58550  0.16840  Biso   1.000  H
  C77      1.0000 0.64500  0.59040  0.22530  Biso   1.000  C
  C78      1.0000 0.66970  0.55720  0.24910  Biso   1.000  C
  O51      1.0000 0.65394  0.54406  0.28399  Biso   1.000  O
  O52      1.0000 0.70456  0.54437  0.23231  Biso   1.000  O
  C79      1.0000 0.84570  0.89980  0.68240  Biso   1.000  C
  H27      1.0000 0.82390  0.91450  0.66840  Biso   1.000  H
  C80      1.0000 0.85500  0.90960  0.72530  Biso   1.000  C
  C81      1.0000 0.83030  0.94280  0.74910  Biso   1.000  C
  O53      1.0000 0.84606  0.95594  0.78399  Biso   1.000  O
  O54      1.0000 0.79544  0.95563  0.73231  Biso   1.000  O
  C82      1.0000 0.34570  0.39980  0.18240  Biso   1.000  C
  H28      1.0000 0.32390  0.41450  0.16840  Biso   1.000  H
  C83      1.0000 0.35500  0.40960  0.22530  Biso   1.000  C
  C84      1.0000 0.33030  0.44280  0.24910  Biso   1.000  C
  O55      1.0000 0.34606  0.45594  0.28399  Biso   1.000  O
  O56      1.0000 0.29544  0.45563  0.23231  Biso   1.000  O
  C85      1.0000 0.15430  0.89980  0.31760  Biso   1.000  C
  H29      1.0000 0.17610  0.91450  0.33160  Biso   1.000  H
  C86      1.0000 0.14500  0.90960  0.27470  Biso   1.000  C
  C87      1.0000 0.16970  0.94280  0.25090  Biso   1.000  C
  O57      1.0000 0.15394  0.95594  0.21601  Biso   1.000  O
  O58      1.0000 0.20456  0.95563  0.26769  Biso   1.000  O
  C88      1.0000 0.65430  0.39980  0.81760  Biso   1.000  C
  H30      1.0000 0.67610  0.41450  0.83160  Biso   1.000  H
  C89      1.0000 0.64500  0.40960  0.77470  Biso   1.000  C
  C90      1.0000 0.66970  0.44280  0.75090  Biso   1.000  C
  O59      1.0000 0.65394  0.45594  0.71601  Biso   1.000  O
  O60      1.0000 0.70456  0.45563  0.76769  Biso   1.000  O
  C91      1.0000 0.84570  0.10020  0.31760  Biso   1.000  C
  H31      1.0000 0.82390  0.08550  0.33160  Biso   1.000  H
  C92      1.0000 0.85500  0.09040  0.27470  Biso   1.000  C
  C93      1.0000 0.83030  0.05720  0.25090  Biso   1.000  C
  O61      1.0000 0.84606  0.04406  0.21601  Biso   1.000  O
  O62      1.0000 0.79544  0.04437  0.26769  Biso   1.000  O
  C94      1.0000 0.34570  0.60020  0.81760  Biso   1.000  C
  H32      1.0000 0.32390  0.58550  0.83160  Biso   1.000  H
  C95      1.0000 0.35500  0.59040  0.77470  Biso   1.000  C
  C96      1.0000 0.33030  0.55720  0.75090  Biso   1.000  C
  O63      1.0000 0.34606  0.54406  0.71601  Biso   1.000  O
  O64      1.0000 0.29544  0.54437  0.76769  Biso   1.000  O
  C97      1.0000 0.10020  0.31760  0.84570  Biso   1.000  C
  H33      1.0000 0.08550  0.33160  0.82390  Biso   1.000  H
  C98      1.0000 0.09040  0.27470  0.85500  Biso   1.000  C
  C99      1.0000 0.05720  0.25090  0.83030  Biso   1.000  C
  O65      1.0000 0.04406  0.21601  0.84606  Biso   1.000  O
  O66      1.0000 0.04437  0.26769  0.79544  Biso   1.000  O
  C100     1.0000 0.60020  0.81760  0.34570  Biso   1.000  C
  H34      1.0000 0.58550  0.83160  0.32390  Biso   1.000  H
  C101     1.0000 0.59040  0.77470  0.35500  Biso   1.000  C
  C102     1.0000 0.55720  0.75090  0.33030  Biso   1.000  C
  O67      1.0000 0.54406  0.71601  0.34606  Biso   1.000  O
  O68      1.0000 0.54437  0.76769  0.29544  Biso   1.000  O
  C103     1.0000 0.89980  0.31760  0.15430  Biso   1.000  C
  H35      1.0000 0.91450  0.33160  0.17610  Biso   1.000  H
  C104     1.0000 0.90960  0.27470  0.14500  Biso   1.000  C
  C105     1.0000 0.94280  0.25090  0.16970  Biso   1.000  C
  O69      1.0000 0.95594  0.21601  0.15394  Biso   1.000  O
  O70      1.0000 0.95563  0.26769  0.20456  Biso   1.000  O
  C106     1.0000 0.39980  0.81760  0.65430  Biso   1.000  C
  H36      1.0000 0.41450  0.83160  0.67610  Biso   1.000  H
  C107     1.0000 0.40960  0.77470  0.64500  Biso   1.000  C
  C108     1.0000 0.44280  0.75090  0.66970  Biso   1.000  C
  O71      1.0000 0.45594  0.71601  0.65394  Biso   1.000  O
  O72      1.0000 0.45563  0.76769  0.70456  Biso   1.000  O
  C109     1.0000 0.89980  0.68240  0.84570  Biso   1.000  C
  H37      1.0000 0.91450  0.66840  0.82390  Biso   1.000  H
  C110     1.0000 0.90960  0.72530  0.85500  Biso   1.000  C
  C111     1.0000 0.94280  0.74910  0.83030  Biso   1.000  C
  O73      1.0000 0.95594  0.78399  0.84606  Biso   1.000  O
  O74      1.0000 0.95563  0.73231  0.79544  Biso   1.000  O
  C112     1.0000 0.39980  0.18240  0.34570  Biso   1.000  C
  H38      1.0000 0.41450  0.16840  0.32390  Biso   1.000  H
  C113     1.0000 0.40960  0.22530  0.35500  Biso   1.000  C
  C114     1.0000 0.44280  0.24910  0.33030  Biso   1.000  C
  O75      1.0000 0.45594  0.28399  0.34606  Biso   1.000  O
  O76      1.0000 0.45563  0.23231  0.29544  Biso   1.000  O
  C115     1.0000 0.10020  0.68240  0.15430  Biso   1.000  C
  H39      1.0000 0.08550  0.66840  0.17610  Biso   1.000  H
  C116     1.0000 0.09040  0.72530  0.14500  Biso   1.000  C
  C117     1.0000 0.05720  0.74910  0.16970  Biso   1.000  C
  O77      1.0000 0.04406  0.78399  0.15394  Biso   1.000  O
  O78      1.0000 0.04437  0.73231  0.20456  Biso   1.000  O
  C118     1.0000 0.60020  0.18240  0.65430  Biso   1.000  C
  H40      1.0000 0.58550  0.16840  0.67610  Biso   1.000  H
  C119     1.0000 0.59040  0.22530  0.64500  Biso   1.000  C
  C120     1.0000 0.55720  0.24910  0.66970  Biso   1.000  C
  O79      1.0000 0.54406  0.28399  0.65394  Biso   1.000  O
  O80      1.0000 0.54437  0.23231  0.70456  Biso   1.000  O
  C121     1.0000 0.31760  0.15430  0.89980  Biso   1.000  C
  H41      1.0000 0.33160  0.17610  0.91450  Biso   1.000  H
  C122     1.0000 0.27470  0.14500  0.90960  Biso   1.000  C
  C123     1.0000 0.25090  0.16970  0.94280  Biso   1.000  C
  O81      1.0000 0.21601  0.15394  0.95594  Biso   1.000  O
  O82      1.0000 0.26769  0.20456  0.95563  Biso   1.000  O
  C124     1.0000 0.81760  0.65430  0.39980  Biso   1.000  C
  H42      1.0000 0.83160  0.67610  0.41450  Biso   1.000  H
  C125     1.0000 0.77470  0.64500  0.40960  Biso   1.000  C
  C126     1.0000 0.75090  0.66970  0.44280  Biso   1.000  C
  O83      1.0000 0.71601  0.65394  0.45594  Biso   1.000  O
  O84      1.0000 0.76769  0.70456  0.45563  Biso   1.000  O
  C127     1.0000 0.31760  0.84570  0.10020  Biso   1.000  C
  H43      1.0000 0.33160  0.82390  0.08550  Biso   1.000  H
  C128     1.0000 0.27470  0.85500  0.09040  Biso   1.000  C
  C129     1.0000 0.25090  0.83030  0.05720  Biso   1.000  C
  O85      1.0000 0.21601  0.84606  0.04406  Biso   1.000  O
  O86      1.0000 0.26769  0.79544  0.04437  Biso   1.000  O
  C130     1.0000 0.81760  0.34570  0.60020  Biso   1.000  C
  H44      1.0000 0.83160  0.32390  0.58550  Biso   1.000  H
  C131     1.0000 0.77470  0.35500  0.59040  Biso   1.000  C
  C132     1.0000 0.75090  0.33030  0.55720  Biso   1.000  C
  O87      1.0000 0.71601  0.34606  0.54406  Biso   1.000  O
  O88      1.0000 0.76769  0.29544  0.54437  Biso   1.000  O
  C133     1.0000 0.68240  0.15430  0.10020  Biso   1.000  C
  H45      1.0000 0.66840  0.17610  0.08550  Biso   1.000  H
  C134     1.0000 0.72530  0.14500  0.09040  Biso   1.000  C
  C135     1.0000 0.74910  0.16970  0.05720  Biso   1.000  C
  O89      1.0000 0.78399  0.15394  0.04406  Biso   1.000  O
  O90      1.0000 0.73231  0.20456  0.04437  Biso   1.000  O
  C136     1.0000 0.18240  0.65430  0.60020  Biso   1.000  C
  H46      1.0000 0.16840  0.67610  0.58550  Biso   1.000  H
  C137     1.0000 0.22530  0.64500  0.59040  Biso   1.000  C
  C138     1.0000 0.24910  0.66970  0.55720  Biso   1.000  C
  O91      1.0000 0.28399  0.65394  0.54406  Biso   1.000  O
  O92      1.0000 0.23231  0.70456  0.54437  Biso   1.000  O
  C139     1.0000 0.68240  0.84570  0.89980  Biso   1.000  C
  H47      1.0000 0.66840  0.82390  0.91450  Biso   1.000  H
  C140     1.0000 0.72530  0.85500  0.90960  Biso   1.000  C
  C141     1.0000 0.74910  0.83030  0.94280  Biso   1.000  C
  O93      1.0000 0.78399  0.84606  0.95594  Biso   1.000  O
  O94      1.0000 0.73231  0.79544  0.95563  Biso   1.000  O
  C142     1.0000 0.18240  0.34570  0.39980  Biso   1.000  C
  H48      1.0000 0.16840  0.32390  0.41450  Biso   1.000  H
  C143     1.0000 0.22530  0.35500  0.40960  Biso   1.000  C
  C144     1.0000 0.24910  0.33030  0.44280  Biso   1.000  C
  O95      1.0000 0.28399  0.34606  0.45594  Biso   1.000  O
  O96      1.0000 0.23231  0.29544  0.45563  Biso   1.000  O
  C145     1.0000 0.89980  0.84570  0.68240  Biso   1.000  C
  H49      1.0000 0.91450  0.82390  0.66840  Biso   1.000  H
  C146     1.0000 0.90960  0.85500  0.72530  Biso   1.000  C
  C147     1.0000 0.94280  0.83030  0.74910  Biso   1.000  C
  O97      1.0000 0.95594  0.84606  0.78399  Biso   1.000  O
  O98      1.0000 0.95563  0.79544  0.73231  Biso   1.000  O
  C148     1.0000 0.39980  0.34570  0.18240  Biso   1.000  C
  H50      1.0000 0.41450  0.32390  0.16840  Biso   1.000  H
  C149     1.0000 0.40960  0.35500  0.22530  Biso   1.000  C
  C150     1.0000 0.44280  0.33030  0.24910  Biso   1.000  C
  O99      1.0000 0.45594  0.34606  0.28399  Biso   1.000  O
  O100     1.0000 0.45563  0.29544  0.23231  Biso   1.000  O
  C151     1.0000 0.10020  0.15430  0.68240  Biso   1.000  C
  H51      1.0000 0.08550  0.17610  0.66840  Biso   1.000  H
  C152     1.0000 0.09040  0.14500  0.72530  Biso   1.000  C
  C153     1.0000 0.05720  0.16970  0.74910  Biso   1.000  C
  O101     1.0000 0.04406  0.15394  0.78399  Biso   1.000  O
  O102     1.0000 0.04437  0.20456  0.73231  Biso   1.000  O
  C154     1.0000 0.60020  0.65430  0.18240  Biso   1.000  C
  H52      1.0000 0.58550  0.67610  0.16840  Biso   1.000  H
  C155     1.0000 0.59040  0.64500  0.22530  Biso   1.000  C
  C156     1.0000 0.55720  0.66970  0.24910  Biso   1.000  C
  O103     1.0000 0.54406  0.65394  0.28399  Biso   1.000  O
  O104     1.0000 0.54437  0.70456  0.23231  Biso   1.000  O
  C157     1.0000 0.10020  0.84570  0.31760  Biso   1.000  C
  H53      1.0000 0.08550  0.82390  0.33160  Biso   1.000  H
  C158     1.0000 0.09040  0.85500  0.27470  Biso   1.000  C
  C159     1.0000 0.05720  0.83030  0.25090  Biso   1.000  C
  O105     1.0000 0.04406  0.84606  0.21601  Biso   1.000  O
  O106     1.0000 0.04437  0.79544  0.26769  Biso   1.000  O
  C160     1.0000 0.60020  0.34570  0.81760  Biso   1.000  C
  H54      1.0000 0.58550  0.32390  0.83160  Biso   1.000  H
  C161     1.0000 0.59040  0.35500  0.77470  Biso   1.000  C
  C162     1.0000 0.55720  0.33030  0.75090  Biso   1.000  C
  O107     1.0000 0.54406  0.34606  0.71601  Biso   1.000  O
  O108     1.0000 0.54437  0.29544  0.76769  Biso   1.000  O
  C163     1.0000 0.89980  0.15430  0.31760  Biso   1.000  C
  H55      1.0000 0.91450  0.17610  0.33160  Biso   1.000  H
  C164     1.0000 0.90960  0.14500  0.27470  Biso   1.000  C
  C165     1.0000 0.94280  0.16970  0.25090  Biso   1.000  C
  O109     1.0000 0.95594  0.15394  0.21601  Biso   1.000  O
  O110     1.0000 0.95563  0.20456  0.26769  Biso   1.000  O
  C166     1.0000 0.39980  0.65430  0.81760  Biso   1.000  C
  H56      1.0000 0.41450  0.67610  0.83160  Biso   1.000  H
  C167     1.0000 0.40960  0.64500  0.77470  Biso   1.000  C
  C168     1.0000 0.44280  0.66970  0.75090  Biso   1.000  C
  O111     1.0000 0.45594  0.65394  0.71601  Biso   1.000  O
  O112     1.0000 0.45563  0.70456  0.76769  Biso   1.000  O
  C169     1.0000 0.68240  0.89980  0.84570  Biso   1.000  C
  H57      1.0000 0.66840  0.91450  0.82390  Biso   1.000  H
  C170     1.0000 0.72530  0.90960  0.85500  Biso   1.000  C
  C171     1.0000 0.74910  0.94280  0.83030  Biso   1.000  C
  O113     1.0000 0.78399  0.95594  0.84606  Biso   1.000  O
  O114     1.0000 0.73231  0.95563  0.79544  Biso   1.000  O
  C172     1.0000 0.18240  0.39980  0.34570  Biso   1.000  C
  H58      1.0000 0.16840  0.41450  0.32390  Biso   1.000  H
  C173     1.0000 0.22530  0.40960  0.35500  Biso   1.000  C
  C174     1.0000 0.24910  0.44280  0.33030  Biso   1.000  C
  O115     1.0000 0.28399  0.45594  0.34606  Biso   1.000  O
  O116     1.0000 0.23231  0.45563  0.29544  Biso   1.000  O
  C175     1.0000 0.68240  0.10020  0.15430  Biso   1.000  C
  H59      1.0000 0.66840  0.08550  0.17610  Biso   1.000  H
  C176     1.0000 0.72530  0.09040  0.14500  Biso   1.000  C
  C177     1.0000 0.74910  0.05720  0.16970  Biso   1.000  C
  O117     1.0000 0.78399  0.04406  0.15394  Biso   1.000  O
  O118     1.0000 0.73231  0.04437  0.20456  Biso   1.000  O
  C178     1.0000 0.18240  0.60020  0.65430  Biso   1.000  C
  H60      1.0000 0.16840  0.58550  0.67610  Biso   1.000  H
  C179     1.0000 0.22530  0.59040  0.64500  Biso   1.000  C
  C180     1.0000 0.24910  0.55720  0.66970  Biso   1.000  C
  O119     1.0000 0.28399  0.54406  0.65394  Biso   1.000  O
  O120     1.0000 0.23231  0.54437  0.70456  Biso   1.000  O
  C181     1.0000 0.31760  0.10020  0.84570  Biso   1.000  C
  H61      1.0000 0.33160  0.08550  0.82390  Biso   1.000  H
  C182     1.0000 0.27470  0.09040  0.85500  Biso   1.000  C
  C183     1.0000 0.25090  0.05720  0.83030  Biso   1.000  C
  O121     1.0000 0.21601  0.04406  0.84606  Biso   1.000  O
  O122     1.0000 0.26769  0.04437  0.79544  Biso   1.000  O
  C184     1.0000 0.81760  0.60020  0.34570  Biso   1.000  C
  H62      1.0000 0.83160  0.58550  0.32390  Biso   1.000  H
  C185     1.0000 0.77470  0.59040  0.35500  Biso   1.000  C
  C186     1.0000 0.75090  0.55720  0.33030  Biso   1.000  C
  O123     1.0000 0.71601  0.54406  0.34606  Biso   1.000  O
  O124     1.0000 0.76769  0.54437  0.29544  Biso   1.000  O
  C187     1.0000 0.31760  0.89980  0.15430  Biso   1.000  C
  H63      1.0000 0.33160  0.91450  0.17610  Biso   1.000  H
  C188     1.0000 0.27470  0.90960  0.14500  Biso   1.000  C
  C189     1.0000 0.25090  0.94280  0.16970  Biso   1.000  C
  O125     1.0000 0.21601  0.95594  0.15394  Biso   1.000  O
  O126     1.0000 0.26769  0.95563  0.20456  Biso   1.000  O
  C190     1.0000 0.81760  0.39980  0.65430  Biso   1.000  C
  H64      1.0000 0.83160  0.41450  0.67610  Biso   1.000  H
  C191     1.0000 0.77470  0.40960  0.64500  Biso   1.000  C
  C192     1.0000 0.75090  0.44280  0.66970  Biso   1.000  C
  O127     1.0000 0.71601  0.45594  0.65394  Biso   1.000  O
  O128     1.0000 0.76769  0.45563  0.70456  Biso   1.000  O
  C193     1.0000 0.84570  0.68240  0.89980  Biso   1.000  C
  H65      1.0000 0.82390  0.66840  0.91450  Biso   1.000  H
  C194     1.0000 0.85500  0.72530  0.90960  Biso   1.000  C
  C195     1.0000 0.83030  0.74910  0.94280  Biso   1.000  C
  O129     1.0000 0.84606  0.78399  0.95594  Biso   1.000  O
  O130     1.0000 0.79544  0.73231  0.95563  Biso   1.000  O
  C196     1.0000 0.34570  0.18240  0.39980  Biso   1.000  C
  H66      1.0000 0.32390  0.16840  0.41450  Biso   1.000  H
  C197     1.0000 0.35500  0.22530  0.40960  Biso   1.000  C
  C198     1.0000 0.33030  0.24910  0.44280  Biso   1.000  C
  O131     1.0000 0.34606  0.28399  0.45594  Biso   1.000  O
  O132     1.0000 0.29544  0.23231  0.45563  Biso   1.000  O
  C199     1.0000 0.15430  0.68240  0.10020  Biso   1.000  C
  H67      1.0000 0.17610  0.66840  0.08550  Biso   1.000  H
  C200     1.0000 0.14500  0.72530  0.09040  Biso   1.000  C
  C201     1.0000 0.16970  0.74910  0.05720  Biso   1.000  C
  O133     1.0000 0.15394  0.78399  0.04406  Biso   1.000  O
  O134     1.0000 0.20456  0.73231  0.04437  Biso   1.000  O
  C202     1.0000 0.65430  0.18240  0.60020  Biso   1.000  C
  H68      1.0000 0.67610  0.16840  0.58550  Biso   1.000  H
  C203     1.0000 0.64500  0.22530  0.59040  Biso   1.000  C
  C204     1.0000 0.66970  0.24910  0.55720  Biso   1.000  C
  O135     1.0000 0.65394  0.28399  0.54406  Biso   1.000  O
  O136     1.0000 0.70456  0.23231  0.54437  Biso   1.000  O
  C205     1.0000 0.84570  0.31760  0.10020  Biso   1.000  C
  H69      1.0000 0.82390  0.33160  0.08550  Biso   1.000  H
  C206     1.0000 0.85500  0.27470  0.09040  Biso   1.000  C
  C207     1.0000 0.83030  0.25090  0.05720  Biso   1.000  C
  O137     1.0000 0.84606  0.21601  0.04406  Biso   1.000  O
  O138     1.0000 0.79544  0.26769  0.04437  Biso   1.000  O
  C208     1.0000 0.34570  0.81760  0.60020  Biso   1.000  C
  H70      1.0000 0.32390  0.83160  0.58550  Biso   1.000  H
  C209     1.0000 0.35500  0.77470  0.59040  Biso   1.000  C
  C210     1.0000 0.33030  0.75090  0.55720  Biso   1.000  C
  O139     1.0000 0.34606  0.71601  0.54406  Biso   1.000  O
  O140     1.0000 0.29544  0.76769  0.54437  Biso   1.000  O
  C211     1.0000 0.15430  0.31760  0.89980  Biso   1.000  C
  H71      1.0000 0.17610  0.33160  0.91450  Biso   1.000  H
  C212     1.0000 0.14500  0.27470  0.90960  Biso   1.000  C
  C213     1.0000 0.16970  0.25090  0.94280  Biso   1.000  C
  O141     1.0000 0.15394  0.21601  0.95594  Biso   1.000  O
  O142     1.0000 0.20456  0.26769  0.95563  Biso   1.000  O
  C214     1.0000 0.65430  0.81760  0.39980  Biso   1.000  C
  H72      1.0000 0.67610  0.83160  0.41450  Biso   1.000  H
  C215     1.0000 0.64500  0.77470  0.40960  Biso   1.000  C
  C216     1.0000 0.66970  0.75090  0.44280  Biso   1.000  C
  O143     1.0000 0.65394  0.71601  0.45594  Biso   1.000  O
  O144     1.0000 0.70456  0.76769  0.45563  Biso   1.000  O
  C217     1.0000 0.84570  0.89980  0.31760  Biso   1.000  C
  H73      1.0000 0.82390  0.91450  0.33160  Biso   1.000  H
  C218     1.0000 0.85500  0.90960  0.27470  Biso   1.000  C
  C219     1.0000 0.83030  0.94280  0.25090  Biso   1.000  C
  O145     1.0000 0.84606  0.95594  0.21601  Biso   1.000  O
  O146     1.0000 0.79544  0.95563  0.26769  Biso   1.000  O
  C220     1.0000 0.34570  0.39980  0.81760  Biso   1.000  C
  H74      1.0000 0.32390  0.41450  0.83160  Biso   1.000  H
  C221     1.0000 0.35500  0.40960  0.77470  Biso   1.000  C
  C222     1.0000 0.33030  0.44280  0.75090  Biso   1.000  C
  O147     1.0000 0.34606  0.45594  0.71601  Biso   1.000  O
  O148     1.0000 0.29544  0.45563  0.76769  Biso   1.000  O
  C223     1.0000 0.15430  0.10020  0.31760  Biso   1.000  C
  H75      1.0000 0.17610  0.08550  0.33160  Biso   1.000  H
  C224     1.0000 0.14500  0.09040  0.27470  Biso   1.000  C
  C225     1.0000 0.16970  0.05720  0.25090  Biso   1.000  C
  O149     1.0000 0.15394  0.04406  0.21601  Biso   1.000  O
  O150     1.0000 0.20456  0.04437  0.26769  Biso   1.000  O
  C226     1.0000 0.65430  0.60020  0.81760  Biso   1.000  C
  H76      1.0000 0.67610  0.58550  0.83160  Biso   1.000  H
  C227     1.0000 0.64500  0.59040  0.77470  Biso   1.000  C
  C228     1.0000 0.66970  0.55720  0.75090  Biso   1.000  C
  O151     1.0000 0.65394  0.54406  0.71601  Biso   1.000  O
  O152     1.0000 0.70456  0.54437  0.76769  Biso   1.000  O
  C229     1.0000 0.84570  0.10020  0.68240  Biso   1.000  C
  H77      1.0000 0.82390  0.08550  0.66840  Biso   1.000  H
  C230     1.0000 0.85500  0.09040  0.72530  Biso   1.000  C
  C231     1.0000 0.83030  0.05720  0.74910  Biso   1.000  C
  O153     1.0000 0.84606  0.04406  0.78399  Biso   1.000  O
  O154     1.0000 0.79544  0.04437  0.73231  Biso   1.000  O
  C232     1.0000 0.34570  0.60020  0.18240  Biso   1.000  C
  H78      1.0000 0.32390  0.58550  0.16840  Biso   1.000  H
  C233     1.0000 0.35500  0.59040  0.22530  Biso   1.000  C
  C234     1.0000 0.33030  0.55720  0.24910  Biso   1.000  C
  O155     1.0000 0.34606  0.54406  0.28399  Biso   1.000  O
  O156     1.0000 0.29544  0.54437  0.23231  Biso   1.000  O
  C235     1.0000 0.15430  0.89980  0.68240  Biso   1.000  C
  H79      1.0000 0.17610  0.91450  0.66840  Biso   1.000  H
  C236     1.0000 0.14500  0.90960  0.72530  Biso   1.000  C
  C237     1.0000 0.16970  0.94280  0.74910  Biso   1.000  C
  O157     1.0000 0.15394  0.95594  0.78399  Biso   1.000  O
  O158     1.0000 0.20456  0.95563  0.73231  Biso   1.000  O
  C238     1.0000 0.65430  0.39980  0.18240  Biso   1.000  C
  H80      1.0000 0.67610  0.41450  0.16840  Biso   1.000  H
  C239     1.0000 0.64500  0.40960  0.22530  Biso   1.000  C
  C240     1.0000 0.66970  0.44280  0.24910  Biso   1.000  C
  O159     1.0000 0.65394  0.45594  0.28399  Biso   1.000  O
  O160     1.0000 0.70456  0.45563  0.23231  Biso   1.000  O
  C241     1.0000 0.89980  0.68240  0.15430  Biso   1.000  C
  H81      1.0000 0.91450  0.66840  0.17610  Biso   1.000  H
  C242     1.0000 0.90960  0.72530  0.14500  Biso   1.000  C
  C243     1.0000 0.94280  0.74910  0.16970  Biso   1.000  C
  O161     1.0000 0.95594  0.78399  0.15394  Biso   1.000  O
  O162     1.0000 0.95563  0.73231  0.20456  Biso   1.000  O
  C244     1.0000 0.39980  0.18240  0.65430  Biso   1.000  C
  H82      1.0000 0.41450  0.16840  0.67610  Biso   1.000  H
  C245     1.0000 0.40960  0.22530  0.64500  Biso   1.000  C
  C246     1.0000 0.44280  0.24910  0.66970  Biso   1.000  C
  O163     1.0000 0.45594  0.28399  0.65394  Biso   1.000  O
  O164     1.0000 0.45563  0.23231  0.70456  Biso   1.000  O
  C247     1.0000 0.10020  0.68240  0.84570  Biso   1.000  C
  H83      1.0000 0.08550  0.66840  0.82390  Biso   1.000  H
  C248     1.0000 0.09040  0.72530  0.85500  Biso   1.000  C
  C249     1.0000 0.05720  0.74910  0.83030  Biso   1.000  C
  O165     1.0000 0.04406  0.78399  0.84606  Biso   1.000  O
  O166     1.0000 0.04437  0.73231  0.79544  Biso   1.000  O
  C250     1.0000 0.60020  0.18240  0.34570  Biso   1.000  C
  H84      1.0000 0.58550  0.16840  0.32390  Biso   1.000  H
  C251     1.0000 0.59040  0.22530  0.35500  Biso   1.000  C
  C252     1.0000 0.55720  0.24910  0.33030  Biso   1.000  C
  O167     1.0000 0.54406  0.28399  0.34606  Biso   1.000  O
  O168     1.0000 0.54437  0.23231  0.29544  Biso   1.000  O
  C253     1.0000 0.10020  0.31760  0.15430  Biso   1.000  C
  H85      1.0000 0.08550  0.33160  0.17610  Biso   1.000  H
  C254     1.0000 0.09040  0.27470  0.14500  Biso   1.000  C
  C255     1.0000 0.05720  0.25090  0.16970  Biso   1.000  C
  O169     1.0000 0.04406  0.21601  0.15394  Biso   1.000  O
  O170     1.0000 0.04437  0.26769  0.20456  Biso   1.000  O
  C256     1.0000 0.60020  0.81760  0.65430  Biso   1.000  C
  H86      1.0000 0.58550  0.83160  0.67610  Biso   1.000  H
  C257     1.0000 0.59040  0.77470  0.64500  Biso   1.000  C
  C258     1.0000 0.55720  0.75090  0.66970  Biso   1.000  C
  O171     1.0000 0.54406  0.71601  0.65394  Biso   1.000  O
  O172     1.0000 0.54437  0.76769  0.70456  Biso   1.000  O
  C259     1.0000 0.89980  0.31760  0.84570  Biso   1.000  C
  H87      1.0000 0.91450  0.33160  0.82390  Biso   1.000  H
  C260     1.0000 0.90960  0.27470  0.85500  Biso   1.000  C
  C261     1.0000 0.94280  0.25090  0.83030  Biso   1.000  C
  O173     1.0000 0.95594  0.21601  0.84606  Biso   1.000  O
  O174     1.0000 0.95563  0.26769  0.79544  Biso   1.000  O
  C262     1.0000 0.39980  0.81760  0.34570  Biso   1.000  C
  H88      1.0000 0.41450  0.83160  0.32390  Biso   1.000  H
  C263     1.0000 0.40960  0.77470  0.35500  Biso   1.000  C
  C264     1.0000 0.44280  0.75090  0.33030  Biso   1.000  C
  O175     1.0000 0.45594  0.71601  0.34606  Biso   1.000  O
  O176     1.0000 0.45563  0.76769  0.29544  Biso   1.000  O
  C265     1.0000 0.68240  0.84570  0.10020  Biso   1.000  C
  H89      1.0000 0.66840  0.82390  0.08550  Biso   1.000  H
  C266     1.0000 0.72530  0.85500  0.09040  Biso   1.000  C
  C267     1.0000 0.74910  0.83030  0.05720  Biso   1.000  C
  O177     1.0000 0.78399  0.84606  0.04406  Biso   1.000  O
  O178     1.0000 0.73231  0.79544  0.04437  Biso   1.000  O
  C268     1.0000 0.18240  0.34570  0.60020  Biso   1.000  C
  H90      1.0000 0.16840  0.32390  0.58550  Biso   1.000  H
  C269     1.0000 0.22530  0.35500  0.59040  Biso   1.000  C
  C270     1.0000 0.24910  0.33030  0.55720  Biso   1.000  C
  O179     1.0000 0.28399  0.34606  0.54406  Biso   1.000  O
  O180     1.0000 0.23231  0.29544  0.54437  Biso   1.000  O
  C271     1.0000 0.68240  0.15430  0.89980  Biso   1.000  C
  H91      1.0000 0.66840  0.17610  0.91450  Biso   1.000  H
  C272     1.0000 0.72530  0.14500  0.90960  Biso   1.000  C
  C273     1.0000 0.74910  0.16970  0.94280  Biso   1.000  C
  O181     1.0000 0.78399  0.15394  0.95594  Biso   1.000  O
  O182     1.0000 0.73231  0.20456  0.95563  Biso   1.000  O
  C274     1.0000 0.18240  0.65430  0.39980  Biso   1.000  C
  H92      1.0000 0.16840  0.67610  0.41450  Biso   1.000  H
  C275     1.0000 0.22530  0.64500  0.40960  Biso   1.000  C
  C276     1.0000 0.24910  0.66970  0.44280  Biso   1.000  C
  O183     1.0000 0.28399  0.65394  0.45594  Biso   1.000  O
  O184     1.0000 0.23231  0.70456  0.45563  Biso   1.000  O
  C277     1.0000 0.31760  0.84570  0.89980  Biso   1.000  C
  H93      1.0000 0.33160  0.82390  0.91450  Biso   1.000  H
  C278     1.0000 0.27470  0.85500  0.90960  Biso   1.000  C
  C279     1.0000 0.25090  0.83030  0.94280  Biso   1.000  C
  O185     1.0000 0.21601  0.84606  0.95594  Biso   1.000  O
  O186     1.0000 0.26769  0.79544  0.95563  Biso   1.000  O
  C280     1.0000 0.81760  0.34570  0.39980  Biso   1.000  C
  H94      1.0000 0.83160  0.32390  0.41450  Biso   1.000  H
  C281     1.0000 0.77470  0.35500  0.40960  Biso   1.000  C
  C282     1.0000 0.75090  0.33030  0.44280  Biso   1.000  C
  O187     1.0000 0.71601  0.34606  0.45594  Biso   1.000  O
  O188     1.0000 0.76769  0.29544  0.45563  Biso   1.000  O
  C283     1.0000 0.31760  0.15430  0.10020  Biso   1.000  C
  H95      1.0000 0.33160  0.17610  0.08550  Biso   1.000  H
  C284     1.0000 0.27470  0.14500  0.09040  Biso   1.000  C
  C285     1.0000 0.25090  0.16970  0.05720  Biso   1.000  C
  O189     1.0000 0.21601  0.15394  0.04406  Biso   1.000  O
  O190     1.0000 0.26769  0.20456  0.04437  Biso   1.000  O
  C286     1.0000 0.81760  0.65430  0.60020  Biso   1.000  C
  H96      1.0000 0.83160  0.67610  0.58550  Biso   1.000  H
  C287     1.0000 0.77470  0.64500  0.59040  Biso   1.000  C
  C288     1.0000 0.75090  0.66970  0.55720  Biso   1.000  C
  O191     1.0000 0.71601  0.65394  0.54406  Biso   1.000  O
  O192     1.0000 0.76769  0.70456  0.54437  Biso   1.000  O
  Cu1      1.0000 0.00000  0.18048  0.18048  Biso   1.000  Cu
  Cu2      1.0000 0.00000  0.24047  0.24047  Biso   1.000  Cu
  Cu3      1.0000 0.50000  0.68048  0.68048  Biso   1.000  Cu
  Cu4      1.0000 0.50000  0.74047  0.74047  Biso   1.000  Cu
  Cu5      1.0000 0.00000  0.81952  0.18048  Biso   1.000  Cu
  Cu6      1.0000 0.00000  0.75953  0.24047  Biso   1.000  Cu
  Cu7      1.0000 0.50000  0.31952  0.68048  Biso   1.000  Cu
  Cu8      1.0000 0.50000  0.25953  0.74047  Biso   1.000  Cu
  Cu9      1.0000 0.00000  0.18048  0.81952  Biso   1.000  Cu
  Cu10     1.0000 0.00000  0.24047  0.75953  Biso   1.000  Cu
  Cu11     1.0000 0.50000  0.68048  0.31952  Biso   1.000  Cu
  Cu12     1.0000 0.50000  0.74047  0.25953  Biso   1.000  Cu
  Cu13     1.0000 0.00000  0.81952  0.81952  Biso   1.000  Cu
  Cu14     1.0000 0.00000  0.75953  0.75953  Biso   1.000  Cu
  Cu15     1.0000 0.50000  0.31952  0.31952  Biso   1.000  Cu
  Cu16     1.0000 0.50000  0.25953  0.25953  Biso   1.000  Cu
  Cu17     1.0000 0.18048  0.00000  0.18048  Biso   1.000  Cu
  Cu18     1.0000 0.24047  0.00000  0.24047  Biso   1.000  Cu
  Cu19     1.0000 0.68048  0.50000  0.68048  Biso   1.000  Cu
  Cu20     1.0000 0.74047  0.50000  0.74047  Biso   1.000  Cu
  Cu21     1.0000 0.18048  0.00000  0.81952  Biso   1.000  Cu
  Cu22     1.0000 0.24047  0.00000  0.75953  Biso   1.000  Cu
  Cu23     1.0000 0.68048  0.50000  0.31952  Biso   1.000  Cu
  Cu24     1.0000 0.74047  0.50000  0.25953  Biso   1.000  Cu
  Cu25     1.0000 0.81952  0.00000  0.18048  Biso   1.000  Cu
  Cu26     1.0000 0.75953  0.00000  0.24047  Biso   1.000  Cu
  Cu27     1.0000 0.31952  0.50000  0.68048  Biso   1.000  Cu
  Cu28     1.0000 0.25953  0.50000  0.74047  Biso   1.000  Cu
  Cu29     1.0000 0.81952  0.00000  0.81952  Biso   1.000  Cu
  Cu30     1.0000 0.75953  0.00000  0.75953  Biso   1.000  Cu
  Cu31     1.0000 0.31952  0.50000  0.31952  Biso   1.000  Cu
  Cu32     1.0000 0.25953  0.50000  0.25953  Biso   1.000  Cu
  Cu33     1.0000 0.18048  0.18048  0.00000  Biso   1.000  Cu
  Cu34     1.0000 0.24047  0.24047  0.00000  Biso   1.000  Cu
  Cu35     1.0000 0.68048  0.68048  0.50000  Biso   1.000  Cu
  Cu36     1.0000 0.74047  0.74047  0.50000  Biso   1.000  Cu
  Cu37     1.0000 0.81952  0.18048  0.00000  Biso   1.000  Cu
  Cu38     1.0000 0.75953  0.24047  0.00000  Biso   1.000  Cu
  Cu39     1.0000 0.31952  0.68048  0.50000  Biso   1.000  Cu
  Cu40     1.0000 0.25953  0.74047  0.50000  Biso   1.000  Cu
  Cu41     1.0000 0.18048  0.81952  0.00000  Biso   1.000  Cu
  Cu42     1.0000 0.24047  0.75953  0.00000  Biso   1.000  Cu
  Cu43     1.0000 0.68048  0.31952  0.50000  Biso   1.000  Cu
  Cu44     1.0000 0.74047  0.25953  0.50000  Biso   1.000  Cu
  Cu45     1.0000 0.81952  0.81952  0.00000  Biso   1.000  Cu
  Cu46     1.0000 0.75953  0.75953  0.00000  Biso   1.000  Cu
  Cu47     1.0000 0.31952  0.31952  0.50000  Biso   1.000  Cu
  Cu48     1.0000 0.25953  0.25953  0.50000  Biso   1.000  Cu
  N1       1.0000 0.21070  0.21070  0.50000  Biso   1.000  N
  C289     1.0000 0.14740  0.14740  0.50000  Biso   1.000  C
  H97      1.0000 0.12630  0.12630  0.50000  Biso   1.000  H
  N2       1.0000 0.71070  0.71070  0.00000  Biso   1.000  N
  C290     1.0000 0.64740  0.64740  0.00000  Biso   1.000  C
  H98      1.0000 0.62630  0.62630  0.00000  Biso   1.000  H
  N3       1.0000 0.78930  0.78930  0.50000  Biso   1.000  N
  C291     1.0000 0.85260  0.85260  0.50000  Biso   1.000  C
  H99      1.0000 0.87370  0.87370  0.50000  Biso   1.000  H
  N4       1.0000 0.28930  0.28930  0.00000  Biso   1.000  N
  C292     1.0000 0.35260  0.35260  0.00000  Biso   1.000  C
  H100     1.0000 0.37370  0.37370  0.00000  Biso   1.000  H
  N5       1.0000 0.78930  0.21070  0.50000  Biso   1.000  N
  C293     1.0000 0.85260  0.14740  0.50000  Biso   1.000  C
  H101     1.0000 0.87370  0.12630  0.50000  Biso   1.000  H
  N6       1.0000 0.28930  0.71070  0.00000  Biso   1.000  N
  C294     1.0000 0.35260  0.64740  0.00000  Biso   1.000  C
  H102     1.0000 0.37370  0.62630  0.00000  Biso   1.000  H
  N7       1.0000 0.21070  0.78930  0.50000  Biso   1.000  N
  C295     1.0000 0.14740  0.85260  0.50000  Biso   1.000  C
  H103     1.0000 0.12630  0.87370  0.50000  Biso   1.000  H
  N8       1.0000 0.71070  0.28930  0.00000  Biso   1.000  N
  C296     1.0000 0.64740  0.35260  0.00000  Biso   1.000  C
  H104     1.0000 0.62630  0.37370  0.00000  Biso   1.000  H
  N9       1.0000 0.50000  0.21070  0.21070  Biso   1.000  N
  C297     1.0000 0.50000  0.14740  0.14740  Biso   1.000  C
  H105     1.0000 0.50000  0.12630  0.12630  Biso   1.000  H
  N10      1.0000 0.00000  0.71070  0.71070  Biso   1.000  N
  C298     1.0000 0.00000  0.64740  0.64740  Biso   1.000  C
  H106     1.0000 0.00000  0.62630  0.62630  Biso   1.000  H
  N11      1.0000 0.50000  0.78930  0.78930  Biso   1.000  N
  C299     1.0000 0.50000  0.85260  0.85260  Biso   1.000  C
  H107     1.0000 0.50000  0.87370  0.87370  Biso   1.000  H
  N12      1.0000 0.00000  0.28930  0.28930  Biso   1.000  N
  C300     1.0000 0.00000  0.35260  0.35260  Biso   1.000  C
  H108     1.0000 0.00000  0.37370  0.37370  Biso   1.000  H
  N13      1.0000 0.50000  0.78930  0.21070  Biso   1.000  N
  C301     1.0000 0.50000  0.85260  0.14740  Biso   1.000  C
  H109     1.0000 0.50000  0.87370  0.12630  Biso   1.000  H
  N14      1.0000 0.00000  0.28930  0.71070  Biso   1.000  N
  C302     1.0000 0.00000  0.35260  0.64740  Biso   1.000  C
  H110     1.0000 0.00000  0.37370  0.62630  Biso   1.000  H
  N15      1.0000 0.50000  0.21070  0.78930  Biso   1.000  N
  C303     1.0000 0.50000  0.14740  0.85260  Biso   1.000  C
  H111     1.0000 0.50000  0.12630  0.87370  Biso   1.000  H
  N16      1.0000 0.00000  0.71070  0.28930  Biso   1.000  N
  C304     1.0000 0.00000  0.64740  0.35260  Biso   1.000  C
  H112     1.0000 0.00000  0.62630  0.37370  Biso   1.000  H
  N17      1.0000 0.21070  0.50000  0.21070  Biso   1.000  N
  C305     1.0000 0.14740  0.50000  0.14740  Biso   1.000  C
  H113     1.0000 0.12630  0.50000  0.12630  Biso   1.000  H
  N18      1.0000 0.71070  0.00000  0.71070  Biso   1.000  N
  C306     1.0000 0.64740  0.00000  0.64740  Biso   1.000  C
  H114     1.0000 0.62630  0.00000  0.62630  Biso   1.000  H
  N19      1.0000 0.78930  0.50000  0.78930  Biso   1.000  N
  C307     1.0000 0.85260  0.50000  0.85260  Biso   1.000  C
  H115     1.0000 0.87370  0.50000  0.87370  Biso   1.000  H
  N20      1.0000 0.28930  0.00000  0.28930  Biso   1.000  N
  C308     1.0000 0.35260  0.00000  0.35260  Biso   1.000  C
  H116     1.0000 0.37370  0.00000  0.37370  Biso   1.000  H
  N21      1.0000 0.21070  0.50000  0.78930  Biso   1.000  N
  C309     1.0000 0.14740  0.50000  0.85260  Biso   1.000  C
  H117     1.0000 0.12630  0.50000  0.87370  Biso   1.000  H
  N22      1.0000 0.71070  0.00000  0.28930  Biso   1.000  N
  C310     1.0000 0.64740  0.00000  0.35260  Biso   1.000  C
  H118     1.0000 0.62630  0.00000  0.37370  Biso   1.000  H
  N23      1.0000 0.78930  0.50000  0.21070  Biso   1.000  N
  C311     1.0000 0.85260  0.50000  0.14740  Biso   1.000  C
  H119     1.0000 0.87370  0.50000  0.12630  Biso   1.000  H
  N24      1.0000 0.28930  0.00000  0.71070  Biso   1.000  N
  C312     1.0000 0.35260  0.00000  0.64740  Biso   1.000  C
  H120     1.0000 0.37370  0.00000  0.62630  Biso   1.000  H
  C313     1.0000 0.19570  0.19570  0.46330  Biso   1.000  C
  H121     1.0000 0.20660  0.20660  0.43770  Biso   1.000  H
  C314     1.0000 0.16360  0.16360  0.46150  Biso   1.000  C
  C315     1.0000 0.14950  0.14950  0.41980  Biso   1.000  C
  C316     1.0000 0.14100  0.14100  0.38310  Biso   1.000  C
  C317     1.0000 0.13160  0.13160  0.33950  Biso   1.000  C
  C318     1.0000 0.11230  0.11230  0.25430  Biso   1.000  C
  H122     1.0000 0.10490  0.10490  0.22630  Biso   1.000  H
  C319     1.0000 0.69570  0.69570  0.96330  Biso   1.000  C
  H123     1.0000 0.70660  0.70660  0.93770  Biso   1.000  H
  C320     1.0000 0.66360  0.66360  0.96150  Biso   1.000  C
  C321     1.0000 0.64950  0.64950  0.91980  Biso   1.000  C
  C322     1.0000 0.64100  0.64100  0.88310  Biso   1.000  C
  C323     1.0000 0.63160  0.63160  0.83950  Biso   1.000  C
  C324     1.0000 0.61230  0.61230  0.75430  Biso   1.000  C
  H124     1.0000 0.60490  0.60490  0.72630  Biso   1.000  H
  C325     1.0000 0.80430  0.80430  0.46330  Biso   1.000  C
  H125     1.0000 0.79340  0.79340  0.43770  Biso   1.000  H
  C326     1.0000 0.83640  0.83640  0.46150  Biso   1.000  C
  C327     1.0000 0.85050  0.85050  0.41980  Biso   1.000  C
  C328     1.0000 0.85900  0.85900  0.38310  Biso   1.000  C
  C329     1.0000 0.86840  0.86840  0.33950  Biso   1.000  C
  C330     1.0000 0.88770  0.88770  0.25430  Biso   1.000  C
  H126     1.0000 0.89510  0.89510  0.22630  Biso   1.000  H
  C331     1.0000 0.30430  0.30430  0.96330  Biso   1.000  C
  H127     1.0000 0.29340  0.29340  0.93770  Biso   1.000  H
  C332     1.0000 0.33640  0.33640  0.96150  Biso   1.000  C
  C333     1.0000 0.35050  0.35050  0.91980  Biso   1.000  C
  C334     1.0000 0.35900  0.35900  0.88310  Biso   1.000  C
  C335     1.0000 0.36840  0.36840  0.83950  Biso   1.000  C
  C336     1.0000 0.38770  0.38770  0.75430  Biso   1.000  C
  H128     1.0000 0.39510  0.39510  0.72630  Biso   1.000  H
  C337     1.0000 0.80430  0.19570  0.53670  Biso   1.000  C
  H129     1.0000 0.79340  0.20660  0.56230  Biso   1.000  H
  C338     1.0000 0.83640  0.16360  0.53850  Biso   1.000  C
  C339     1.0000 0.85050  0.14950  0.58020  Biso   1.000  C
  C340     1.0000 0.85900  0.14100  0.61690  Biso   1.000  C
  C341     1.0000 0.86840  0.13160  0.66050  Biso   1.000  C
  C342     1.0000 0.88770  0.11230  0.74570  Biso   1.000  C
  H130     1.0000 0.89510  0.10490  0.77370  Biso   1.000  H
  C343     1.0000 0.30430  0.69570  0.03670  Biso   1.000  C
  H131     1.0000 0.29340  0.70660  0.06230  Biso   1.000  H
  C344     1.0000 0.33640  0.66360  0.03850  Biso   1.000  C
  C345     1.0000 0.35050  0.64950  0.08020  Biso   1.000  C
  C346     1.0000 0.35900  0.64100  0.11690  Biso   1.000  C
  C347     1.0000 0.36840  0.63160  0.16050  Biso   1.000  C
  C348     1.0000 0.38770  0.61230  0.24570  Biso   1.000  C
  H132     1.0000 0.39510  0.60490  0.27370  Biso   1.000  H
  C349     1.0000 0.19570  0.80430  0.53670  Biso   1.000  C
  H133     1.0000 0.20660  0.79340  0.56230  Biso   1.000  H
  C350     1.0000 0.16360  0.83640  0.53850  Biso   1.000  C
  C351     1.0000 0.14950  0.85050  0.58020  Biso   1.000  C
  C352     1.0000 0.14100  0.85900  0.61690  Biso   1.000  C
  C353     1.0000 0.13160  0.86840  0.66050  Biso   1.000  C
  C354     1.0000 0.11230  0.88770  0.74570  Biso   1.000  C
  H134     1.0000 0.10490  0.89510  0.77370  Biso   1.000  H
  C355     1.0000 0.69570  0.30430  0.03670  Biso   1.000  C
  H135     1.0000 0.70660  0.29340  0.06230  Biso   1.000  H
  C356     1.0000 0.66360  0.33640  0.03850  Biso   1.000  C
  C357     1.0000 0.64950  0.35050  0.08020  Biso   1.000  C
  C358     1.0000 0.64100  0.35900  0.11690  Biso   1.000  C
  C359     1.0000 0.63160  0.36840  0.16050  Biso   1.000  C
  C360     1.0000 0.61230  0.38770  0.24570  Biso   1.000  C
  H136     1.0000 0.60490  0.39510  0.27370  Biso   1.000  H
  C361     1.0000 0.46330  0.19570  0.19570  Biso   1.000  C
  H137     1.0000 0.43770  0.20660  0.20660  Biso   1.000  H
  C362     1.0000 0.46150  0.16360  0.16360  Biso   1.000  C
  C363     1.0000 0.41980  0.14950  0.14950  Biso   1.000  C
  C364     1.0000 0.38310  0.14100  0.14100  Biso   1.000  C
  C365     1.0000 0.33950  0.13160  0.13160  Biso   1.000  C
  C366     1.0000 0.25430  0.11230  0.11230  Biso   1.000  C
  H138     1.0000 0.22630  0.10490  0.10490  Biso   1.000  H
  C367     1.0000 0.96330  0.69570  0.69570  Biso   1.000  C
  H139     1.0000 0.93770  0.70660  0.70660  Biso   1.000  H
  C368     1.0000 0.96150  0.66360  0.66360  Biso   1.000  C
  C369     1.0000 0.91980  0.64950  0.64950  Biso   1.000  C
  C370     1.0000 0.88310  0.64100  0.64100  Biso   1.000  C
  C371     1.0000 0.83950  0.63160  0.63160  Biso   1.000  C
  C372     1.0000 0.75430  0.61230  0.61230  Biso   1.000  C
  H140     1.0000 0.72630  0.60490  0.60490  Biso   1.000  H
  C373     1.0000 0.46330  0.80430  0.80430  Biso   1.000  C
  H141     1.0000 0.43770  0.79340  0.79340  Biso   1.000  H
  C374     1.0000 0.46150  0.83640  0.83640  Biso   1.000  C
  C375     1.0000 0.41980  0.85050  0.85050  Biso   1.000  C
  C376     1.0000 0.38310  0.85900  0.85900  Biso   1.000  C
  C377     1.0000 0.33950  0.86840  0.86840  Biso   1.000  C
  C378     1.0000 0.25430  0.88770  0.88770  Biso   1.000  C
  H142     1.0000 0.22630  0.89510  0.89510  Biso   1.000  H
  C379     1.0000 0.96330  0.30430  0.30430  Biso   1.000  C
  H143     1.0000 0.93770  0.29340  0.29340  Biso   1.000  H
  C380     1.0000 0.96150  0.33640  0.33640  Biso   1.000  C
  C381     1.0000 0.91980  0.35050  0.35050  Biso   1.000  C
  C382     1.0000 0.88310  0.35900  0.35900  Biso   1.000  C
  C383     1.0000 0.83950  0.36840  0.36840  Biso   1.000  C
  C384     1.0000 0.75430  0.38770  0.38770  Biso   1.000  C
  H144     1.0000 0.72630  0.39510  0.39510  Biso   1.000  H
  C385     1.0000 0.53670  0.80430  0.19570  Biso   1.000  C
  H145     1.0000 0.56230  0.79340  0.20660  Biso   1.000  H
  C386     1.0000 0.53850  0.83640  0.16360  Biso   1.000  C
  C387     1.0000 0.58020  0.85050  0.14950  Biso   1.000  C
  C388     1.0000 0.61690  0.85900  0.14100  Biso   1.000  C
  C389     1.0000 0.66050  0.86840  0.13160  Biso   1.000  C
  C390     1.0000 0.74570  0.88770  0.11230  Biso   1.000  C
  H146     1.0000 0.77370  0.89510  0.10490  Biso   1.000  H
  C391     1.0000 0.03670  0.30430  0.69570  Biso   1.000  C
  H147     1.0000 0.06230  0.29340  0.70660  Biso   1.000  H
  C392     1.0000 0.03850  0.33640  0.66360  Biso   1.000  C
  C393     1.0000 0.08020  0.35050  0.64950  Biso   1.000  C
  C394     1.0000 0.11690  0.35900  0.64100  Biso   1.000  C
  C395     1.0000 0.16050  0.36840  0.63160  Biso   1.000  C
  C396     1.0000 0.24570  0.38770  0.61230  Biso   1.000  C
  H148     1.0000 0.27370  0.39510  0.60490  Biso   1.000  H
  C397     1.0000 0.53670  0.19570  0.80430  Biso   1.000  C
  H149     1.0000 0.56230  0.20660  0.79340  Biso   1.000  H
  C398     1.0000 0.53850  0.16360  0.83640  Biso   1.000  C
  C399     1.0000 0.58020  0.14950  0.85050  Biso   1.000  C
  C400     1.0000 0.61690  0.14100  0.85900  Biso   1.000  C
  C401     1.0000 0.66050  0.13160  0.86840  Biso   1.000  C
  C402     1.0000 0.74570  0.11230  0.88770  Biso   1.000  C
  H150     1.0000 0.77370  0.10490  0.89510  Biso   1.000  H
  C403     1.0000 0.03670  0.69570  0.30430  Biso   1.000  C
  H151     1.0000 0.06230  0.70660  0.29340  Biso   1.000  H
  C404     1.0000 0.03850  0.66360  0.33640  Biso   1.000  C
  C405     1.0000 0.08020  0.64950  0.35050  Biso   1.000  C
  C406     1.0000 0.11690  0.64100  0.35900  Biso   1.000  C
  C407     1.0000 0.16050  0.63160  0.36840  Biso   1.000  C
  C408     1.0000 0.24570  0.61230  0.38770  Biso   1.000  C
  H152     1.0000 0.27370  0.60490  0.39510  Biso   1.000  H
  C409     1.0000 0.19570  0.46330  0.19570  Biso   1.000  C
  H153     1.0000 0.20660  0.43770  0.20660  Biso   1.000  H
  C410     1.0000 0.16360  0.46150  0.16360  Biso   1.000  C
  C411     1.0000 0.14950  0.41980  0.14950  Biso   1.000  C
  C412     1.0000 0.14100  0.38310  0.14100  Biso   1.000  C
  C413     1.0000 0.13160  0.33950  0.13160  Biso   1.000  C
  C414     1.0000 0.11230  0.25430  0.11230  Biso   1.000  C
  H154     1.0000 0.10490  0.22630  0.10490  Biso   1.000  H
  C415     1.0000 0.69570  0.96330  0.69570  Biso   1.000  C
  H155     1.0000 0.70660  0.93770  0.70660  Biso   1.000  H
  C416     1.0000 0.66360  0.96150  0.66360  Biso   1.000  C
  C417     1.0000 0.64950  0.91980  0.64950  Biso   1.000  C
  C418     1.0000 0.64100  0.88310  0.64100  Biso   1.000  C
  C419     1.0000 0.63160  0.83950  0.63160  Biso   1.000  C
  C420     1.0000 0.61230  0.75430  0.61230  Biso   1.000  C
  H156     1.0000 0.60490  0.72630  0.60490  Biso   1.000  H
  C421     1.0000 0.80430  0.46330  0.80430  Biso   1.000  C
  H157     1.0000 0.79340  0.43770  0.79340  Biso   1.000  H
  C422     1.0000 0.83640  0.46150  0.83640  Biso   1.000  C
  C423     1.0000 0.85050  0.41980  0.85050  Biso   1.000  C
  C424     1.0000 0.85900  0.38310  0.85900  Biso   1.000  C
  C425     1.0000 0.86840  0.33950  0.86840  Biso   1.000  C
  C426     1.0000 0.88770  0.25430  0.88770  Biso   1.000  C
  H158     1.0000 0.89510  0.22630  0.89510  Biso   1.000  H
  C427     1.0000 0.30430  0.96330  0.30430  Biso   1.000  C
  H159     1.0000 0.29340  0.93770  0.29340  Biso   1.000  H
  C428     1.0000 0.33640  0.96150  0.33640  Biso   1.000  C
  C429     1.0000 0.35050  0.91980  0.35050  Biso   1.000  C
  C430     1.0000 0.35900  0.88310  0.35900  Biso   1.000  C
  C431     1.0000 0.36840  0.83950  0.36840  Biso   1.000  C
  C432     1.0000 0.38770  0.75430  0.38770  Biso   1.000  C
  H160     1.0000 0.39510  0.72630  0.39510  Biso   1.000  H
  C433     1.0000 0.19570  0.53670  0.80430  Biso   1.000  C
  H161     1.0000 0.20660  0.56230  0.79340  Biso   1.000  H
  C434     1.0000 0.16360  0.53850  0.83640  Biso   1.000  C
  C435     1.0000 0.14950  0.58020  0.85050  Biso   1.000  C
  C436     1.0000 0.14100  0.61690  0.85900  Biso   1.000  C
  C437     1.0000 0.13160  0.66050  0.86840  Biso   1.000  C
  C438     1.0000 0.11230  0.74570  0.88770  Biso   1.000  C
  H162     1.0000 0.10490  0.77370  0.89510  Biso   1.000  H
  C439     1.0000 0.69570  0.03670  0.30430  Biso   1.000  C
  H163     1.0000 0.70660  0.06230  0.29340  Biso   1.000  H
  C440     1.0000 0.66360  0.03850  0.33640  Biso   1.000  C
  C441     1.0000 0.64950  0.08020  0.35050  Biso   1.000  C
  C442     1.0000 0.64100  0.11690  0.35900  Biso   1.000  C
  C443     1.0000 0.63160  0.16050  0.36840  Biso   1.000  C
  C444     1.0000 0.61230  0.24570  0.38770  Biso   1.000  C
  H164     1.0000 0.60490  0.27370  0.39510  Biso   1.000  H
  C445     1.0000 0.80430  0.53670  0.19570  Biso   1.000  C
  H165     1.0000 0.79340  0.56230  0.20660  Biso   1.000  H
  C446     1.0000 0.83640  0.53850  0.16360  Biso   1.000  C
  C447     1.0000 0.85050  0.58020  0.14950  Biso   1.000  C
  C448     1.0000 0.85900  0.61690  0.14100  Biso   1.000  C
  C449     1.0000 0.86840  0.66050  0.13160  Biso   1.000  C
  C450     1.0000 0.88770  0.74570  0.11230  Biso   1.000  C
  H166     1.0000 0.89510  0.77370  0.10490  Biso   1.000  H
  C451     1.0000 0.30430  0.03670  0.69570  Biso   1.000  C
  H167     1.0000 0.29340  0.06230  0.70660  Biso   1.000  H
  C452     1.0000 0.33640  0.03850  0.66360  Biso   1.000  C
  C453     1.0000 0.35050  0.08020  0.64950  Biso   1.000  C
  C454     1.0000 0.35900  0.11690  0.64100  Biso   1.000  C
  C455     1.0000 0.36840  0.16050  0.63160  Biso   1.000  C
  C456     1.0000 0.38770  0.24570  0.61230  Biso   1.000  C
  H168     1.0000 0.39510  0.27370  0.60490  Biso   1.000  H
  C457     1.0000 0.19570  0.19570  0.53670  Biso   1.000  C
  H169     1.0000 0.20660  0.20660  0.56230  Biso   1.000  H
  C458     1.0000 0.16360  0.16360  0.53850  Biso   1.000  C
  C459     1.0000 0.14950  0.14950  0.58020  Biso   1.000  C
  C460     1.0000 0.14100  0.14100  0.61690  Biso   1.000  C
  C461     1.0000 0.13160  0.13160  0.66050  Biso   1.000  C
  C462     1.0000 0.11230  0.11230  0.74570  Biso   1.000  C
  H170     1.0000 0.10490  0.10490  0.77370  Biso   1.000  H
  C463     1.0000 0.69570  0.69570  0.03670  Biso   1.000  C
  H171     1.0000 0.70660  0.70660  0.06230  Biso   1.000  H
  C464     1.0000 0.66360  0.66360  0.03850  Biso   1.000  C
  C465     1.0000 0.64950  0.64950  0.08020  Biso   1.000  C
  C466     1.0000 0.64100  0.64100  0.11690  Biso   1.000  C
  C467     1.0000 0.63160  0.63160  0.16050  Biso   1.000  C
  C468     1.0000 0.61230  0.61230  0.24570  Biso   1.000  C
  H172     1.0000 0.60490  0.60490  0.27370  Biso   1.000  H
  C469     1.0000 0.80430  0.80430  0.53670  Biso   1.000  C
  H173     1.0000 0.79340  0.79340  0.56230  Biso   1.000  H
  C470     1.0000 0.83640  0.83640  0.53850  Biso   1.000  C
  C471     1.0000 0.85050  0.85050  0.58020  Biso   1.000  C
  C472     1.0000 0.85900  0.85900  0.61690  Biso   1.000  C
  C473     1.0000 0.86840  0.86840  0.66050  Biso   1.000  C
  C474     1.0000 0.88770  0.88770  0.74570  Biso   1.000  C
  H174     1.0000 0.89510  0.89510  0.77370  Biso   1.000  H
  C475     1.0000 0.30430  0.30430  0.03670  Biso   1.000  C
  H175     1.0000 0.29340  0.29340  0.06230  Biso   1.000  H
  C476     1.0000 0.33640  0.33640  0.03850  Biso   1.000  C
  C477     1.0000 0.35050  0.35050  0.08020  Biso   1.000  C
  C478     1.0000 0.35900  0.35900  0.11690  Biso   1.000  C
  C479     1.0000 0.36840  0.36840  0.16050  Biso   1.000  C
  C480     1.0000 0.38770  0.38770  0.24570  Biso   1.000  C
  H176     1.0000 0.39510  0.39510  0.27370  Biso   1.000  H
  C481     1.0000 0.19570  0.80430  0.46330  Biso   1.000  C
  H177     1.0000 0.20660  0.79340  0.43770  Biso   1.000  H
  C482     1.0000 0.16360  0.83640  0.46150  Biso   1.000  C
  C483     1.0000 0.14950  0.85050  0.41980  Biso   1.000  C
  C484     1.0000 0.14100  0.85900  0.38310  Biso   1.000  C
  C485     1.0000 0.13160  0.86840  0.33950  Biso   1.000  C
  C486     1.0000 0.11230  0.88770  0.25430  Biso   1.000  C
  H178     1.0000 0.10490  0.89510  0.22630  Biso   1.000  H
  C487     1.0000 0.69570  0.30430  0.96330  Biso   1.000  C
  H179     1.0000 0.70660  0.29340  0.93770  Biso   1.000  H
  C488     1.0000 0.66360  0.33640  0.96150  Biso   1.000  C
  C489     1.0000 0.64950  0.35050  0.91980  Biso   1.000  C
  C490     1.0000 0.64100  0.35900  0.88310  Biso   1.000  C
  C491     1.0000 0.63160  0.36840  0.83950  Biso   1.000  C
  C492     1.0000 0.61230  0.38770  0.75430  Biso   1.000  C
  H180     1.0000 0.60490  0.39510  0.72630  Biso   1.000  H
  C493     1.0000 0.80430  0.19570  0.46330  Biso   1.000  C
  H181     1.0000 0.79340  0.20660  0.43770  Biso   1.000  H
  C494     1.0000 0.83640  0.16360  0.46150  Biso   1.000  C
  C495     1.0000 0.85050  0.14950  0.41980  Biso   1.000  C
  C496     1.0000 0.85900  0.14100  0.38310  Biso   1.000  C
  C497     1.0000 0.86840  0.13160  0.33950  Biso   1.000  C
  C498     1.0000 0.88770  0.11230  0.25430  Biso   1.000  C
  H182     1.0000 0.89510  0.10490  0.22630  Biso   1.000  H
  C499     1.0000 0.30430  0.69570  0.96330  Biso   1.000  C
  H183     1.0000 0.29340  0.70660  0.93770  Biso   1.000  H
  C500     1.0000 0.33640  0.66360  0.96150  Biso   1.000  C
  C501     1.0000 0.35050  0.64950  0.91980  Biso   1.000  C
  C502     1.0000 0.35900  0.64100  0.88310  Biso   1.000  C
  C503     1.0000 0.36840  0.63160  0.83950  Biso   1.000  C
  C504     1.0000 0.38770  0.61230  0.75430  Biso   1.000  C
  H184     1.0000 0.39510  0.60490  0.72630  Biso   1.000  H
  C505     1.0000 0.19570  0.46330  0.80430  Biso   1.000  C
  H185     1.0000 0.20660  0.43770  0.79340  Biso   1.000  H
  C506     1.0000 0.16360  0.46150  0.83640  Biso   1.000  C
  C507     1.0000 0.14950  0.41980  0.85050  Biso   1.000  C
  C508     1.0000 0.14100  0.38310  0.85900  Biso   1.000  C
  C509     1.0000 0.13160  0.33950  0.86840  Biso   1.000  C
  C510     1.0000 0.11230  0.25430  0.88770  Biso   1.000  C
  H186     1.0000 0.10490  0.22630  0.89510  Biso   1.000  H
  C511     1.0000 0.69570  0.96330  0.30430  Biso   1.000  C
  H187     1.0000 0.70660  0.93770  0.29340  Biso   1.000  H
  C512     1.0000 0.66360  0.96150  0.33640  Biso   1.000  C
  C513     1.0000 0.64950  0.91980  0.35050  Biso   1.000  C
  C514     1.0000 0.64100  0.88310  0.35900  Biso   1.000  C
  C515     1.0000 0.63160  0.83950  0.36840  Biso   1.000  C
  C516     1.0000 0.61230  0.75430  0.38770  Biso   1.000  C
  H188     1.0000 0.60490  0.72630  0.39510  Biso   1.000  H
  C517     1.0000 0.80430  0.46330  0.19570  Biso   1.000  C
  H189     1.0000 0.79340  0.43770  0.20660  Biso   1.000  H
  C518     1.0000 0.83640  0.46150  0.16360  Biso   1.000  C
  C519     1.0000 0.85050  0.41980  0.14950  Biso   1.000  C
  C520     1.0000 0.85900  0.38310  0.14100  Biso   1.000  C
  C521     1.0000 0.86840  0.33950  0.13160  Biso   1.000  C
  C522     1.0000 0.88770  0.25430  0.11230  Biso   1.000  C
  H190     1.0000 0.89510  0.22630  0.10490  Biso   1.000  H
  C523     1.0000 0.30430  0.96330  0.69570  Biso   1.000  C
  H191     1.0000 0.29340  0.93770  0.70660  Biso   1.000  H
  C524     1.0000 0.33640  0.96150  0.66360  Biso   1.000  C
  C525     1.0000 0.35050  0.91980  0.64950  Biso   1.000  C
  C526     1.0000 0.35900  0.88310  0.64100  Biso   1.000  C
  C527     1.0000 0.36840  0.83950  0.63160  Biso   1.000  C
  C528     1.0000 0.38770  0.75430  0.61230  Biso   1.000  C
  H192     1.0000 0.39510  0.72630  0.60490  Biso   1.000  H
  C529     1.0000 0.80430  0.53670  0.80430  Biso   1.000  C
  H193     1.0000 0.79340  0.56230  0.79340  Biso   1.000  H
  C530     1.0000 0.83640  0.53850  0.83640  Biso   1.000  C
  C531     1.0000 0.85050  0.58020  0.85050  Biso   1.000  C
  C532     1.0000 0.85900  0.61690  0.85900  Biso   1.000  C
  C533     1.0000 0.86840  0.66050  0.86840  Biso   1.000  C
  C534     1.0000 0.88770  0.74570  0.88770  Biso   1.000  C
  H194     1.0000 0.89510  0.77370  0.89510  Biso   1.000  H
  C535     1.0000 0.30430  0.03670  0.30430  Biso   1.000  C
  H195     1.0000 0.29340  0.06230  0.29340  Biso   1.000  H
  C536     1.0000 0.33640  0.03850  0.33640  Biso   1.000  C
  C537     1.0000 0.35050  0.08020  0.35050  Biso   1.000  C
  C538     1.0000 0.35900  0.11690  0.35900  Biso   1.000  C
  C539     1.0000 0.36840  0.16050  0.36840  Biso   1.000  C
  C540     1.0000 0.38770  0.24570  0.38770  Biso   1.000  C
  H196     1.0000 0.39510  0.27370  0.39510  Biso   1.000  H
  C541     1.0000 0.19570  0.53670  0.19570  Biso   1.000  C
  H197     1.0000 0.20660  0.56230  0.20660  Biso   1.000  H
  C542     1.0000 0.16360  0.53850  0.16360  Biso   1.000  C
  C543     1.0000 0.14950  0.58020  0.14950  Biso   1.000  C
  C544     1.0000 0.14100  0.61690  0.14100  Biso   1.000  C
  C545     1.0000 0.13160  0.66050  0.13160  Biso   1.000  C
  C546     1.0000 0.11230  0.74570  0.11230  Biso   1.000  C
  H198     1.0000 0.10490  0.77370  0.10490  Biso   1.000  H
  C547     1.0000 0.69570  0.03670  0.69570  Biso   1.000  C
  H199     1.0000 0.70660  0.06230  0.70660  Biso   1.000  H
  C548     1.0000 0.66360  0.03850  0.66360  Biso   1.000  C
  C549     1.0000 0.64950  0.08020  0.64950  Biso   1.000  C
  C550     1.0000 0.64100  0.11690  0.64100  Biso   1.000  C
  C551     1.0000 0.63160  0.16050  0.63160  Biso   1.000  C
  C552     1.0000 0.61230  0.24570  0.61230  Biso   1.000  C
  H200     1.0000 0.60490  0.27370  0.60490  Biso   1.000  H
  C553     1.0000 0.46330  0.19570  0.80430  Biso   1.000  C
  H201     1.0000 0.43770  0.20660  0.79340  Biso   1.000  H
  C554     1.0000 0.46150  0.16360  0.83640  Biso   1.000  C
  C555     1.0000 0.41980  0.14950  0.85050  Biso   1.000  C
  C556     1.0000 0.38310  0.14100  0.85900  Biso   1.000  C
  C557     1.0000 0.33950  0.13160  0.86840  Biso   1.000  C
  C558     1.0000 0.25430  0.11230  0.88770  Biso   1.000  C
  H202     1.0000 0.22630  0.10490  0.89510  Biso   1.000  H
  C559     1.0000 0.96330  0.69570  0.30430  Biso   1.000  C
  H203     1.0000 0.93770  0.70660  0.29340  Biso   1.000  H
  C560     1.0000 0.96150  0.66360  0.33640  Biso   1.000  C
  C561     1.0000 0.91980  0.64950  0.35050  Biso   1.000  C
  C562     1.0000 0.88310  0.64100  0.35900  Biso   1.000  C
  C563     1.0000 0.83950  0.63160  0.36840  Biso   1.000  C
  C564     1.0000 0.75430  0.61230  0.38770  Biso   1.000  C
  H204     1.0000 0.72630  0.60490  0.39510  Biso   1.000  H
  C565     1.0000 0.46330  0.80430  0.19570  Biso   1.000  C
  H205     1.0000 0.43770  0.79340  0.20660  Biso   1.000  H
  C566     1.0000 0.46150  0.83640  0.16360  Biso   1.000  C
  C567     1.0000 0.41980  0.85050  0.14950  Biso   1.000  C
  C568     1.0000 0.38310  0.85900  0.14100  Biso   1.000  C
  C569     1.0000 0.33950  0.86840  0.13160  Biso   1.000  C
  C570     1.0000 0.25430  0.88770  0.11230  Biso   1.000  C
  H206     1.0000 0.22630  0.89510  0.10490  Biso   1.000  H
  C571     1.0000 0.96330  0.30430  0.69570  Biso   1.000  C
  H207     1.0000 0.93770  0.29340  0.70660  Biso   1.000  H
  C572     1.0000 0.96150  0.33640  0.66360  Biso   1.000  C
  C573     1.0000 0.91980  0.35050  0.64950  Biso   1.000  C
  C574     1.0000 0.88310  0.35900  0.64100  Biso   1.000  C
  C575     1.0000 0.83950  0.36840  0.63160  Biso   1.000  C
  C576     1.0000 0.75430  0.38770  0.61230  Biso   1.000  C
  H208     1.0000 0.72630  0.39510  0.60490  Biso   1.000  H
  C577     1.0000 0.53670  0.19570  0.19570  Biso   1.000  C
  H209     1.0000 0.56230  0.20660  0.20660  Biso   1.000  H
  C578     1.0000 0.53850  0.16360  0.16360  Biso   1.000  C
  C579     1.0000 0.58020  0.14950  0.14950  Biso   1.000  C
  C580     1.0000 0.61690  0.14100  0.14100  Biso   1.000  C
  C581     1.0000 0.66050  0.13160  0.13160  Biso   1.000  C
  C582     1.0000 0.74570  0.11230  0.11230  Biso   1.000  C
  H210     1.0000 0.77370  0.10490  0.10490  Biso   1.000  H
  C583     1.0000 0.03670  0.69570  0.69570  Biso   1.000  C
  H211     1.0000 0.06230  0.70660  0.70660  Biso   1.000  H
  C584     1.0000 0.03850  0.66360  0.66360  Biso   1.000  C
  C585     1.0000 0.08020  0.64950  0.64950  Biso   1.000  C
  C586     1.0000 0.11690  0.64100  0.64100  Biso   1.000  C
  C587     1.0000 0.16050  0.63160  0.63160  Biso   1.000  C
  C588     1.0000 0.24570  0.61230  0.61230  Biso   1.000  C
  H212     1.0000 0.27370  0.60490  0.60490  Biso   1.000  H
  C589     1.0000 0.53670  0.80430  0.80430  Biso   1.000  C
  H213     1.0000 0.56230  0.79340  0.79340  Biso   1.000  H
  C590     1.0000 0.53850  0.83640  0.83640  Biso   1.000  C
  C591     1.0000 0.58020  0.85050  0.85050  Biso   1.000  C
  C592     1.0000 0.61690  0.85900  0.85900  Biso   1.000  C
  C593     1.0000 0.66050  0.86840  0.86840  Biso   1.000  C
  C594     1.0000 0.74570  0.88770  0.88770  Biso   1.000  C
  H214     1.0000 0.77370  0.89510  0.89510  Biso   1.000  H
  C595     1.0000 0.03670  0.30430  0.30430  Biso   1.000  C
  H215     1.0000 0.06230  0.29340  0.29340  Biso   1.000  H
  C596     1.0000 0.03850  0.33640  0.33640  Biso   1.000  C
  C597     1.0000 0.08020  0.35050  0.35050  Biso   1.000  C
  C598     1.0000 0.11690  0.35900  0.35900  Biso   1.000  C
  C599     1.0000 0.16050  0.36840  0.36840  Biso   1.000  C
  C600     1.0000 0.24570  0.38770  0.38770  Biso   1.000  C
  H216     1.0000 0.27370  0.39510  0.39510  Biso   1.000  H
