data_image0
_cell_length_a       38.7204
_cell_length_b       38.7204
_cell_length_c       38.7204
_cell_angle_alpha    90
_cell_angle_beta     90
_cell_angle_gamma    90

_symmetry_space_group_name_H-M    "P 1"
_symmetry_int_tables_number       1

loop_
  _symmetry_equiv_pos_as_xyz
  'x, y, z'

loop_
  _atom_site_label
  _atom_site_occupancy
  _atom_site_fract_x
  _atom_site_fract_y
  _atom_site_fract_z
  _atom_site_thermal_displace_type
  _atom_site_B_iso_or_equiv
  _atom_site_type_symbol
  O1       1.0000 0.82577  0.87622  0.96495  Biso   1.000  O
  O2       1.0000 0.78584  0.83452  0.96414  Biso   1.000  O
  C1       1.0000 0.79950  0.86174  0.95395  Biso   1.000  C
  C2       1.0000 0.78151  0.88044  0.92488  Biso   1.000  C
  C3       1.0000 0.75303  0.86594  0.90863  Biso   1.000  C
  H1       1.0000 0.74420  0.84450  0.91650  Biso   1.000  H
  C4       1.0000 0.69235  0.88172  0.83670  Biso   1.000  C
  C5       1.0000 0.66197  0.86384  0.81827  Biso   1.000  C
  O3       1.0000 0.70069  0.90839  0.82081  Biso   1.000  O
  C6       1.0000 0.66950  0.83818  0.79354  Biso   1.000  C
  C7       1.0000 0.62887  0.87116  0.82670  Biso   1.000  C
  H2       1.0000 0.69280  0.83240  0.78850  Biso   1.000  H
  C8       1.0000 0.64327  0.82168  0.77691  Biso   1.000  C
  C9       1.0000 0.60194  0.85412  0.81097  Biso   1.000  C
  H3       1.0000 0.62420  0.88820  0.84370  Biso   1.000  H
  H4       1.0000 0.64840  0.80530  0.75940  Biso   1.000  H
  C10      1.0000 0.60923  0.82859  0.78526  Biso   1.000  C
  H5       1.0000 0.57880  0.85930  0.81710  Biso   1.000  H
  N1       1.0000 0.57900  0.81130  0.76490  Biso   1.000  N
  O4       1.0000 0.57600  0.80650  0.76710  Biso   1.000  O
  H6       1.0000 0.57170  0.81890  0.74420  Biso   1.000  H
  H7       1.0000 0.69830  0.84520  0.87310  Biso   1.000  H
  O5       1.0000 0.32577  0.37622  0.46495  Biso   1.000  O
  O6       1.0000 0.28584  0.33452  0.46414  Biso   1.000  O
  C11      1.0000 0.29950  0.36174  0.45395  Biso   1.000  C
  C12      1.0000 0.28151  0.38044  0.42488  Biso   1.000  C
  C13      1.0000 0.25303  0.36594  0.40863  Biso   1.000  C
  H8       1.0000 0.24420  0.34450  0.41650  Biso   1.000  H
  C14      1.0000 0.19235  0.38172  0.33670  Biso   1.000  C
  C15      1.0000 0.16197  0.36384  0.31827  Biso   1.000  C
  O7       1.0000 0.20069  0.40839  0.32081  Biso   1.000  O
  C16      1.0000 0.16950  0.33818  0.29354  Biso   1.000  C
  C17      1.0000 0.12887  0.37116  0.32670  Biso   1.000  C
  H9       1.0000 0.19280  0.33240  0.28850  Biso   1.000  H
  C18      1.0000 0.14327  0.32168  0.27691  Biso   1.000  C
  C19      1.0000 0.10194  0.35412  0.31097  Biso   1.000  C
  H10      1.0000 0.12420  0.38820  0.34370  Biso   1.000  H
  H11      1.0000 0.14840  0.30530  0.25940  Biso   1.000  H
  C20      1.0000 0.10923  0.32859  0.28526  Biso   1.000  C
  H12      1.0000 0.07880  0.35930  0.31710  Biso   1.000  H
  N2       1.0000 0.07900  0.31130  0.26490  Biso   1.000  N
  O8       1.0000 0.07600  0.30650  0.26710  Biso   1.000  O
  H13      1.0000 0.07170  0.31890  0.24420  Biso   1.000  H
  H14      1.0000 0.19830  0.34520  0.37310  Biso   1.000  H
  O9       1.0000 0.17423  0.12378  0.96495  Biso   1.000  O
  O10      1.0000 0.21416  0.16548  0.96414  Biso   1.000  O
  C21      1.0000 0.20050  0.13826  0.95395  Biso   1.000  C
  C22      1.0000 0.21849  0.11956  0.92488  Biso   1.000  C
  C23      1.0000 0.24697  0.13406  0.90863  Biso   1.000  C
  H15      1.0000 0.25580  0.15550  0.91650  Biso   1.000  H
  C24      1.0000 0.30765  0.11828  0.83670  Biso   1.000  C
  C25      1.0000 0.33803  0.13616  0.81827  Biso   1.000  C
  O11      1.0000 0.29931  0.09161  0.82081  Biso   1.000  O
  C26      1.0000 0.33050  0.16182  0.79354  Biso   1.000  C
  C27      1.0000 0.37113  0.12884  0.82670  Biso   1.000  C
  H16      1.0000 0.30720  0.16760  0.78850  Biso   1.000  H
  C28      1.0000 0.35673  0.17832  0.77691  Biso   1.000  C
  C29      1.0000 0.39806  0.14588  0.81097  Biso   1.000  C
  H17      1.0000 0.37580  0.11180  0.84370  Biso   1.000  H
  H18      1.0000 0.35160  0.19470  0.75940  Biso   1.000  H
  C30      1.0000 0.39077  0.17141  0.78526  Biso   1.000  C
  H19      1.0000 0.42120  0.14070  0.81710  Biso   1.000  H
  N3       1.0000 0.42100  0.18870  0.76490  Biso   1.000  N
  O12      1.0000 0.42400  0.19350  0.76710  Biso   1.000  O
  H20      1.0000 0.42830  0.18110  0.74420  Biso   1.000  H
  H21      1.0000 0.30170  0.15480  0.87310  Biso   1.000  H
  O13      1.0000 0.67423  0.62378  0.46495  Biso   1.000  O
  O14      1.0000 0.71416  0.66548  0.46414  Biso   1.000  O
  C31      1.0000 0.70050  0.63826  0.45395  Biso   1.000  C
  C32      1.0000 0.71849  0.61956  0.42488  Biso   1.000  C
  C33      1.0000 0.74697  0.63406  0.40863  Biso   1.000  C
  H22      1.0000 0.75580  0.65550  0.41650  Biso   1.000  H
  C34      1.0000 0.80765  0.61828  0.33670  Biso   1.000  C
  C35      1.0000 0.83803  0.63616  0.31827  Biso   1.000  C
  O15      1.0000 0.79931  0.59161  0.32081  Biso   1.000  O
  C36      1.0000 0.83050  0.66182  0.29354  Biso   1.000  C
  C37      1.0000 0.87113  0.62884  0.32670  Biso   1.000  C
  H23      1.0000 0.80720  0.66760  0.28850  Biso   1.000  H
  C38      1.0000 0.85673  0.67832  0.27691  Biso   1.000  C
  C39      1.0000 0.89806  0.64588  0.31097  Biso   1.000  C
  H24      1.0000 0.87580  0.61180  0.34370  Biso   1.000  H
  H25      1.0000 0.85160  0.69470  0.25940  Biso   1.000  H
  C40      1.0000 0.89077  0.67141  0.28526  Biso   1.000  C
  H26      1.0000 0.92120  0.64070  0.31710  Biso   1.000  H
  N4       1.0000 0.92100  0.68870  0.26490  Biso   1.000  N
  O16      1.0000 0.92400  0.69350  0.26710  Biso   1.000  O
  H27      1.0000 0.92830  0.68110  0.24420  Biso   1.000  H
  H28      1.0000 0.80170  0.65480  0.37310  Biso   1.000  H
  O17      1.0000 0.17423  0.87622  0.03505  Biso   1.000  O
  O18      1.0000 0.21416  0.83452  0.03586  Biso   1.000  O
  C41      1.0000 0.20050  0.86174  0.04605  Biso   1.000  C
  C42      1.0000 0.21849  0.88044  0.07512  Biso   1.000  C
  C43      1.0000 0.24697  0.86594  0.09137  Biso   1.000  C
  H29      1.0000 0.25580  0.84450  0.08350  Biso   1.000  H
  C44      1.0000 0.30765  0.88172  0.16330  Biso   1.000  C
  C45      1.0000 0.33803  0.86384  0.18173  Biso   1.000  C
  O19      1.0000 0.29931  0.90839  0.17919  Biso   1.000  O
  C46      1.0000 0.33050  0.83818  0.20646  Biso   1.000  C
  C47      1.0000 0.37113  0.87116  0.17330  Biso   1.000  C
  H30      1.0000 0.30720  0.83240  0.21150  Biso   1.000  H
  C48      1.0000 0.35673  0.82168  0.22309  Biso   1.000  C
  C49      1.0000 0.39806  0.85412  0.18903  Biso   1.000  C
  H31      1.0000 0.37580  0.88820  0.15630  Biso   1.000  H
  H32      1.0000 0.35160  0.80530  0.24060  Biso   1.000  H
  C50      1.0000 0.39077  0.82859  0.21474  Biso   1.000  C
  H33      1.0000 0.42120  0.85930  0.18290  Biso   1.000  H
  N5       1.0000 0.42100  0.81130  0.23510  Biso   1.000  N
  O20      1.0000 0.42400  0.80650  0.23290  Biso   1.000  O
  H34      1.0000 0.42830  0.81890  0.25580  Biso   1.000  H
  H35      1.0000 0.30170  0.84520  0.12690  Biso   1.000  H
  O21      1.0000 0.67423  0.37622  0.53505  Biso   1.000  O
  O22      1.0000 0.71416  0.33452  0.53586  Biso   1.000  O
  C51      1.0000 0.70050  0.36174  0.54605  Biso   1.000  C
  C52      1.0000 0.71849  0.38044  0.57512  Biso   1.000  C
  C53      1.0000 0.74697  0.36594  0.59137  Biso   1.000  C
  H36      1.0000 0.75580  0.34450  0.58350  Biso   1.000  H
  C54      1.0000 0.80765  0.38172  0.66330  Biso   1.000  C
  C55      1.0000 0.83803  0.36384  0.68173  Biso   1.000  C
  O23      1.0000 0.79931  0.40839  0.67919  Biso   1.000  O
  C56      1.0000 0.83050  0.33818  0.70646  Biso   1.000  C
  C57      1.0000 0.87113  0.37116  0.67330  Biso   1.000  C
  H37      1.0000 0.80720  0.33240  0.71150  Biso   1.000  H
  C58      1.0000 0.85673  0.32168  0.72309  Biso   1.000  C
  C59      1.0000 0.89806  0.35412  0.68903  Biso   1.000  C
  H38      1.0000 0.87580  0.38820  0.65630  Biso   1.000  H
  H39      1.0000 0.85160  0.30530  0.74060  Biso   1.000  H
  C60      1.0000 0.89077  0.32859  0.71474  Biso   1.000  C
  H40      1.0000 0.92120  0.35930  0.68290  Biso   1.000  H
  N6       1.0000 0.92100  0.31130  0.73510  Biso   1.000  N
  O24      1.0000 0.92400  0.30650  0.73290  Biso   1.000  O
  H41      1.0000 0.92830  0.31890  0.75580  Biso   1.000  H
  H42      1.0000 0.80170  0.34520  0.62690  Biso   1.000  H
  O25      1.0000 0.82577  0.12378  0.03505  Biso   1.000  O
  O26      1.0000 0.78584  0.16548  0.03586  Biso   1.000  O
  C61      1.0000 0.79950  0.13826  0.04605  Biso   1.000  C
  C62      1.0000 0.78151  0.11956  0.07512  Biso   1.000  C
  C63      1.0000 0.75303  0.13406  0.09137  Biso   1.000  C
  H43      1.0000 0.74420  0.15550  0.08350  Biso   1.000  H
  C64      1.0000 0.69235  0.11828  0.16330  Biso   1.000  C
  C65      1.0000 0.66197  0.13616  0.18173  Biso   1.000  C
  O27      1.0000 0.70069  0.09161  0.17919  Biso   1.000  O
  C66      1.0000 0.66950  0.16182  0.20646  Biso   1.000  C
  C67      1.0000 0.62887  0.12884  0.17330  Biso   1.000  C
  H44      1.0000 0.69280  0.16760  0.21150  Biso   1.000  H
  C68      1.0000 0.64327  0.17832  0.22309  Biso   1.000  C
  C69      1.0000 0.60194  0.14588  0.18903  Biso   1.000  C
  H45      1.0000 0.62420  0.11180  0.15630  Biso   1.000  H
  H46      1.0000 0.64840  0.19470  0.24060  Biso   1.000  H
  C70      1.0000 0.60923  0.17141  0.21474  Biso   1.000  C
  H47      1.0000 0.57880  0.14070  0.18290  Biso   1.000  H
  N7       1.0000 0.57900  0.18870  0.23510  Biso   1.000  N
  O28      1.0000 0.57600  0.19350  0.23290  Biso   1.000  O
  H48      1.0000 0.57170  0.18110  0.25580  Biso   1.000  H
  H49      1.0000 0.69830  0.15480  0.12690  Biso   1.000  H
  O29      1.0000 0.32577  0.62378  0.53505  Biso   1.000  O
  O30      1.0000 0.28584  0.66548  0.53586  Biso   1.000  O
  C71      1.0000 0.29950  0.63826  0.54605  Biso   1.000  C
  C72      1.0000 0.28151  0.61956  0.57512  Biso   1.000  C
  C73      1.0000 0.25303  0.63406  0.59137  Biso   1.000  C
  H50      1.0000 0.24420  0.65550  0.58350  Biso   1.000  H
  C74      1.0000 0.19235  0.61828  0.66330  Biso   1.000  C
  C75      1.0000 0.16197  0.63616  0.68173  Biso   1.000  C
  O31      1.0000 0.20069  0.59161  0.67919  Biso   1.000  O
  C76      1.0000 0.16950  0.66182  0.70646  Biso   1.000  C
  C77      1.0000 0.12887  0.62884  0.67330  Biso   1.000  C
  H51      1.0000 0.19280  0.66760  0.71150  Biso   1.000  H
  C78      1.0000 0.14327  0.67832  0.72309  Biso   1.000  C
  C79      1.0000 0.10194  0.64588  0.68903  Biso   1.000  C
  H52      1.0000 0.12420  0.61180  0.65630  Biso   1.000  H
  H53      1.0000 0.14840  0.69470  0.74060  Biso   1.000  H
  C80      1.0000 0.10923  0.67141  0.71474  Biso   1.000  C
  H54      1.0000 0.07880  0.64070  0.68290  Biso   1.000  H
  N8       1.0000 0.07900  0.68870  0.73510  Biso   1.000  N
  O32      1.0000 0.07600  0.69350  0.73290  Biso   1.000  O
  H55      1.0000 0.07170  0.68110  0.75580  Biso   1.000  H
  H56      1.0000 0.19830  0.65480  0.62690  Biso   1.000  H
  O33      1.0000 0.96495  0.82577  0.87622  Biso   1.000  O
  O34      1.0000 0.96414  0.78584  0.83452  Biso   1.000  O
  C81      1.0000 0.95395  0.79950  0.86174  Biso   1.000  C
  C82      1.0000 0.92488  0.78151  0.88044  Biso   1.000  C
  C83      1.0000 0.90863  0.75303  0.86594  Biso   1.000  C
  H57      1.0000 0.91650  0.74420  0.84450  Biso   1.000  H
  C84      1.0000 0.83670  0.69235  0.88172  Biso   1.000  C
  C85      1.0000 0.81827  0.66197  0.86384  Biso   1.000  C
  O35      1.0000 0.82081  0.70069  0.90839  Biso   1.000  O
  C86      1.0000 0.79354  0.66950  0.83818  Biso   1.000  C
  C87      1.0000 0.82670  0.62887  0.87116  Biso   1.000  C
  H58      1.0000 0.78850  0.69280  0.83240  Biso   1.000  H
  C88      1.0000 0.77691  0.64327  0.82168  Biso   1.000  C
  C89      1.0000 0.81097  0.60194  0.85412  Biso   1.000  C
  H59      1.0000 0.84370  0.62420  0.88820  Biso   1.000  H
  H60      1.0000 0.75940  0.64840  0.80530  Biso   1.000  H
  C90      1.0000 0.78526  0.60923  0.82859  Biso   1.000  C
  H61      1.0000 0.81710  0.57880  0.85930  Biso   1.000  H
  N9       1.0000 0.76490  0.57900  0.81130  Biso   1.000  N
  O36      1.0000 0.76710  0.57600  0.80650  Biso   1.000  O
  H62      1.0000 0.74420  0.57170  0.81890  Biso   1.000  H
  H63      1.0000 0.87310  0.69830  0.84520  Biso   1.000  H
  O37      1.0000 0.46495  0.32577  0.37622  Biso   1.000  O
  O38      1.0000 0.46414  0.28584  0.33452  Biso   1.000  O
  C91      1.0000 0.45395  0.29950  0.36174  Biso   1.000  C
  C92      1.0000 0.42488  0.28151  0.38044  Biso   1.000  C
  C93      1.0000 0.40863  0.25303  0.36594  Biso   1.000  C
  H64      1.0000 0.41650  0.24420  0.34450  Biso   1.000  H
  C94      1.0000 0.33670  0.19235  0.38172  Biso   1.000  C
  C95      1.0000 0.31827  0.16197  0.36384  Biso   1.000  C
  O39      1.0000 0.32081  0.20069  0.40839  Biso   1.000  O
  C96      1.0000 0.29354  0.16950  0.33818  Biso   1.000  C
  C97      1.0000 0.32670  0.12887  0.37116  Biso   1.000  C
  H65      1.0000 0.28850  0.19280  0.33240  Biso   1.000  H
  C98      1.0000 0.27691  0.14327  0.32168  Biso   1.000  C
  C99      1.0000 0.31097  0.10194  0.35412  Biso   1.000  C
  H66      1.0000 0.34370  0.12420  0.38820  Biso   1.000  H
  H67      1.0000 0.25940  0.14840  0.30530  Biso   1.000  H
  C100     1.0000 0.28526  0.10923  0.32859  Biso   1.000  C
  H68      1.0000 0.31710  0.07880  0.35930  Biso   1.000  H
  N10      1.0000 0.26490  0.07900  0.31130  Biso   1.000  N
  O40      1.0000 0.26710  0.07600  0.30650  Biso   1.000  O
  H69      1.0000 0.24420  0.07170  0.31890  Biso   1.000  H
  H70      1.0000 0.37310  0.19830  0.34520  Biso   1.000  H
  O41      1.0000 0.96495  0.17423  0.12378  Biso   1.000  O
  O42      1.0000 0.96414  0.21416  0.16548  Biso   1.000  O
  C101     1.0000 0.95395  0.20050  0.13826  Biso   1.000  C
  C102     1.0000 0.92488  0.21849  0.11956  Biso   1.000  C
  C103     1.0000 0.90863  0.24697  0.13406  Biso   1.000  C
  H71      1.0000 0.91650  0.25580  0.15550  Biso   1.000  H
  C104     1.0000 0.83670  0.30765  0.11828  Biso   1.000  C
  C105     1.0000 0.81827  0.33803  0.13616  Biso   1.000  C
  O43      1.0000 0.82081  0.29931  0.09161  Biso   1.000  O
  C106     1.0000 0.79354  0.33050  0.16182  Biso   1.000  C
  C107     1.0000 0.82670  0.37113  0.12884  Biso   1.000  C
  H72      1.0000 0.78850  0.30720  0.16760  Biso   1.000  H
  C108     1.0000 0.77691  0.35673  0.17832  Biso   1.000  C
  C109     1.0000 0.81097  0.39806  0.14588  Biso   1.000  C
  H73      1.0000 0.84370  0.37580  0.11180  Biso   1.000  H
  H74      1.0000 0.75940  0.35160  0.19470  Biso   1.000  H
  C110     1.0000 0.78526  0.39077  0.17141  Biso   1.000  C
  H75      1.0000 0.81710  0.42120  0.14070  Biso   1.000  H
  N11      1.0000 0.76490  0.42100  0.18870  Biso   1.000  N
  O44      1.0000 0.76710  0.42400  0.19350  Biso   1.000  O
  H76      1.0000 0.74420  0.42830  0.18110  Biso   1.000  H
  H77      1.0000 0.87310  0.30170  0.15480  Biso   1.000  H
  O45      1.0000 0.46495  0.67423  0.62378  Biso   1.000  O
  O46      1.0000 0.46414  0.71416  0.66548  Biso   1.000  O
  C111     1.0000 0.45395  0.70050  0.63826  Biso   1.000  C
  C112     1.0000 0.42488  0.71849  0.61956  Biso   1.000  C
  C113     1.0000 0.40863  0.74697  0.63406  Biso   1.000  C
  H78      1.0000 0.41650  0.75580  0.65550  Biso   1.000  H
  C114     1.0000 0.33670  0.80765  0.61828  Biso   1.000  C
  C115     1.0000 0.31827  0.83803  0.63616  Biso   1.000  C
  O47      1.0000 0.32081  0.79931  0.59161  Biso   1.000  O
  C116     1.0000 0.29354  0.83050  0.66182  Biso   1.000  C
  C117     1.0000 0.32670  0.87113  0.62884  Biso   1.000  C
  H79      1.0000 0.28850  0.80720  0.66760  Biso   1.000  H
  C118     1.0000 0.27691  0.85673  0.67832  Biso   1.000  C
  C119     1.0000 0.31097  0.89806  0.64588  Biso   1.000  C
  H80      1.0000 0.34370  0.87580  0.61180  Biso   1.000  H
  H81      1.0000 0.25940  0.85160  0.69470  Biso   1.000  H
  C120     1.0000 0.28526  0.89077  0.67141  Biso   1.000  C
  H82      1.0000 0.31710  0.92120  0.64070  Biso   1.000  H
  N12      1.0000 0.26490  0.92100  0.68870  Biso   1.000  N
  O48      1.0000 0.26710  0.92400  0.69350  Biso   1.000  O
  H83      1.0000 0.24420  0.92830  0.68110  Biso   1.000  H
  H84      1.0000 0.37310  0.80170  0.65480  Biso   1.000  H
  O49      1.0000 0.03505  0.17423  0.87622  Biso   1.000  O
  O50      1.0000 0.03586  0.21416  0.83452  Biso   1.000  O
  C121     1.0000 0.04605  0.20050  0.86174  Biso   1.000  C
  C122     1.0000 0.07512  0.21849  0.88044  Biso   1.000  C
  C123     1.0000 0.09137  0.24697  0.86594  Biso   1.000  C
  H85      1.0000 0.08350  0.25580  0.84450  Biso   1.000  H
  C124     1.0000 0.16330  0.30765  0.88172  Biso   1.000  C
  C125     1.0000 0.18173  0.33803  0.86384  Biso   1.000  C
  O51      1.0000 0.17919  0.29931  0.90839  Biso   1.000  O
  C126     1.0000 0.20646  0.33050  0.83818  Biso   1.000  C
  C127     1.0000 0.17330  0.37113  0.87116  Biso   1.000  C
  H86      1.0000 0.21150  0.30720  0.83240  Biso   1.000  H
  C128     1.0000 0.22309  0.35673  0.82168  Biso   1.000  C
  C129     1.0000 0.18903  0.39806  0.85412  Biso   1.000  C
  H87      1.0000 0.15630  0.37580  0.88820  Biso   1.000  H
  H88      1.0000 0.24060  0.35160  0.80530  Biso   1.000  H
  C130     1.0000 0.21474  0.39077  0.82859  Biso   1.000  C
  H89      1.0000 0.18290  0.42120  0.85930  Biso   1.000  H
  N13      1.0000 0.23510  0.42100  0.81130  Biso   1.000  N
  O52      1.0000 0.23290  0.42400  0.80650  Biso   1.000  O
  H90      1.0000 0.25580  0.42830  0.81890  Biso   1.000  H
  H91      1.0000 0.12690  0.30170  0.84520  Biso   1.000  H
  O53      1.0000 0.53505  0.67423  0.37622  Biso   1.000  O
  O54      1.0000 0.53586  0.71416  0.33452  Biso   1.000  O
  C131     1.0000 0.54605  0.70050  0.36174  Biso   1.000  C
  C132     1.0000 0.57512  0.71849  0.38044  Biso   1.000  C
  C133     1.0000 0.59137  0.74697  0.36594  Biso   1.000  C
  H92      1.0000 0.58350  0.75580  0.34450  Biso   1.000  H
  C134     1.0000 0.66330  0.80765  0.38172  Biso   1.000  C
  C135     1.0000 0.68173  0.83803  0.36384  Biso   1.000  C
  O55      1.0000 0.67919  0.79931  0.40839  Biso   1.000  O
  C136     1.0000 0.70646  0.83050  0.33818  Biso   1.000  C
  C137     1.0000 0.67330  0.87113  0.37116  Biso   1.000  C
  H93      1.0000 0.71150  0.80720  0.33240  Biso   1.000  H
  C138     1.0000 0.72309  0.85673  0.32168  Biso   1.000  C
  C139     1.0000 0.68903  0.89806  0.35412  Biso   1.000  C
  H94      1.0000 0.65630  0.87580  0.38820  Biso   1.000  H
  H95      1.0000 0.74060  0.85160  0.30530  Biso   1.000  H
  C140     1.0000 0.71474  0.89077  0.32859  Biso   1.000  C
  H96      1.0000 0.68290  0.92120  0.35930  Biso   1.000  H
  N14      1.0000 0.73510  0.92100  0.31130  Biso   1.000  N
  O56      1.0000 0.73290  0.92400  0.30650  Biso   1.000  O
  H97      1.0000 0.75580  0.92830  0.31890  Biso   1.000  H
  H98      1.0000 0.62690  0.80170  0.34520  Biso   1.000  H
  O57      1.0000 0.03505  0.82577  0.12378  Biso   1.000  O
  O58      1.0000 0.03586  0.78584  0.16548  Biso   1.000  O
  C141     1.0000 0.04605  0.79950  0.13826  Biso   1.000  C
  C142     1.0000 0.07512  0.78151  0.11956  Biso   1.000  C
  C143     1.0000 0.09137  0.75303  0.13406  Biso   1.000  C
  H99      1.0000 0.08350  0.74420  0.15550  Biso   1.000  H
  C144     1.0000 0.16330  0.69235  0.11828  Biso   1.000  C
  C145     1.0000 0.18173  0.66197  0.13616  Biso   1.000  C
  O59      1.0000 0.17919  0.70069  0.09161  Biso   1.000  O
  C146     1.0000 0.20646  0.66950  0.16182  Biso   1.000  C
  C147     1.0000 0.17330  0.62887  0.12884  Biso   1.000  C
  H100     1.0000 0.21150  0.69280  0.16760  Biso   1.000  H
  C148     1.0000 0.22309  0.64327  0.17832  Biso   1.000  C
  C149     1.0000 0.18903  0.60194  0.14588  Biso   1.000  C
  H101     1.0000 0.15630  0.62420  0.11180  Biso   1.000  H
  H102     1.0000 0.24060  0.64840  0.19470  Biso   1.000  H
  C150     1.0000 0.21474  0.60923  0.17141  Biso   1.000  C
  H103     1.0000 0.18290  0.57880  0.14070  Biso   1.000  H
  N15      1.0000 0.23510  0.57900  0.18870  Biso   1.000  N
  O60      1.0000 0.23290  0.57600  0.19350  Biso   1.000  O
  H104     1.0000 0.25580  0.57170  0.18110  Biso   1.000  H
  H105     1.0000 0.12690  0.69830  0.15480  Biso   1.000  H
  O61      1.0000 0.53505  0.32577  0.62378  Biso   1.000  O
  O62      1.0000 0.53586  0.28584  0.66548  Biso   1.000  O
  C151     1.0000 0.54605  0.29950  0.63826  Biso   1.000  C
  C152     1.0000 0.57512  0.28151  0.61956  Biso   1.000  C
  C153     1.0000 0.59137  0.25303  0.63406  Biso   1.000  C
  H106     1.0000 0.58350  0.24420  0.65550  Biso   1.000  H
  C154     1.0000 0.66330  0.19235  0.61828  Biso   1.000  C
  C155     1.0000 0.68173  0.16197  0.63616  Biso   1.000  C
  O63      1.0000 0.67919  0.20069  0.59161  Biso   1.000  O
  C156     1.0000 0.70646  0.16950  0.66182  Biso   1.000  C
  C157     1.0000 0.67330  0.12887  0.62884  Biso   1.000  C
  H107     1.0000 0.71150  0.19280  0.66760  Biso   1.000  H
  C158     1.0000 0.72309  0.14327  0.67832  Biso   1.000  C
  C159     1.0000 0.68903  0.10194  0.64588  Biso   1.000  C
  H108     1.0000 0.65630  0.12420  0.61180  Biso   1.000  H
  H109     1.0000 0.74060  0.14840  0.69470  Biso   1.000  H
  C160     1.0000 0.71474  0.10923  0.67141  Biso   1.000  C
  H110     1.0000 0.68290  0.07880  0.64070  Biso   1.000  H
  N16      1.0000 0.73510  0.07900  0.68870  Biso   1.000  N
  O64      1.0000 0.73290  0.07600  0.69350  Biso   1.000  O
  H111     1.0000 0.75580  0.07170  0.68110  Biso   1.000  H
  H112     1.0000 0.62690  0.19830  0.65480  Biso   1.000  H
  O65      1.0000 0.87622  0.96495  0.82577  Biso   1.000  O
  O66      1.0000 0.83452  0.96414  0.78584  Biso   1.000  O
  C161     1.0000 0.86174  0.95395  0.79950  Biso   1.000  C
  C162     1.0000 0.88044  0.92488  0.78151  Biso   1.000  C
  C163     1.0000 0.86594  0.90863  0.75303  Biso   1.000  C
  H113     1.0000 0.84450  0.91650  0.74420  Biso   1.000  H
  C164     1.0000 0.88172  0.83670  0.69235  Biso   1.000  C
  C165     1.0000 0.86384  0.81827  0.66197  Biso   1.000  C
  O67      1.0000 0.90839  0.82081  0.70069  Biso   1.000  O
  C166     1.0000 0.83818  0.79354  0.66950  Biso   1.000  C
  C167     1.0000 0.87116  0.82670  0.62887  Biso   1.000  C
  H114     1.0000 0.83240  0.78850  0.69280  Biso   1.000  H
  C168     1.0000 0.82168  0.77691  0.64327  Biso   1.000  C
  C169     1.0000 0.85412  0.81097  0.60194  Biso   1.000  C
  H115     1.0000 0.88820  0.84370  0.62420  Biso   1.000  H
  H116     1.0000 0.80530  0.75940  0.64840  Biso   1.000  H
  C170     1.0000 0.82859  0.78526  0.60923  Biso   1.000  C
  H117     1.0000 0.85930  0.81710  0.57880  Biso   1.000  H
  N17      1.0000 0.81130  0.76490  0.57900  Biso   1.000  N
  O68      1.0000 0.80650  0.76710  0.57600  Biso   1.000  O
  H118     1.0000 0.81890  0.74420  0.57170  Biso   1.000  H
  H119     1.0000 0.84520  0.87310  0.69830  Biso   1.000  H
  O69      1.0000 0.37622  0.46495  0.32577  Biso   1.000  O
  O70      1.0000 0.33452  0.46414  0.28584  Biso   1.000  O
  C171     1.0000 0.36174  0.45395  0.29950  Biso   1.000  C
  C172     1.0000 0.38044  0.42488  0.28151  Biso   1.000  C
  C173     1.0000 0.36594  0.40863  0.25303  Biso   1.000  C
  H120     1.0000 0.34450  0.41650  0.24420  Biso   1.000  H
  C174     1.0000 0.38172  0.33670  0.19235  Biso   1.000  C
  C175     1.0000 0.36384  0.31827  0.16197  Biso   1.000  C
  O71      1.0000 0.40839  0.32081  0.20069  Biso   1.000  O
  C176     1.0000 0.33818  0.29354  0.16950  Biso   1.000  C
  C177     1.0000 0.37116  0.32670  0.12887  Biso   1.000  C
  H121     1.0000 0.33240  0.28850  0.19280  Biso   1.000  H
  C178     1.0000 0.32168  0.27691  0.14327  Biso   1.000  C
  C179     1.0000 0.35412  0.31097  0.10194  Biso   1.000  C
  H122     1.0000 0.38820  0.34370  0.12420  Biso   1.000  H
  H123     1.0000 0.30530  0.25940  0.14840  Biso   1.000  H
  C180     1.0000 0.32859  0.28526  0.10923  Biso   1.000  C
  H124     1.0000 0.35930  0.31710  0.07880  Biso   1.000  H
  N18      1.0000 0.31130  0.26490  0.07900  Biso   1.000  N
  O72      1.0000 0.30650  0.26710  0.07600  Biso   1.000  O
  H125     1.0000 0.31890  0.24420  0.07170  Biso   1.000  H
  H126     1.0000 0.34520  0.37310  0.19830  Biso   1.000  H
  O73      1.0000 0.12378  0.96495  0.17423  Biso   1.000  O
  O74      1.0000 0.16548  0.96414  0.21416  Biso   1.000  O
  C181     1.0000 0.13826  0.95395  0.20050  Biso   1.000  C
  C182     1.0000 0.11956  0.92488  0.21849  Biso   1.000  C
  C183     1.0000 0.13406  0.90863  0.24697  Biso   1.000  C
  H127     1.0000 0.15550  0.91650  0.25580  Biso   1.000  H
  C184     1.0000 0.11828  0.83670  0.30765  Biso   1.000  C
  C185     1.0000 0.13616  0.81827  0.33803  Biso   1.000  C
  O75      1.0000 0.09161  0.82081  0.29931  Biso   1.000  O
  C186     1.0000 0.16182  0.79354  0.33050  Biso   1.000  C
  C187     1.0000 0.12884  0.82670  0.37113  Biso   1.000  C
  H128     1.0000 0.16760  0.78850  0.30720  Biso   1.000  H
  C188     1.0000 0.17832  0.77691  0.35673  Biso   1.000  C
  C189     1.0000 0.14588  0.81097  0.39806  Biso   1.000  C
  H129     1.0000 0.11180  0.84370  0.37580  Biso   1.000  H
  H130     1.0000 0.19470  0.75940  0.35160  Biso   1.000  H
  C190     1.0000 0.17141  0.78526  0.39077  Biso   1.000  C
  H131     1.0000 0.14070  0.81710  0.42120  Biso   1.000  H
  N19      1.0000 0.18870  0.76490  0.42100  Biso   1.000  N
  O76      1.0000 0.19350  0.76710  0.42400  Biso   1.000  O
  H132     1.0000 0.18110  0.74420  0.42830  Biso   1.000  H
  H133     1.0000 0.15480  0.87310  0.30170  Biso   1.000  H
  O77      1.0000 0.62378  0.46495  0.67423  Biso   1.000  O
  O78      1.0000 0.66548  0.46414  0.71416  Biso   1.000  O
  C191     1.0000 0.63826  0.45395  0.70050  Biso   1.000  C
  C192     1.0000 0.61956  0.42488  0.71849  Biso   1.000  C
  C193     1.0000 0.63406  0.40863  0.74697  Biso   1.000  C
  H134     1.0000 0.65550  0.41650  0.75580  Biso   1.000  H
  C194     1.0000 0.61828  0.33670  0.80765  Biso   1.000  C
  C195     1.0000 0.63616  0.31827  0.83803  Biso   1.000  C
  O79      1.0000 0.59161  0.32081  0.79931  Biso   1.000  O
  C196     1.0000 0.66182  0.29354  0.83050  Biso   1.000  C
  C197     1.0000 0.62884  0.32670  0.87113  Biso   1.000  C
  H135     1.0000 0.66760  0.28850  0.80720  Biso   1.000  H
  C198     1.0000 0.67832  0.27691  0.85673  Biso   1.000  C
  C199     1.0000 0.64588  0.31097  0.89806  Biso   1.000  C
  H136     1.0000 0.61180  0.34370  0.87580  Biso   1.000  H
  H137     1.0000 0.69470  0.25940  0.85160  Biso   1.000  H
  C200     1.0000 0.67141  0.28526  0.89077  Biso   1.000  C
  H138     1.0000 0.64070  0.31710  0.92120  Biso   1.000  H
  N20      1.0000 0.68870  0.26490  0.92100  Biso   1.000  N
  O80      1.0000 0.69350  0.26710  0.92400  Biso   1.000  O
  H139     1.0000 0.68110  0.24420  0.92830  Biso   1.000  H
  H140     1.0000 0.65480  0.37310  0.80170  Biso   1.000  H
  O81      1.0000 0.87622  0.03505  0.17423  Biso   1.000  O
  O82      1.0000 0.83452  0.03586  0.21416  Biso   1.000  O
  C201     1.0000 0.86174  0.04605  0.20050  Biso   1.000  C
  C202     1.0000 0.88044  0.07512  0.21849  Biso   1.000  C
  C203     1.0000 0.86594  0.09137  0.24697  Biso   1.000  C
  H141     1.0000 0.84450  0.08350  0.25580  Biso   1.000  H
  C204     1.0000 0.88172  0.16330  0.30765  Biso   1.000  C
  C205     1.0000 0.86384  0.18173  0.33803  Biso   1.000  C
  O83      1.0000 0.90839  0.17919  0.29931  Biso   1.000  O
  C206     1.0000 0.83818  0.20646  0.33050  Biso   1.000  C
  C207     1.0000 0.87116  0.17330  0.37113  Biso   1.000  C
  H142     1.0000 0.83240  0.21150  0.30720  Biso   1.000  H
  C208     1.0000 0.82168  0.22309  0.35673  Biso   1.000  C
  C209     1.0000 0.85412  0.18903  0.39806  Biso   1.000  C
  H143     1.0000 0.88820  0.15630  0.37580  Biso   1.000  H
  H144     1.0000 0.80530  0.24060  0.35160  Biso   1.000  H
  C210     1.0000 0.82859  0.21474  0.39077  Biso   1.000  C
  H145     1.0000 0.85930  0.18290  0.42120  Biso   1.000  H
  N21      1.0000 0.81130  0.23510  0.42100  Biso   1.000  N
  O84      1.0000 0.80650  0.23290  0.42400  Biso   1.000  O
  H146     1.0000 0.81890  0.25580  0.42830  Biso   1.000  H
  H147     1.0000 0.84520  0.12690  0.30170  Biso   1.000  H
  O85      1.0000 0.37622  0.53505  0.67423  Biso   1.000  O
  O86      1.0000 0.33452  0.53586  0.71416  Biso   1.000  O
  C211     1.0000 0.36174  0.54605  0.70050  Biso   1.000  C
  C212     1.0000 0.38044  0.57512  0.71849  Biso   1.000  C
  C213     1.0000 0.36594  0.59137  0.74697  Biso   1.000  C
  H148     1.0000 0.34450  0.58350  0.75580  Biso   1.000  H
  C214     1.0000 0.38172  0.66330  0.80765  Biso   1.000  C
  C215     1.0000 0.36384  0.68173  0.83803  Biso   1.000  C
  O87      1.0000 0.40839  0.67919  0.79931  Biso   1.000  O
  C216     1.0000 0.33818  0.70646  0.83050  Biso   1.000  C
  C217     1.0000 0.37116  0.67330  0.87113  Biso   1.000  C
  H149     1.0000 0.33240  0.71150  0.80720  Biso   1.000  H
  C218     1.0000 0.32168  0.72309  0.85673  Biso   1.000  C
  C219     1.0000 0.35412  0.68903  0.89806  Biso   1.000  C
  H150     1.0000 0.38820  0.65630  0.87580  Biso   1.000  H
  H151     1.0000 0.30530  0.74060  0.85160  Biso   1.000  H
  C220     1.0000 0.32859  0.71474  0.89077  Biso   1.000  C
  H152     1.0000 0.35930  0.68290  0.92120  Biso   1.000  H
  N22      1.0000 0.31130  0.73510  0.92100  Biso   1.000  N
  O88      1.0000 0.30650  0.73290  0.92400  Biso   1.000  O
  H153     1.0000 0.31890  0.75580  0.92830  Biso   1.000  H
  H154     1.0000 0.34520  0.62690  0.80170  Biso   1.000  H
  O89      1.0000 0.12378  0.03505  0.82577  Biso   1.000  O
  O90      1.0000 0.16548  0.03586  0.78584  Biso   1.000  O
  C221     1.0000 0.13826  0.04605  0.79950  Biso   1.000  C
  C222     1.0000 0.11956  0.07512  0.78151  Biso   1.000  C
  C223     1.0000 0.13406  0.09137  0.75303  Biso   1.000  C
  H155     1.0000 0.15550  0.08350  0.74420  Biso   1.000  H
  C224     1.0000 0.11828  0.16330  0.69235  Biso   1.000  C
  C225     1.0000 0.13616  0.18173  0.66197  Biso   1.000  C
  O91      1.0000 0.09161  0.17919  0.70069  Biso   1.000  O
  C226     1.0000 0.16182  0.20646  0.66950  Biso   1.000  C
  C227     1.0000 0.12884  0.17330  0.62887  Biso   1.000  C
  H156     1.0000 0.16760  0.21150  0.69280  Biso   1.000  H
  C228     1.0000 0.17832  0.22309  0.64327  Biso   1.000  C
  C229     1.0000 0.14588  0.18903  0.60194  Biso   1.000  C
  H157     1.0000 0.11180  0.15630  0.62420  Biso   1.000  H
  H158     1.0000 0.19470  0.24060  0.64840  Biso   1.000  H
  C230     1.0000 0.17141  0.21474  0.60923  Biso   1.000  C
  H159     1.0000 0.14070  0.18290  0.57880  Biso   1.000  H
  N23      1.0000 0.18870  0.23510  0.57900  Biso   1.000  N
  O92      1.0000 0.19350  0.23290  0.57600  Biso   1.000  O
  H160     1.0000 0.18110  0.25580  0.57170  Biso   1.000  H
  H161     1.0000 0.15480  0.12690  0.69830  Biso   1.000  H
  O93      1.0000 0.62378  0.53505  0.32577  Biso   1.000  O
  O94      1.0000 0.66548  0.53586  0.28584  Biso   1.000  O
  C231     1.0000 0.63826  0.54605  0.29950  Biso   1.000  C
  C232     1.0000 0.61956  0.57512  0.28151  Biso   1.000  C
  C233     1.0000 0.63406  0.59137  0.25303  Biso   1.000  C
  H162     1.0000 0.65550  0.58350  0.24420  Biso   1.000  H
  C234     1.0000 0.61828  0.66330  0.19235  Biso   1.000  C
  C235     1.0000 0.63616  0.68173  0.16197  Biso   1.000  C
  O95      1.0000 0.59161  0.67919  0.20069  Biso   1.000  O
  C236     1.0000 0.66182  0.70646  0.16950  Biso   1.000  C
  C237     1.0000 0.62884  0.67330  0.12887  Biso   1.000  C
  H163     1.0000 0.66760  0.71150  0.19280  Biso   1.000  H
  C238     1.0000 0.67832  0.72309  0.14327  Biso   1.000  C
  C239     1.0000 0.64588  0.68903  0.10194  Biso   1.000  C
  H164     1.0000 0.61180  0.65630  0.12420  Biso   1.000  H
  H165     1.0000 0.69470  0.74060  0.14840  Biso   1.000  H
  C240     1.0000 0.67141  0.71474  0.10923  Biso   1.000  C
  H166     1.0000 0.64070  0.68290  0.07880  Biso   1.000  H
  N24      1.0000 0.68870  0.73510  0.07900  Biso   1.000  N
  O96      1.0000 0.69350  0.73290  0.07600  Biso   1.000  O
  H167     1.0000 0.68110  0.75580  0.07170  Biso   1.000  H
  H168     1.0000 0.65480  0.62690  0.19830  Biso   1.000  H
  O97      1.0000 0.87622  0.82577  0.03505  Biso   1.000  O
  O98      1.0000 0.83452  0.78584  0.03586  Biso   1.000  O
  C241     1.0000 0.86174  0.79950  0.04605  Biso   1.000  C
  C242     1.0000 0.88044  0.78151  0.07512  Biso   1.000  C
  C243     1.0000 0.86594  0.75303  0.09137  Biso   1.000  C
  H169     1.0000 0.84450  0.74420  0.08350  Biso   1.000  H
  C244     1.0000 0.88172  0.69235  0.16330  Biso   1.000  C
  C245     1.0000 0.86384  0.66197  0.18173  Biso   1.000  C
  O99      1.0000 0.90839  0.70069  0.17919  Biso   1.000  O
  C246     1.0000 0.83818  0.66950  0.20646  Biso   1.000  C
  C247     1.0000 0.87116  0.62887  0.17330  Biso   1.000  C
  H170     1.0000 0.83240  0.69280  0.21150  Biso   1.000  H
  C248     1.0000 0.82168  0.64327  0.22309  Biso   1.000  C
  C249     1.0000 0.85412  0.60194  0.18903  Biso   1.000  C
  H171     1.0000 0.88820  0.62420  0.15630  Biso   1.000  H
  H172     1.0000 0.80530  0.64840  0.24060  Biso   1.000  H
  C250     1.0000 0.82859  0.60923  0.21474  Biso   1.000  C
  H173     1.0000 0.85930  0.57880  0.18290  Biso   1.000  H
  N25      1.0000 0.81130  0.57900  0.23510  Biso   1.000  N
  O100     1.0000 0.80650  0.57600  0.23290  Biso   1.000  O
  H174     1.0000 0.81890  0.57170  0.25580  Biso   1.000  H
  H175     1.0000 0.84520  0.69830  0.12690  Biso   1.000  H
  O101     1.0000 0.37622  0.32577  0.53505  Biso   1.000  O
  O102     1.0000 0.33452  0.28584  0.53586  Biso   1.000  O
  C251     1.0000 0.36174  0.29950  0.54605  Biso   1.000  C
  C252     1.0000 0.38044  0.28151  0.57512  Biso   1.000  C
  C253     1.0000 0.36594  0.25303  0.59137  Biso   1.000  C
  H176     1.0000 0.34450  0.24420  0.58350  Biso   1.000  H
  C254     1.0000 0.38172  0.19235  0.66330  Biso   1.000  C
  C255     1.0000 0.36384  0.16197  0.68173  Biso   1.000  C
  O103     1.0000 0.40839  0.20069  0.67919  Biso   1.000  O
  C256     1.0000 0.33818  0.16950  0.70646  Biso   1.000  C
  C257     1.0000 0.37116  0.12887  0.67330  Biso   1.000  C
  H177     1.0000 0.33240  0.19280  0.71150  Biso   1.000  H
  C258     1.0000 0.32168  0.14327  0.72309  Biso   1.000  C
  C259     1.0000 0.35412  0.10194  0.68903  Biso   1.000  C
  H178     1.0000 0.38820  0.12420  0.65630  Biso   1.000  H
  H179     1.0000 0.30530  0.14840  0.74060  Biso   1.000  H
  C260     1.0000 0.32859  0.10923  0.71474  Biso   1.000  C
  H180     1.0000 0.35930  0.07880  0.68290  Biso   1.000  H
  N26      1.0000 0.31130  0.07900  0.73510  Biso   1.000  N
  O104     1.0000 0.30650  0.07600  0.73290  Biso   1.000  O
  H181     1.0000 0.31890  0.07170  0.75580  Biso   1.000  H
  H182     1.0000 0.34520  0.19830  0.62690  Biso   1.000  H
  O105     1.0000 0.12378  0.17423  0.03505  Biso   1.000  O
  O106     1.0000 0.16548  0.21416  0.03586  Biso   1.000  O
  C261     1.0000 0.13826  0.20050  0.04605  Biso   1.000  C
  C262     1.0000 0.11956  0.21849  0.07512  Biso   1.000  C
  C263     1.0000 0.13406  0.24697  0.09137  Biso   1.000  C
  H183     1.0000 0.15550  0.25580  0.08350  Biso   1.000  H
  C264     1.0000 0.11828  0.30765  0.16330  Biso   1.000  C
  C265     1.0000 0.13616  0.33803  0.18173  Biso   1.000  C
  O107     1.0000 0.09161  0.29931  0.17919  Biso   1.000  O
  C266     1.0000 0.16182  0.33050  0.20646  Biso   1.000  C
  C267     1.0000 0.12884  0.37113  0.17330  Biso   1.000  C
  H184     1.0000 0.16760  0.30720  0.21150  Biso   1.000  H
  C268     1.0000 0.17832  0.35673  0.22309  Biso   1.000  C
  C269     1.0000 0.14588  0.39806  0.18903  Biso   1.000  C
  H185     1.0000 0.11180  0.37580  0.15630  Biso   1.000  H
  H186     1.0000 0.19470  0.35160  0.24060  Biso   1.000  H
  C270     1.0000 0.17141  0.39077  0.21474  Biso   1.000  C
  H187     1.0000 0.14070  0.42120  0.18290  Biso   1.000  H
  N27      1.0000 0.18870  0.42100  0.23510  Biso   1.000  N
  O108     1.0000 0.19350  0.42400  0.23290  Biso   1.000  O
  H188     1.0000 0.18110  0.42830  0.25580  Biso   1.000  H
  H189     1.0000 0.15480  0.30170  0.12690  Biso   1.000  H
  O109     1.0000 0.62378  0.67423  0.53505  Biso   1.000  O
  O110     1.0000 0.66548  0.71416  0.53586  Biso   1.000  O
  C271     1.0000 0.63826  0.70050  0.54605  Biso   1.000  C
  C272     1.0000 0.61956  0.71849  0.57512  Biso   1.000  C
  C273     1.0000 0.63406  0.74697  0.59137  Biso   1.000  C
  H190     1.0000 0.65550  0.75580  0.58350  Biso   1.000  H
  C274     1.0000 0.61828  0.80765  0.66330  Biso   1.000  C
  C275     1.0000 0.63616  0.83803  0.68173  Biso   1.000  C
  O111     1.0000 0.59161  0.79931  0.67919  Biso   1.000  O
  C276     1.0000 0.66182  0.83050  0.70646  Biso   1.000  C
  C277     1.0000 0.62884  0.87113  0.67330  Biso   1.000  C
  H191     1.0000 0.66760  0.80720  0.71150  Biso   1.000  H
  C278     1.0000 0.67832  0.85673  0.72309  Biso   1.000  C
  C279     1.0000 0.64588  0.89806  0.68903  Biso   1.000  C
  H192     1.0000 0.61180  0.87580  0.65630  Biso   1.000  H
  H193     1.0000 0.69470  0.85160  0.74060  Biso   1.000  H
  C280     1.0000 0.67141  0.89077  0.71474  Biso   1.000  C
  H194     1.0000 0.64070  0.92120  0.68290  Biso   1.000  H
  N28      1.0000 0.68870  0.92100  0.73510  Biso   1.000  N
  O112     1.0000 0.69350  0.92400  0.73290  Biso   1.000  O
  H195     1.0000 0.68110  0.92830  0.75580  Biso   1.000  H
  H196     1.0000 0.65480  0.80170  0.62690  Biso   1.000  H
  O113     1.0000 0.87622  0.17423  0.96495  Biso   1.000  O
  O114     1.0000 0.83452  0.21416  0.96414  Biso   1.000  O
  C281     1.0000 0.86174  0.20050  0.95395  Biso   1.000  C
  C282     1.0000 0.88044  0.21849  0.92488  Biso   1.000  C
  C283     1.0000 0.86594  0.24697  0.90863  Biso   1.000  C
  H197     1.0000 0.84450  0.25580  0.91650  Biso   1.000  H
  C284     1.0000 0.88172  0.30765  0.83670  Biso   1.000  C
  C285     1.0000 0.86384  0.33803  0.81827  Biso   1.000  C
  O115     1.0000 0.90839  0.29931  0.82081  Biso   1.000  O
  C286     1.0000 0.83818  0.33050  0.79354  Biso   1.000  C
  C287     1.0000 0.87116  0.37113  0.82670  Biso   1.000  C
  H198     1.0000 0.83240  0.30720  0.78850  Biso   1.000  H
  C288     1.0000 0.82168  0.35673  0.77691  Biso   1.000  C
  C289     1.0000 0.85412  0.39806  0.81097  Biso   1.000  C
  H199     1.0000 0.88820  0.37580  0.84370  Biso   1.000  H
  H200     1.0000 0.80530  0.35160  0.75940  Biso   1.000  H
  C290     1.0000 0.82859  0.39077  0.78526  Biso   1.000  C
  H201     1.0000 0.85930  0.42120  0.81710  Biso   1.000  H
  N29      1.0000 0.81130  0.42100  0.76490  Biso   1.000  N
  O116     1.0000 0.80650  0.42400  0.76710  Biso   1.000  O
  H202     1.0000 0.81890  0.42830  0.74420  Biso   1.000  H
  H203     1.0000 0.84520  0.30170  0.87310  Biso   1.000  H
  O117     1.0000 0.37622  0.67423  0.46495  Biso   1.000  O
  O118     1.0000 0.33452  0.71416  0.46414  Biso   1.000  O
  C291     1.0000 0.36174  0.70050  0.45395  Biso   1.000  C
  C292     1.0000 0.38044  0.71849  0.42488  Biso   1.000  C
  C293     1.0000 0.36594  0.74697  0.40863  Biso   1.000  C
  H204     1.0000 0.34450  0.75580  0.41650  Biso   1.000  H
  C294     1.0000 0.38172  0.80765  0.33670  Biso   1.000  C
  C295     1.0000 0.36384  0.83803  0.31827  Biso   1.000  C
  O119     1.0000 0.40839  0.79931  0.32081  Biso   1.000  O
  C296     1.0000 0.33818  0.83050  0.29354  Biso   1.000  C
  C297     1.0000 0.37116  0.87113  0.32670  Biso   1.000  C
  H205     1.0000 0.33240  0.80720  0.28850  Biso   1.000  H
  C298     1.0000 0.32168  0.85673  0.27691  Biso   1.000  C
  C299     1.0000 0.35412  0.89806  0.31097  Biso   1.000  C
  H206     1.0000 0.38820  0.87580  0.34370  Biso   1.000  H
  H207     1.0000 0.30530  0.85160  0.25940  Biso   1.000  H
  C300     1.0000 0.32859  0.89077  0.28526  Biso   1.000  C
  H208     1.0000 0.35930  0.92120  0.31710  Biso   1.000  H
  N30      1.0000 0.31130  0.92100  0.26490  Biso   1.000  N
  O120     1.0000 0.30650  0.92400  0.26710  Biso   1.000  O
  H209     1.0000 0.31890  0.92830  0.24420  Biso   1.000  H
  H210     1.0000 0.34520  0.80170  0.37310  Biso   1.000  H
  O121     1.0000 0.12378  0.82577  0.96495  Biso   1.000  O
  O122     1.0000 0.16548  0.78584  0.96414  Biso   1.000  O
  C301     1.0000 0.13826  0.79950  0.95395  Biso   1.000  C
  C302     1.0000 0.11956  0.78151  0.92488  Biso   1.000  C
  C303     1.0000 0.13406  0.75303  0.90863  Biso   1.000  C
  H211     1.0000 0.15550  0.74420  0.91650  Biso   1.000  H
  C304     1.0000 0.11828  0.69235  0.83670  Biso   1.000  C
  C305     1.0000 0.13616  0.66197  0.81827  Biso   1.000  C
  O123     1.0000 0.09161  0.70069  0.82081  Biso   1.000  O
  C306     1.0000 0.16182  0.66950  0.79354  Biso   1.000  C
  C307     1.0000 0.12884  0.62887  0.82670  Biso   1.000  C
  H212     1.0000 0.16760  0.69280  0.78850  Biso   1.000  H
  C308     1.0000 0.17832  0.64327  0.77691  Biso   1.000  C
  C309     1.0000 0.14588  0.60194  0.81097  Biso   1.000  C
  H213     1.0000 0.11180  0.62420  0.84370  Biso   1.000  H
  H214     1.0000 0.19470  0.64840  0.75940  Biso   1.000  H
  C310     1.0000 0.17141  0.60923  0.78526  Biso   1.000  C
  H215     1.0000 0.14070  0.57880  0.81710  Biso   1.000  H
  N31      1.0000 0.18870  0.57900  0.76490  Biso   1.000  N
  O124     1.0000 0.19350  0.57600  0.76710  Biso   1.000  O
  H216     1.0000 0.18110  0.57170  0.74420  Biso   1.000  H
  H217     1.0000 0.15480  0.69830  0.87310  Biso   1.000  H
  O125     1.0000 0.62378  0.32577  0.46495  Biso   1.000  O
  O126     1.0000 0.66548  0.28584  0.46414  Biso   1.000  O
  C311     1.0000 0.63826  0.29950  0.45395  Biso   1.000  C
  C312     1.0000 0.61956  0.28151  0.42488  Biso   1.000  C
  C313     1.0000 0.63406  0.25303  0.40863  Biso   1.000  C
  H218     1.0000 0.65550  0.24420  0.41650  Biso   1.000  H
  C314     1.0000 0.61828  0.19235  0.33670  Biso   1.000  C
  C315     1.0000 0.63616  0.16197  0.31827  Biso   1.000  C
  O127     1.0000 0.59161  0.20069  0.32081  Biso   1.000  O
  C316     1.0000 0.66182  0.16950  0.29354  Biso   1.000  C
  C317     1.0000 0.62884  0.12887  0.32670  Biso   1.000  C
  H219     1.0000 0.66760  0.19280  0.28850  Biso   1.000  H
  C318     1.0000 0.67832  0.14327  0.27691  Biso   1.000  C
  C319     1.0000 0.64588  0.10194  0.31097  Biso   1.000  C
  H220     1.0000 0.61180  0.12420  0.34370  Biso   1.000  H
  H221     1.0000 0.69470  0.14840  0.25940  Biso   1.000  H
  C320     1.0000 0.67141  0.10923  0.28526  Biso   1.000  C
  H222     1.0000 0.64070  0.07880  0.31710  Biso   1.000  H
  N32      1.0000 0.68870  0.07900  0.26490  Biso   1.000  N
  O128     1.0000 0.69350  0.07600  0.26710  Biso   1.000  O
  H223     1.0000 0.68110  0.07170  0.24420  Biso   1.000  H
  H224     1.0000 0.65480  0.19830  0.37310  Biso   1.000  H
  O129     1.0000 0.82577  0.96495  0.12378  Biso   1.000  O
  O130     1.0000 0.78584  0.96414  0.16548  Biso   1.000  O
  C321     1.0000 0.79950  0.95395  0.13826  Biso   1.000  C
  C322     1.0000 0.78151  0.92488  0.11956  Biso   1.000  C
  C323     1.0000 0.75303  0.90863  0.13406  Biso   1.000  C
  H225     1.0000 0.74420  0.91650  0.15550  Biso   1.000  H
  C324     1.0000 0.69235  0.83670  0.11828  Biso   1.000  C
  C325     1.0000 0.66197  0.81827  0.13616  Biso   1.000  C
  O131     1.0000 0.70069  0.82081  0.09161  Biso   1.000  O
  C326     1.0000 0.66950  0.79354  0.16182  Biso   1.000  C
  C327     1.0000 0.62887  0.82670  0.12884  Biso   1.000  C
  H226     1.0000 0.69280  0.78850  0.16760  Biso   1.000  H
  C328     1.0000 0.64327  0.77691  0.17832  Biso   1.000  C
  C329     1.0000 0.60194  0.81097  0.14588  Biso   1.000  C
  H227     1.0000 0.62420  0.84370  0.11180  Biso   1.000  H
  H228     1.0000 0.64840  0.75940  0.19470  Biso   1.000  H
  C330     1.0000 0.60923  0.78526  0.17141  Biso   1.000  C
  H229     1.0000 0.57880  0.81710  0.14070  Biso   1.000  H
  N33      1.0000 0.57900  0.76490  0.18870  Biso   1.000  N
  O132     1.0000 0.57600  0.76710  0.19350  Biso   1.000  O
  H230     1.0000 0.57170  0.74420  0.18110  Biso   1.000  H
  H231     1.0000 0.69830  0.87310  0.15480  Biso   1.000  H
  O133     1.0000 0.32577  0.46495  0.62378  Biso   1.000  O
  O134     1.0000 0.28584  0.46414  0.66548  Biso   1.000  O
  C331     1.0000 0.29950  0.45395  0.63826  Biso   1.000  C
  C332     1.0000 0.28151  0.42488  0.61956  Biso   1.000  C
  C333     1.0000 0.25303  0.40863  0.63406  Biso   1.000  C
  H232     1.0000 0.24420  0.41650  0.65550  Biso   1.000  H
  C334     1.0000 0.19235  0.33670  0.61828  Biso   1.000  C
  C335     1.0000 0.16197  0.31827  0.63616  Biso   1.000  C
  O135     1.0000 0.20069  0.32081  0.59161  Biso   1.000  O
  C336     1.0000 0.16950  0.29354  0.66182  Biso   1.000  C
  C337     1.0000 0.12887  0.32670  0.62884  Biso   1.000  C
  H233     1.0000 0.19280  0.28850  0.66760  Biso   1.000  H
  C338     1.0000 0.14327  0.27691  0.67832  Biso   1.000  C
  C339     1.0000 0.10194  0.31097  0.64588  Biso   1.000  C
  H234     1.0000 0.12420  0.34370  0.61180  Biso   1.000  H
  H235     1.0000 0.14840  0.25940  0.69470  Biso   1.000  H
  C340     1.0000 0.10923  0.28526  0.67141  Biso   1.000  C
  H236     1.0000 0.07880  0.31710  0.64070  Biso   1.000  H
  N34      1.0000 0.07900  0.26490  0.68870  Biso   1.000  N
  O136     1.0000 0.07600  0.26710  0.69350  Biso   1.000  O
  H237     1.0000 0.07170  0.24420  0.68110  Biso   1.000  H
  H238     1.0000 0.19830  0.37310  0.65480  Biso   1.000  H
  O137     1.0000 0.17423  0.96495  0.87622  Biso   1.000  O
  O138     1.0000 0.21416  0.96414  0.83452  Biso   1.000  O
  C341     1.0000 0.20050  0.95395  0.86174  Biso   1.000  C
  C342     1.0000 0.21849  0.92488  0.88044  Biso   1.000  C
  C343     1.0000 0.24697  0.90863  0.86594  Biso   1.000  C
  H239     1.0000 0.25580  0.91650  0.84450  Biso   1.000  H
  C344     1.0000 0.30765  0.83670  0.88172  Biso   1.000  C
  C345     1.0000 0.33803  0.81827  0.86384  Biso   1.000  C
  O139     1.0000 0.29931  0.82081  0.90839  Biso   1.000  O
  C346     1.0000 0.33050  0.79354  0.83818  Biso   1.000  C
  C347     1.0000 0.37113  0.82670  0.87116  Biso   1.000  C
  H240     1.0000 0.30720  0.78850  0.83240  Biso   1.000  H
  C348     1.0000 0.35673  0.77691  0.82168  Biso   1.000  C
  C349     1.0000 0.39806  0.81097  0.85412  Biso   1.000  C
  H241     1.0000 0.37580  0.84370  0.88820  Biso   1.000  H
  H242     1.0000 0.35160  0.75940  0.80530  Biso   1.000  H
  C350     1.0000 0.39077  0.78526  0.82859  Biso   1.000  C
  H243     1.0000 0.42120  0.81710  0.85930  Biso   1.000  H
  N35      1.0000 0.42100  0.76490  0.81130  Biso   1.000  N
  O140     1.0000 0.42400  0.76710  0.80650  Biso   1.000  O
  H244     1.0000 0.42830  0.74420  0.81890  Biso   1.000  H
  H245     1.0000 0.30170  0.87310  0.84520  Biso   1.000  H
  O141     1.0000 0.67423  0.46495  0.37622  Biso   1.000  O
  O142     1.0000 0.71416  0.46414  0.33452  Biso   1.000  O
  C351     1.0000 0.70050  0.45395  0.36174  Biso   1.000  C
  C352     1.0000 0.71849  0.42488  0.38044  Biso   1.000  C
  C353     1.0000 0.74697  0.40863  0.36594  Biso   1.000  C
  H246     1.0000 0.75580  0.41650  0.34450  Biso   1.000  H
  C354     1.0000 0.80765  0.33670  0.38172  Biso   1.000  C
  C355     1.0000 0.83803  0.31827  0.36384  Biso   1.000  C
  O143     1.0000 0.79931  0.32081  0.40839  Biso   1.000  O
  C356     1.0000 0.83050  0.29354  0.33818  Biso   1.000  C
  C357     1.0000 0.87113  0.32670  0.37116  Biso   1.000  C
  H247     1.0000 0.80720  0.28850  0.33240  Biso   1.000  H
  C358     1.0000 0.85673  0.27691  0.32168  Biso   1.000  C
  C359     1.0000 0.89806  0.31097  0.35412  Biso   1.000  C
  H248     1.0000 0.87580  0.34370  0.38820  Biso   1.000  H
  H249     1.0000 0.85160  0.25940  0.30530  Biso   1.000  H
  C360     1.0000 0.89077  0.28526  0.32859  Biso   1.000  C
  H250     1.0000 0.92120  0.31710  0.35930  Biso   1.000  H
  N36      1.0000 0.92100  0.26490  0.31130  Biso   1.000  N
  O144     1.0000 0.92400  0.26710  0.30650  Biso   1.000  O
  H251     1.0000 0.92830  0.24420  0.31890  Biso   1.000  H
  H252     1.0000 0.80170  0.37310  0.34520  Biso   1.000  H
  O145     1.0000 0.17423  0.03505  0.12378  Biso   1.000  O
  O146     1.0000 0.21416  0.03586  0.16548  Biso   1.000  O
  C361     1.0000 0.20050  0.04605  0.13826  Biso   1.000  C
  C362     1.0000 0.21849  0.07512  0.11956  Biso   1.000  C
  C363     1.0000 0.24697  0.09137  0.13406  Biso   1.000  C
  H253     1.0000 0.25580  0.08350  0.15550  Biso   1.000  H
  C364     1.0000 0.30765  0.16330  0.11828  Biso   1.000  C
  C365     1.0000 0.33803  0.18173  0.13616  Biso   1.000  C
  O147     1.0000 0.29931  0.17919  0.09161  Biso   1.000  O
  C366     1.0000 0.33050  0.20646  0.16182  Biso   1.000  C
  C367     1.0000 0.37113  0.17330  0.12884  Biso   1.000  C
  H254     1.0000 0.30720  0.21150  0.16760  Biso   1.000  H
  C368     1.0000 0.35673  0.22309  0.17832  Biso   1.000  C
  C369     1.0000 0.39806  0.18903  0.14588  Biso   1.000  C
  H255     1.0000 0.37580  0.15630  0.11180  Biso   1.000  H
  H256     1.0000 0.35160  0.24060  0.19470  Biso   1.000  H
  C370     1.0000 0.39077  0.21474  0.17141  Biso   1.000  C
  H257     1.0000 0.42120  0.18290  0.14070  Biso   1.000  H
  N37      1.0000 0.42100  0.23510  0.18870  Biso   1.000  N
  O148     1.0000 0.42400  0.23290  0.19350  Biso   1.000  O
  H258     1.0000 0.42830  0.25580  0.18110  Biso   1.000  H
  H259     1.0000 0.30170  0.12690  0.15480  Biso   1.000  H
  O149     1.0000 0.67423  0.53505  0.62378  Biso   1.000  O
  O150     1.0000 0.71416  0.53586  0.66548  Biso   1.000  O
  C371     1.0000 0.70050  0.54605  0.63826  Biso   1.000  C
  C372     1.0000 0.71849  0.57512  0.61956  Biso   1.000  C
  C373     1.0000 0.74697  0.59137  0.63406  Biso   1.000  C
  H260     1.0000 0.75580  0.58350  0.65550  Biso   1.000  H
  C374     1.0000 0.80765  0.66330  0.61828  Biso   1.000  C
  C375     1.0000 0.83803  0.68173  0.63616  Biso   1.000  C
  O151     1.0000 0.79931  0.67919  0.59161  Biso   1.000  O
  C376     1.0000 0.83050  0.70646  0.66182  Biso   1.000  C
  C377     1.0000 0.87113  0.67330  0.62884  Biso   1.000  C
  H261     1.0000 0.80720  0.71150  0.66760  Biso   1.000  H
  C378     1.0000 0.85673  0.72309  0.67832  Biso   1.000  C
  C379     1.0000 0.89806  0.68903  0.64588  Biso   1.000  C
  H262     1.0000 0.87580  0.65630  0.61180  Biso   1.000  H
  H263     1.0000 0.85160  0.74060  0.69470  Biso   1.000  H
  C380     1.0000 0.89077  0.71474  0.67141  Biso   1.000  C
  H264     1.0000 0.92120  0.68290  0.64070  Biso   1.000  H
  N38      1.0000 0.92100  0.73510  0.68870  Biso   1.000  N
  O152     1.0000 0.92400  0.73290  0.69350  Biso   1.000  O
  H265     1.0000 0.92830  0.75580  0.68110  Biso   1.000  H
  H266     1.0000 0.80170  0.62690  0.65480  Biso   1.000  H
  O153     1.0000 0.82577  0.03505  0.87622  Biso   1.000  O
  O154     1.0000 0.78584  0.03586  0.83452  Biso   1.000  O
  C381     1.0000 0.79950  0.04605  0.86174  Biso   1.000  C
  C382     1.0000 0.78151  0.07512  0.88044  Biso   1.000  C
  C383     1.0000 0.75303  0.09137  0.86594  Biso   1.000  C
  H267     1.0000 0.74420  0.08350  0.84450  Biso   1.000  H
  C384     1.0000 0.69235  0.16330  0.88172  Biso   1.000  C
  C385     1.0000 0.66197  0.18173  0.86384  Biso   1.000  C
  O155     1.0000 0.70069  0.17919  0.90839  Biso   1.000  O
  C386     1.0000 0.66950  0.20646  0.83818  Biso   1.000  C
  C387     1.0000 0.62887  0.17330  0.87116  Biso   1.000  C
  H268     1.0000 0.69280  0.21150  0.83240  Biso   1.000  H
  C388     1.0000 0.64327  0.22309  0.82168  Biso   1.000  C
  C389     1.0000 0.60194  0.18903  0.85412  Biso   1.000  C
  H269     1.0000 0.62420  0.15630  0.88820  Biso   1.000  H
  H270     1.0000 0.64840  0.24060  0.80530  Biso   1.000  H
  C390     1.0000 0.60923  0.21474  0.82859  Biso   1.000  C
  H271     1.0000 0.57880  0.18290  0.85930  Biso   1.000  H
  N39      1.0000 0.57900  0.23510  0.81130  Biso   1.000  N
  O156     1.0000 0.57600  0.23290  0.80650  Biso   1.000  O
  H272     1.0000 0.57170  0.25580  0.81890  Biso   1.000  H
  H273     1.0000 0.69830  0.12690  0.84520  Biso   1.000  H
  O157     1.0000 0.32577  0.53505  0.37622  Biso   1.000  O
  O158     1.0000 0.28584  0.53586  0.33452  Biso   1.000  O
  C391     1.0000 0.29950  0.54605  0.36174  Biso   1.000  C
  C392     1.0000 0.28151  0.57512  0.38044  Biso   1.000  C
  C393     1.0000 0.25303  0.59137  0.36594  Biso   1.000  C
  H274     1.0000 0.24420  0.58350  0.34450  Biso   1.000  H
  C394     1.0000 0.19235  0.66330  0.38172  Biso   1.000  C
  C395     1.0000 0.16197  0.68173  0.36384  Biso   1.000  C
  O159     1.0000 0.20069  0.67919  0.40839  Biso   1.000  O
  C396     1.0000 0.16950  0.70646  0.33818  Biso   1.000  C
  C397     1.0000 0.12887  0.67330  0.37116  Biso   1.000  C
  H275     1.0000 0.19280  0.71150  0.33240  Biso   1.000  H
  C398     1.0000 0.14327  0.72309  0.32168  Biso   1.000  C
  C399     1.0000 0.10194  0.68903  0.35412  Biso   1.000  C
  H276     1.0000 0.12420  0.65630  0.38820  Biso   1.000  H
  H277     1.0000 0.14840  0.74060  0.30530  Biso   1.000  H
  C400     1.0000 0.10923  0.71474  0.32859  Biso   1.000  C
  H278     1.0000 0.07880  0.68290  0.35930  Biso   1.000  H
  N40      1.0000 0.07900  0.73510  0.31130  Biso   1.000  N
  O160     1.0000 0.07600  0.73290  0.30650  Biso   1.000  O
  H279     1.0000 0.07170  0.75580  0.31890  Biso   1.000  H
  H280     1.0000 0.19830  0.62690  0.34520  Biso   1.000  H
  O161     1.0000 0.96495  0.87622  0.17423  Biso   1.000  O
  O162     1.0000 0.96414  0.83452  0.21416  Biso   1.000  O
  C401     1.0000 0.95395  0.86174  0.20050  Biso   1.000  C
  C402     1.0000 0.92488  0.88044  0.21849  Biso   1.000  C
  C403     1.0000 0.90863  0.86594  0.24697  Biso   1.000  C
  H281     1.0000 0.91650  0.84450  0.25580  Biso   1.000  H
  C404     1.0000 0.83670  0.88172  0.30765  Biso   1.000  C
  C405     1.0000 0.81827  0.86384  0.33803  Biso   1.000  C
  O163     1.0000 0.82081  0.90839  0.29931  Biso   1.000  O
  C406     1.0000 0.79354  0.83818  0.33050  Biso   1.000  C
  C407     1.0000 0.82670  0.87116  0.37113  Biso   1.000  C
  H282     1.0000 0.78850  0.83240  0.30720  Biso   1.000  H
  C408     1.0000 0.77691  0.82168  0.35673  Biso   1.000  C
  C409     1.0000 0.81097  0.85412  0.39806  Biso   1.000  C
  H283     1.0000 0.84370  0.88820  0.37580  Biso   1.000  H
  H284     1.0000 0.75940  0.80530  0.35160  Biso   1.000  H
  C410     1.0000 0.78526  0.82859  0.39077  Biso   1.000  C
  H285     1.0000 0.81710  0.85930  0.42120  Biso   1.000  H
  N41      1.0000 0.76490  0.81130  0.42100  Biso   1.000  N
  O164     1.0000 0.76710  0.80650  0.42400  Biso   1.000  O
  H286     1.0000 0.74420  0.81890  0.42830  Biso   1.000  H
  H287     1.0000 0.87310  0.84520  0.30170  Biso   1.000  H
  O165     1.0000 0.46495  0.37622  0.67423  Biso   1.000  O
  O166     1.0000 0.46414  0.33452  0.71416  Biso   1.000  O
  C411     1.0000 0.45395  0.36174  0.70050  Biso   1.000  C
  C412     1.0000 0.42488  0.38044  0.71849  Biso   1.000  C
  C413     1.0000 0.40863  0.36594  0.74697  Biso   1.000  C
  H288     1.0000 0.41650  0.34450  0.75580  Biso   1.000  H
  C414     1.0000 0.33670  0.38172  0.80765  Biso   1.000  C
  C415     1.0000 0.31827  0.36384  0.83803  Biso   1.000  C
  O167     1.0000 0.32081  0.40839  0.79931  Biso   1.000  O
  C416     1.0000 0.29354  0.33818  0.83050  Biso   1.000  C
  C417     1.0000 0.32670  0.37116  0.87113  Biso   1.000  C
  H289     1.0000 0.28850  0.33240  0.80720  Biso   1.000  H
  C418     1.0000 0.27691  0.32168  0.85673  Biso   1.000  C
  C419     1.0000 0.31097  0.35412  0.89806  Biso   1.000  C
  H290     1.0000 0.34370  0.38820  0.87580  Biso   1.000  H
  H291     1.0000 0.25940  0.30530  0.85160  Biso   1.000  H
  C420     1.0000 0.28526  0.32859  0.89077  Biso   1.000  C
  H292     1.0000 0.31710  0.35930  0.92120  Biso   1.000  H
  N42      1.0000 0.26490  0.31130  0.92100  Biso   1.000  N
  O168     1.0000 0.26710  0.30650  0.92400  Biso   1.000  O
  H293     1.0000 0.24420  0.31890  0.92830  Biso   1.000  H
  H294     1.0000 0.37310  0.34520  0.80170  Biso   1.000  H
  O169     1.0000 0.96495  0.12378  0.82577  Biso   1.000  O
  O170     1.0000 0.96414  0.16548  0.78584  Biso   1.000  O
  C421     1.0000 0.95395  0.13826  0.79950  Biso   1.000  C
  C422     1.0000 0.92488  0.11956  0.78151  Biso   1.000  C
  C423     1.0000 0.90863  0.13406  0.75303  Biso   1.000  C
  H295     1.0000 0.91650  0.15550  0.74420  Biso   1.000  H
  C424     1.0000 0.83670  0.11828  0.69235  Biso   1.000  C
  C425     1.0000 0.81827  0.13616  0.66197  Biso   1.000  C
  O171     1.0000 0.82081  0.09161  0.70069  Biso   1.000  O
  C426     1.0000 0.79354  0.16182  0.66950  Biso   1.000  C
  C427     1.0000 0.82670  0.12884  0.62887  Biso   1.000  C
  H296     1.0000 0.78850  0.16760  0.69280  Biso   1.000  H
  C428     1.0000 0.77691  0.17832  0.64327  Biso   1.000  C
  C429     1.0000 0.81097  0.14588  0.60194  Biso   1.000  C
  H297     1.0000 0.84370  0.11180  0.62420  Biso   1.000  H
  H298     1.0000 0.75940  0.19470  0.64840  Biso   1.000  H
  C430     1.0000 0.78526  0.17141  0.60923  Biso   1.000  C
  H299     1.0000 0.81710  0.14070  0.57880  Biso   1.000  H
  N43      1.0000 0.76490  0.18870  0.57900  Biso   1.000  N
  O172     1.0000 0.76710  0.19350  0.57600  Biso   1.000  O
  H300     1.0000 0.74420  0.18110  0.57170  Biso   1.000  H
  H301     1.0000 0.87310  0.15480  0.69830  Biso   1.000  H
  O173     1.0000 0.46495  0.62378  0.32577  Biso   1.000  O
  O174     1.0000 0.46414  0.66548  0.28584  Biso   1.000  O
  C431     1.0000 0.45395  0.63826  0.29950  Biso   1.000  C
  C432     1.0000 0.42488  0.61956  0.28151  Biso   1.000  C
  C433     1.0000 0.40863  0.63406  0.25303  Biso   1.000  C
  H302     1.0000 0.41650  0.65550  0.24420  Biso   1.000  H
  C434     1.0000 0.33670  0.61828  0.19235  Biso   1.000  C
  C435     1.0000 0.31827  0.63616  0.16197  Biso   1.000  C
  O175     1.0000 0.32081  0.59161  0.20069  Biso   1.000  O
  C436     1.0000 0.29354  0.66182  0.16950  Biso   1.000  C
  C437     1.0000 0.32670  0.62884  0.12887  Biso   1.000  C
  H303     1.0000 0.28850  0.66760  0.19280  Biso   1.000  H
  C438     1.0000 0.27691  0.67832  0.14327  Biso   1.000  C
  C439     1.0000 0.31097  0.64588  0.10194  Biso   1.000  C
  H304     1.0000 0.34370  0.61180  0.12420  Biso   1.000  H
  H305     1.0000 0.25940  0.69470  0.14840  Biso   1.000  H
  C440     1.0000 0.28526  0.67141  0.10923  Biso   1.000  C
  H306     1.0000 0.31710  0.64070  0.07880  Biso   1.000  H
  N44      1.0000 0.26490  0.68870  0.07900  Biso   1.000  N
  O176     1.0000 0.26710  0.69350  0.07600  Biso   1.000  O
  H307     1.0000 0.24420  0.68110  0.07170  Biso   1.000  H
  H308     1.0000 0.37310  0.65480  0.19830  Biso   1.000  H
  O177     1.0000 0.03505  0.87622  0.82577  Biso   1.000  O
  O178     1.0000 0.03586  0.83452  0.78584  Biso   1.000  O
  C441     1.0000 0.04605  0.86174  0.79950  Biso   1.000  C
  C442     1.0000 0.07512  0.88044  0.78151  Biso   1.000  C
  C443     1.0000 0.09137  0.86594  0.75303  Biso   1.000  C
  H309     1.0000 0.08350  0.84450  0.74420  Biso   1.000  H
  C444     1.0000 0.16330  0.88172  0.69235  Biso   1.000  C
  C445     1.0000 0.18173  0.86384  0.66197  Biso   1.000  C
  O179     1.0000 0.17919  0.90839  0.70069  Biso   1.000  O
  C446     1.0000 0.20646  0.83818  0.66950  Biso   1.000  C
  C447     1.0000 0.17330  0.87116  0.62887  Biso   1.000  C
  H310     1.0000 0.21150  0.83240  0.69280  Biso   1.000  H
  C448     1.0000 0.22309  0.82168  0.64327  Biso   1.000  C
  C449     1.0000 0.18903  0.85412  0.60194  Biso   1.000  C
  H311     1.0000 0.15630  0.88820  0.62420  Biso   1.000  H
  H312     1.0000 0.24060  0.80530  0.64840  Biso   1.000  H
  C450     1.0000 0.21474  0.82859  0.60923  Biso   1.000  C
  H313     1.0000 0.18290  0.85930  0.57880  Biso   1.000  H
  N45      1.0000 0.23510  0.81130  0.57900  Biso   1.000  N
  O180     1.0000 0.23290  0.80650  0.57600  Biso   1.000  O
  H314     1.0000 0.25580  0.81890  0.57170  Biso   1.000  H
  H315     1.0000 0.12690  0.84520  0.69830  Biso   1.000  H
  O181     1.0000 0.53505  0.37622  0.32577  Biso   1.000  O
  O182     1.0000 0.53586  0.33452  0.28584  Biso   1.000  O
  C451     1.0000 0.54605  0.36174  0.29950  Biso   1.000  C
  C452     1.0000 0.57512  0.38044  0.28151  Biso   1.000  C
  C453     1.0000 0.59137  0.36594  0.25303  Biso   1.000  C
  H316     1.0000 0.58350  0.34450  0.24420  Biso   1.000  H
  C454     1.0000 0.66330  0.38172  0.19235  Biso   1.000  C
  C455     1.0000 0.68173  0.36384  0.16197  Biso   1.000  C
  O183     1.0000 0.67919  0.40839  0.20069  Biso   1.000  O
  C456     1.0000 0.70646  0.33818  0.16950  Biso   1.000  C
  C457     1.0000 0.67330  0.37116  0.12887  Biso   1.000  C
  H317     1.0000 0.71150  0.33240  0.19280  Biso   1.000  H
  C458     1.0000 0.72309  0.32168  0.14327  Biso   1.000  C
  C459     1.0000 0.68903  0.35412  0.10194  Biso   1.000  C
  H318     1.0000 0.65630  0.38820  0.12420  Biso   1.000  H
  H319     1.0000 0.74060  0.30530  0.14840  Biso   1.000  H
  C460     1.0000 0.71474  0.32859  0.10923  Biso   1.000  C
  H320     1.0000 0.68290  0.35930  0.07880  Biso   1.000  H
  N46      1.0000 0.73510  0.31130  0.07900  Biso   1.000  N
  O184     1.0000 0.73290  0.30650  0.07600  Biso   1.000  O
  H321     1.0000 0.75580  0.31890  0.07170  Biso   1.000  H
  H322     1.0000 0.62690  0.34520  0.19830  Biso   1.000  H
  O185     1.0000 0.03505  0.12378  0.17423  Biso   1.000  O
  O186     1.0000 0.03586  0.16548  0.21416  Biso   1.000  O
  C461     1.0000 0.04605  0.13826  0.20050  Biso   1.000  C
  C462     1.0000 0.07512  0.11956  0.21849  Biso   1.000  C
  C463     1.0000 0.09137  0.13406  0.24697  Biso   1.000  C
  H323     1.0000 0.08350  0.15550  0.25580  Biso   1.000  H
  C464     1.0000 0.16330  0.11828  0.30765  Biso   1.000  C
  C465     1.0000 0.18173  0.13616  0.33803  Biso   1.000  C
  O187     1.0000 0.17919  0.09161  0.29931  Biso   1.000  O
  C466     1.0000 0.20646  0.16182  0.33050  Biso   1.000  C
  C467     1.0000 0.17330  0.12884  0.37113  Biso   1.000  C
  H324     1.0000 0.21150  0.16760  0.30720  Biso   1.000  H
  C468     1.0000 0.22309  0.17832  0.35673  Biso   1.000  C
  C469     1.0000 0.18903  0.14588  0.39806  Biso   1.000  C
  H325     1.0000 0.15630  0.11180  0.37580  Biso   1.000  H
  H326     1.0000 0.24060  0.19470  0.35160  Biso   1.000  H
  C470     1.0000 0.21474  0.17141  0.39077  Biso   1.000  C
  H327     1.0000 0.18290  0.14070  0.42120  Biso   1.000  H
  N47      1.0000 0.23510  0.18870  0.42100  Biso   1.000  N
  O188     1.0000 0.23290  0.19350  0.42400  Biso   1.000  O
  H328     1.0000 0.25580  0.18110  0.42830  Biso   1.000  H
  H329     1.0000 0.12690  0.15480  0.30170  Biso   1.000  H
  O189     1.0000 0.53505  0.62378  0.67423  Biso   1.000  O
  O190     1.0000 0.53586  0.66548  0.71416  Biso   1.000  O
  C471     1.0000 0.54605  0.63826  0.70050  Biso   1.000  C
  C472     1.0000 0.57512  0.61956  0.71849  Biso   1.000  C
  C473     1.0000 0.59137  0.63406  0.74697  Biso   1.000  C
  H330     1.0000 0.58350  0.65550  0.75580  Biso   1.000  H
  C474     1.0000 0.66330  0.61828  0.80765  Biso   1.000  C
  C475     1.0000 0.68173  0.63616  0.83803  Biso   1.000  C
  O191     1.0000 0.67919  0.59161  0.79931  Biso   1.000  O
  C476     1.0000 0.70646  0.66182  0.83050  Biso   1.000  C
  C477     1.0000 0.67330  0.62884  0.87113  Biso   1.000  C
  H331     1.0000 0.71150  0.66760  0.80720  Biso   1.000  H
  C478     1.0000 0.72309  0.67832  0.85673  Biso   1.000  C
  C479     1.0000 0.68903  0.64588  0.89806  Biso   1.000  C
  H332     1.0000 0.65630  0.61180  0.87580  Biso   1.000  H
  H333     1.0000 0.74060  0.69470  0.85160  Biso   1.000  H
  C480     1.0000 0.71474  0.67141  0.89077  Biso   1.000  C
  H334     1.0000 0.68290  0.64070  0.92120  Biso   1.000  H
  N48      1.0000 0.73510  0.68870  0.92100  Biso   1.000  N
  O192     1.0000 0.73290  0.69350  0.92400  Biso   1.000  O
  H335     1.0000 0.75580  0.68110  0.92830  Biso   1.000  H
  H336     1.0000 0.62690  0.65480  0.80170  Biso   1.000  H
  O193     1.0000 0.17423  0.12378  0.03505  Biso   1.000  O
  O194     1.0000 0.21416  0.16548  0.03586  Biso   1.000  O
  C481     1.0000 0.20050  0.13826  0.04605  Biso   1.000  C
  C482     1.0000 0.21849  0.11956  0.07512  Biso   1.000  C
  C483     1.0000 0.24697  0.13406  0.09137  Biso   1.000  C
  H337     1.0000 0.25580  0.15550  0.08350  Biso   1.000  H
  C484     1.0000 0.30765  0.11828  0.16330  Biso   1.000  C
  C485     1.0000 0.33803  0.13616  0.18173  Biso   1.000  C
  O195     1.0000 0.29931  0.09161  0.17919  Biso   1.000  O
  C486     1.0000 0.33050  0.16182  0.20646  Biso   1.000  C
  C487     1.0000 0.37113  0.12884  0.17330  Biso   1.000  C
  H338     1.0000 0.30720  0.16760  0.21150  Biso   1.000  H
  C488     1.0000 0.35673  0.17832  0.22309  Biso   1.000  C
  C489     1.0000 0.39806  0.14588  0.18903  Biso   1.000  C
  H339     1.0000 0.37580  0.11180  0.15630  Biso   1.000  H
  H340     1.0000 0.35160  0.19470  0.24060  Biso   1.000  H
  C490     1.0000 0.39077  0.17141  0.21474  Biso   1.000  C
  H341     1.0000 0.42120  0.14070  0.18290  Biso   1.000  H
  N49      1.0000 0.42100  0.18870  0.23510  Biso   1.000  N
  O196     1.0000 0.42400  0.19350  0.23290  Biso   1.000  O
  H342     1.0000 0.42830  0.18110  0.25580  Biso   1.000  H
  H343     1.0000 0.30170  0.15480  0.12690  Biso   1.000  H
  O197     1.0000 0.67423  0.62378  0.53505  Biso   1.000  O
  O198     1.0000 0.71416  0.66548  0.53586  Biso   1.000  O
  C491     1.0000 0.70050  0.63826  0.54605  Biso   1.000  C
  C492     1.0000 0.71849  0.61956  0.57512  Biso   1.000  C
  C493     1.0000 0.74697  0.63406  0.59137  Biso   1.000  C
  H344     1.0000 0.75580  0.65550  0.58350  Biso   1.000  H
  C494     1.0000 0.80765  0.61828  0.66330  Biso   1.000  C
  C495     1.0000 0.83803  0.63616  0.68173  Biso   1.000  C
  O199     1.0000 0.79931  0.59161  0.67919  Biso   1.000  O
  C496     1.0000 0.83050  0.66182  0.70646  Biso   1.000  C
  C497     1.0000 0.87113  0.62884  0.67330  Biso   1.000  C
  H345     1.0000 0.80720  0.66760  0.71150  Biso   1.000  H
  C498     1.0000 0.85673  0.67832  0.72309  Biso   1.000  C
  C499     1.0000 0.89806  0.64588  0.68903  Biso   1.000  C
  H346     1.0000 0.87580  0.61180  0.65630  Biso   1.000  H
  H347     1.0000 0.85160  0.69470  0.74060  Biso   1.000  H
  C500     1.0000 0.89077  0.67141  0.71474  Biso   1.000  C
  H348     1.0000 0.92120  0.64070  0.68290  Biso   1.000  H
  N50      1.0000 0.92100  0.68870  0.73510  Biso   1.000  N
  O200     1.0000 0.92400  0.69350  0.73290  Biso   1.000  O
  H349     1.0000 0.92830  0.68110  0.75580  Biso   1.000  H
  H350     1.0000 0.80170  0.65480  0.62690  Biso   1.000  H
  O201     1.0000 0.82577  0.87622  0.03505  Biso   1.000  O
  O202     1.0000 0.78584  0.83452  0.03586  Biso   1.000  O
  C501     1.0000 0.79950  0.86174  0.04605  Biso   1.000  C
  C502     1.0000 0.78151  0.88044  0.07512  Biso   1.000  C
  C503     1.0000 0.75303  0.86594  0.09137  Biso   1.000  C
  H351     1.0000 0.74420  0.84450  0.08350  Biso   1.000  H
  C504     1.0000 0.69235  0.88172  0.16330  Biso   1.000  C
  C505     1.0000 0.66197  0.86384  0.18173  Biso   1.000  C
  O203     1.0000 0.70069  0.90839  0.17919  Biso   1.000  O
  C506     1.0000 0.66950  0.83818  0.20646  Biso   1.000  C
  C507     1.0000 0.62887  0.87116  0.17330  Biso   1.000  C
  H352     1.0000 0.69280  0.83240  0.21150  Biso   1.000  H
  C508     1.0000 0.64327  0.82168  0.22309  Biso   1.000  C
  C509     1.0000 0.60194  0.85412  0.18903  Biso   1.000  C
  H353     1.0000 0.62420  0.88820  0.15630  Biso   1.000  H
  H354     1.0000 0.64840  0.80530  0.24060  Biso   1.000  H
  C510     1.0000 0.60923  0.82859  0.21474  Biso   1.000  C
  H355     1.0000 0.57880  0.85930  0.18290  Biso   1.000  H
  N51      1.0000 0.57900  0.81130  0.23510  Biso   1.000  N
  O204     1.0000 0.57600  0.80650  0.23290  Biso   1.000  O
  H356     1.0000 0.57170  0.81890  0.25580  Biso   1.000  H
  H357     1.0000 0.69830  0.84520  0.12690  Biso   1.000  H
  O205     1.0000 0.32577  0.37622  0.53505  Biso   1.000  O
  O206     1.0000 0.28584  0.33452  0.53586  Biso   1.000  O
  C511     1.0000 0.29950  0.36174  0.54605  Biso   1.000  C
  C512     1.0000 0.28151  0.38044  0.57512  Biso   1.000  C
  C513     1.0000 0.25303  0.36594  0.59137  Biso   1.000  C
  H358     1.0000 0.24420  0.34450  0.58350  Biso   1.000  H
  C514     1.0000 0.19235  0.38172  0.66330  Biso   1.000  C
  C515     1.0000 0.16197  0.36384  0.68173  Biso   1.000  C
  O207     1.0000 0.20069  0.40839  0.67919  Biso   1.000  O
  C516     1.0000 0.16950  0.33818  0.70646  Biso   1.000  C
  C517     1.0000 0.12887  0.37116  0.67330  Biso   1.000  C
  H359     1.0000 0.19280  0.33240  0.71150  Biso   1.000  H
  C518     1.0000 0.14327  0.32168  0.72309  Biso   1.000  C
  C519     1.0000 0.10194  0.35412  0.68903  Biso   1.000  C
  H360     1.0000 0.12420  0.38820  0.65630  Biso   1.000  H
  H361     1.0000 0.14840  0.30530  0.74060  Biso   1.000  H
  C520     1.0000 0.10923  0.32859  0.71474  Biso   1.000  C
  H362     1.0000 0.07880  0.35930  0.68290  Biso   1.000  H
  N52      1.0000 0.07900  0.31130  0.73510  Biso   1.000  N
  O208     1.0000 0.07600  0.30650  0.73290  Biso   1.000  O
  H363     1.0000 0.07170  0.31890  0.75580  Biso   1.000  H
  H364     1.0000 0.19830  0.34520  0.62690  Biso   1.000  H
  O209     1.0000 0.82577  0.12378  0.96495  Biso   1.000  O
  O210     1.0000 0.78584  0.16548  0.96414  Biso   1.000  O
  C521     1.0000 0.79950  0.13826  0.95395  Biso   1.000  C
  C522     1.0000 0.78151  0.11956  0.92488  Biso   1.000  C
  C523     1.0000 0.75303  0.13406  0.90863  Biso   1.000  C
  H365     1.0000 0.74420  0.15550  0.91650  Biso   1.000  H
  C524     1.0000 0.69235  0.11828  0.83670  Biso   1.000  C
  C525     1.0000 0.66197  0.13616  0.81827  Biso   1.000  C
  O211     1.0000 0.70069  0.09161  0.82081  Biso   1.000  O
  C526     1.0000 0.66950  0.16182  0.79354  Biso   1.000  C
  C527     1.0000 0.62887  0.12884  0.82670  Biso   1.000  C
  H366     1.0000 0.69280  0.16760  0.78850  Biso   1.000  H
  C528     1.0000 0.64327  0.17832  0.77691  Biso   1.000  C
  C529     1.0000 0.60194  0.14588  0.81097  Biso   1.000  C
  H367     1.0000 0.62420  0.11180  0.84370  Biso   1.000  H
  H368     1.0000 0.64840  0.19470  0.75940  Biso   1.000  H
  C530     1.0000 0.60923  0.17141  0.78526  Biso   1.000  C
  H369     1.0000 0.57880  0.14070  0.81710  Biso   1.000  H
  N53      1.0000 0.57900  0.18870  0.76490  Biso   1.000  N
  O212     1.0000 0.57600  0.19350  0.76710  Biso   1.000  O
  H370     1.0000 0.57170  0.18110  0.74420  Biso   1.000  H
  H371     1.0000 0.69830  0.15480  0.87310  Biso   1.000  H
  O213     1.0000 0.32577  0.62378  0.46495  Biso   1.000  O
  O214     1.0000 0.28584  0.66548  0.46414  Biso   1.000  O
  C531     1.0000 0.29950  0.63826  0.45395  Biso   1.000  C
  C532     1.0000 0.28151  0.61956  0.42488  Biso   1.000  C
  C533     1.0000 0.25303  0.63406  0.40863  Biso   1.000  C
  H372     1.0000 0.24420  0.65550  0.41650  Biso   1.000  H
  C534     1.0000 0.19235  0.61828  0.33670  Biso   1.000  C
  C535     1.0000 0.16197  0.63616  0.31827  Biso   1.000  C
  O215     1.0000 0.20069  0.59161  0.32081  Biso   1.000  O
  C536     1.0000 0.16950  0.66182  0.29354  Biso   1.000  C
  C537     1.0000 0.12887  0.62884  0.32670  Biso   1.000  C
  H373     1.0000 0.19280  0.66760  0.28850  Biso   1.000  H
  C538     1.0000 0.14327  0.67832  0.27691  Biso   1.000  C
  C539     1.0000 0.10194  0.64588  0.31097  Biso   1.000  C
  H374     1.0000 0.12420  0.61180  0.34370  Biso   1.000  H
  H375     1.0000 0.14840  0.69470  0.25940  Biso   1.000  H
  C540     1.0000 0.10923  0.67141  0.28526  Biso   1.000  C
  H376     1.0000 0.07880  0.64070  0.31710  Biso   1.000  H
  N54      1.0000 0.07900  0.68870  0.26490  Biso   1.000  N
  O216     1.0000 0.07600  0.69350  0.26710  Biso   1.000  O
  H377     1.0000 0.07170  0.68110  0.24420  Biso   1.000  H
  H378     1.0000 0.19830  0.65480  0.37310  Biso   1.000  H
  O217     1.0000 0.17423  0.87622  0.96495  Biso   1.000  O
  O218     1.0000 0.21416  0.83452  0.96414  Biso   1.000  O
  C541     1.0000 0.20050  0.86174  0.95395  Biso   1.000  C
  C542     1.0000 0.21849  0.88044  0.92488  Biso   1.000  C
  C543     1.0000 0.24697  0.86594  0.90863  Biso   1.000  C
  H379     1.0000 0.25580  0.84450  0.91650  Biso   1.000  H
  C544     1.0000 0.30765  0.88172  0.83670  Biso   1.000  C
  C545     1.0000 0.33803  0.86384  0.81827  Biso   1.000  C
  O219     1.0000 0.29931  0.90839  0.82081  Biso   1.000  O
  C546     1.0000 0.33050  0.83818  0.79354  Biso   1.000  C
  C547     1.0000 0.37113  0.87116  0.82670  Biso   1.000  C
  H380     1.0000 0.30720  0.83240  0.78850  Biso   1.000  H
  C548     1.0000 0.35673  0.82168  0.77691  Biso   1.000  C
  C549     1.0000 0.39806  0.85412  0.81097  Biso   1.000  C
  H381     1.0000 0.37580  0.88820  0.84370  Biso   1.000  H
  H382     1.0000 0.35160  0.80530  0.75940  Biso   1.000  H
  C550     1.0000 0.39077  0.82859  0.78526  Biso   1.000  C
  H383     1.0000 0.42120  0.85930  0.81710  Biso   1.000  H
  N55      1.0000 0.42100  0.81130  0.76490  Biso   1.000  N
  O220     1.0000 0.42400  0.80650  0.76710  Biso   1.000  O
  H384     1.0000 0.42830  0.81890  0.74420  Biso   1.000  H
  H385     1.0000 0.30170  0.84520  0.87310  Biso   1.000  H
  O221     1.0000 0.67423  0.37622  0.46495  Biso   1.000  O
  O222     1.0000 0.71416  0.33452  0.46414  Biso   1.000  O
  C551     1.0000 0.70050  0.36174  0.45395  Biso   1.000  C
  C552     1.0000 0.71849  0.38044  0.42488  Biso   1.000  C
  C553     1.0000 0.74697  0.36594  0.40863  Biso   1.000  C
  H386     1.0000 0.75580  0.34450  0.41650  Biso   1.000  H
  C554     1.0000 0.80765  0.38172  0.33670  Biso   1.000  C
  C555     1.0000 0.83803  0.36384  0.31827  Biso   1.000  C
  O223     1.0000 0.79931  0.40839  0.32081  Biso   1.000  O
  C556     1.0000 0.83050  0.33818  0.29354  Biso   1.000  C
  C557     1.0000 0.87113  0.37116  0.32670  Biso   1.000  C
  H387     1.0000 0.80720  0.33240  0.28850  Biso   1.000  H
  C558     1.0000 0.85673  0.32168  0.27691  Biso   1.000  C
  C559     1.0000 0.89806  0.35412  0.31097  Biso   1.000  C
  H388     1.0000 0.87580  0.38820  0.34370  Biso   1.000  H
  H389     1.0000 0.85160  0.30530  0.25940  Biso   1.000  H
  C560     1.0000 0.89077  0.32859  0.28526  Biso   1.000  C
  H390     1.0000 0.92120  0.35930  0.31710  Biso   1.000  H
  N56      1.0000 0.92100  0.31130  0.26490  Biso   1.000  N
  O224     1.0000 0.92400  0.30650  0.26710  Biso   1.000  O
  H391     1.0000 0.92830  0.31890  0.24420  Biso   1.000  H
  H392     1.0000 0.80170  0.34520  0.37310  Biso   1.000  H
  O225     1.0000 0.03505  0.17423  0.12378  Biso   1.000  O
  O226     1.0000 0.03586  0.21416  0.16548  Biso   1.000  O
  C561     1.0000 0.04605  0.20050  0.13826  Biso   1.000  C
  C562     1.0000 0.07512  0.21849  0.11956  Biso   1.000  C
  C563     1.0000 0.09137  0.24697  0.13406  Biso   1.000  C
  H393     1.0000 0.08350  0.25580  0.15550  Biso   1.000  H
  C564     1.0000 0.16330  0.30765  0.11828  Biso   1.000  C
  C565     1.0000 0.18173  0.33803  0.13616  Biso   1.000  C
  O227     1.0000 0.17919  0.29931  0.09161  Biso   1.000  O
  C566     1.0000 0.20646  0.33050  0.16182  Biso   1.000  C
  C567     1.0000 0.17330  0.37113  0.12884  Biso   1.000  C
  H394     1.0000 0.21150  0.30720  0.16760  Biso   1.000  H
  C568     1.0000 0.22309  0.35673  0.17832  Biso   1.000  C
  C569     1.0000 0.18903  0.39806  0.14588  Biso   1.000  C
  H395     1.0000 0.15630  0.37580  0.11180  Biso   1.000  H
  H396     1.0000 0.24060  0.35160  0.19470  Biso   1.000  H
  C570     1.0000 0.21474  0.39077  0.17141  Biso   1.000  C
  H397     1.0000 0.18290  0.42120  0.14070  Biso   1.000  H
  N57      1.0000 0.23510  0.42100  0.18870  Biso   1.000  N
  O228     1.0000 0.23290  0.42400  0.19350  Biso   1.000  O
  H398     1.0000 0.25580  0.42830  0.18110  Biso   1.000  H
  H399     1.0000 0.12690  0.30170  0.15480  Biso   1.000  H
  O229     1.0000 0.53505  0.67423  0.62378  Biso   1.000  O
  O230     1.0000 0.53586  0.71416  0.66548  Biso   1.000  O
  C571     1.0000 0.54605  0.70050  0.63826  Biso   1.000  C
  C572     1.0000 0.57512  0.71849  0.61956  Biso   1.000  C
  C573     1.0000 0.59137  0.74697  0.63406  Biso   1.000  C
  H400     1.0000 0.58350  0.75580  0.65550  Biso   1.000  H
  C574     1.0000 0.66330  0.80765  0.61828  Biso   1.000  C
  C575     1.0000 0.68173  0.83803  0.63616  Biso   1.000  C
  O231     1.0000 0.67919  0.79931  0.59161  Biso   1.000  O
  C576     1.0000 0.70646  0.83050  0.66182  Biso   1.000  C
  C577     1.0000 0.67330  0.87113  0.62884  Biso   1.000  C
  H401     1.0000 0.71150  0.80720  0.66760  Biso   1.000  H
  C578     1.0000 0.72309  0.85673  0.67832  Biso   1.000  C
  C579     1.0000 0.68903  0.89806  0.64588  Biso   1.000  C
  H402     1.0000 0.65630  0.87580  0.61180  Biso   1.000  H
  H403     1.0000 0.74060  0.85160  0.69470  Biso   1.000  H
  C580     1.0000 0.71474  0.89077  0.67141  Biso   1.000  C
  H404     1.0000 0.68290  0.92120  0.64070  Biso   1.000  H
  N58      1.0000 0.73510  0.92100  0.68870  Biso   1.000  N
  O232     1.0000 0.73290  0.92400  0.69350  Biso   1.000  O
  H405     1.0000 0.75580  0.92830  0.68110  Biso   1.000  H
  H406     1.0000 0.62690  0.80170  0.65480  Biso   1.000  H
  O233     1.0000 0.03505  0.82577  0.87622  Biso   1.000  O
  O234     1.0000 0.03586  0.78584  0.83452  Biso   1.000  O
  C581     1.0000 0.04605  0.79950  0.86174  Biso   1.000  C
  C582     1.0000 0.07512  0.78151  0.88044  Biso   1.000  C
  C583     1.0000 0.09137  0.75303  0.86594  Biso   1.000  C
  H407     1.0000 0.08350  0.74420  0.84450  Biso   1.000  H
  C584     1.0000 0.16330  0.69235  0.88172  Biso   1.000  C
  C585     1.0000 0.18173  0.66197  0.86384  Biso   1.000  C
  O235     1.0000 0.17919  0.70069  0.90839  Biso   1.000  O
  C586     1.0000 0.20646  0.66950  0.83818  Biso   1.000  C
  C587     1.0000 0.17330  0.62887  0.87116  Biso   1.000  C
  H408     1.0000 0.21150  0.69280  0.83240  Biso   1.000  H
  C588     1.0000 0.22309  0.64327  0.82168  Biso   1.000  C
  C589     1.0000 0.18903  0.60194  0.85412  Biso   1.000  C
  H409     1.0000 0.15630  0.62420  0.88820  Biso   1.000  H
  H410     1.0000 0.24060  0.64840  0.80530  Biso   1.000  H
  C590     1.0000 0.21474  0.60923  0.82859  Biso   1.000  C
  H411     1.0000 0.18290  0.57880  0.85930  Biso   1.000  H
  N59      1.0000 0.23510  0.57900  0.81130  Biso   1.000  N
  O236     1.0000 0.23290  0.57600  0.80650  Biso   1.000  O
  H412     1.0000 0.25580  0.57170  0.81890  Biso   1.000  H
  H413     1.0000 0.12690  0.69830  0.84520  Biso   1.000  H
  O237     1.0000 0.53505  0.32577  0.37622  Biso   1.000  O
  O238     1.0000 0.53586  0.28584  0.33452  Biso   1.000  O
  C591     1.0000 0.54605  0.29950  0.36174  Biso   1.000  C
  C592     1.0000 0.57512  0.28151  0.38044  Biso   1.000  C
  C593     1.0000 0.59137  0.25303  0.36594  Biso   1.000  C
  H414     1.0000 0.58350  0.24420  0.34450  Biso   1.000  H
  C594     1.0000 0.66330  0.19235  0.38172  Biso   1.000  C
  C595     1.0000 0.68173  0.16197  0.36384  Biso   1.000  C
  O239     1.0000 0.67919  0.20069  0.40839  Biso   1.000  O
  C596     1.0000 0.70646  0.16950  0.33818  Biso   1.000  C
  C597     1.0000 0.67330  0.12887  0.37116  Biso   1.000  C
  H415     1.0000 0.71150  0.19280  0.33240  Biso   1.000  H
  C598     1.0000 0.72309  0.14327  0.32168  Biso   1.000  C
  C599     1.0000 0.68903  0.10194  0.35412  Biso   1.000  C
  H416     1.0000 0.65630  0.12420  0.38820  Biso   1.000  H
  H417     1.0000 0.74060  0.14840  0.30530  Biso   1.000  H
  C600     1.0000 0.71474  0.10923  0.32859  Biso   1.000  C
  H418     1.0000 0.68290  0.07880  0.35930  Biso   1.000  H
  N60      1.0000 0.73510  0.07900  0.31130  Biso   1.000  N
  O240     1.0000 0.73290  0.07600  0.30650  Biso   1.000  O
  H419     1.0000 0.75580  0.07170  0.31890  Biso   1.000  H
  H420     1.0000 0.62690  0.19830  0.34520  Biso   1.000  H
  O241     1.0000 0.96495  0.82577  0.12378  Biso   1.000  O
  O242     1.0000 0.96414  0.78584  0.16548  Biso   1.000  O
  C601     1.0000 0.95395  0.79950  0.13826  Biso   1.000  C
  C602     1.0000 0.92488  0.78151  0.11956  Biso   1.000  C
  C603     1.0000 0.90863  0.75303  0.13406  Biso   1.000  C
  H421     1.0000 0.91650  0.74420  0.15550  Biso   1.000  H
  C604     1.0000 0.83670  0.69235  0.11828  Biso   1.000  C
  C605     1.0000 0.81827  0.66197  0.13616  Biso   1.000  C
  O243     1.0000 0.82081  0.70069  0.09161  Biso   1.000  O
  C606     1.0000 0.79354  0.66950  0.16182  Biso   1.000  C
  C607     1.0000 0.82670  0.62887  0.12884  Biso   1.000  C
  H422     1.0000 0.78850  0.69280  0.16760  Biso   1.000  H
  C608     1.0000 0.77691  0.64327  0.17832  Biso   1.000  C
  C609     1.0000 0.81097  0.60194  0.14588  Biso   1.000  C
  H423     1.0000 0.84370  0.62420  0.11180  Biso   1.000  H
  H424     1.0000 0.75940  0.64840  0.19470  Biso   1.000  H
  C610     1.0000 0.78526  0.60923  0.17141  Biso   1.000  C
  H425     1.0000 0.81710  0.57880  0.14070  Biso   1.000  H
  N61      1.0000 0.76490  0.57900  0.18870  Biso   1.000  N
  O244     1.0000 0.76710  0.57600  0.19350  Biso   1.000  O
  H426     1.0000 0.74420  0.57170  0.18110  Biso   1.000  H
  H427     1.0000 0.87310  0.69830  0.15480  Biso   1.000  H
  O245     1.0000 0.46495  0.32577  0.62378  Biso   1.000  O
  O246     1.0000 0.46414  0.28584  0.66548  Biso   1.000  O
  C611     1.0000 0.45395  0.29950  0.63826  Biso   1.000  C
  C612     1.0000 0.42488  0.28151  0.61956  Biso   1.000  C
  C613     1.0000 0.40863  0.25303  0.63406  Biso   1.000  C
  H428     1.0000 0.41650  0.24420  0.65550  Biso   1.000  H
  C614     1.0000 0.33670  0.19235  0.61828  Biso   1.000  C
  C615     1.0000 0.31827  0.16197  0.63616  Biso   1.000  C
  O247     1.0000 0.32081  0.20069  0.59161  Biso   1.000  O
  C616     1.0000 0.29354  0.16950  0.66182  Biso   1.000  C
  C617     1.0000 0.32670  0.12887  0.62884  Biso   1.000  C
  H429     1.0000 0.28850  0.19280  0.66760  Biso   1.000  H
  C618     1.0000 0.27691  0.14327  0.67832  Biso   1.000  C
  C619     1.0000 0.31097  0.10194  0.64588  Biso   1.000  C
  H430     1.0000 0.34370  0.12420  0.61180  Biso   1.000  H
  H431     1.0000 0.25940  0.14840  0.69470  Biso   1.000  H
  C620     1.0000 0.28526  0.10923  0.67141  Biso   1.000  C
  H432     1.0000 0.31710  0.07880  0.64070  Biso   1.000  H
  N62      1.0000 0.26490  0.07900  0.68870  Biso   1.000  N
  O248     1.0000 0.26710  0.07600  0.69350  Biso   1.000  O
  H433     1.0000 0.24420  0.07170  0.68110  Biso   1.000  H
  H434     1.0000 0.37310  0.19830  0.65480  Biso   1.000  H
  O249     1.0000 0.96495  0.17423  0.87622  Biso   1.000  O
  O250     1.0000 0.96414  0.21416  0.83452  Biso   1.000  O
  C621     1.0000 0.95395  0.20050  0.86174  Biso   1.000  C
  C622     1.0000 0.92488  0.21849  0.88044  Biso   1.000  C
  C623     1.0000 0.90863  0.24697  0.86594  Biso   1.000  C
  H435     1.0000 0.91650  0.25580  0.84450  Biso   1.000  H
  C624     1.0000 0.83670  0.30765  0.88172  Biso   1.000  C
  C625     1.0000 0.81827  0.33803  0.86384  Biso   1.000  C
  O251     1.0000 0.82081  0.29931  0.90839  Biso   1.000  O
  C626     1.0000 0.79354  0.33050  0.83818  Biso   1.000  C
  C627     1.0000 0.82670  0.37113  0.87116  Biso   1.000  C
  H436     1.0000 0.78850  0.30720  0.83240  Biso   1.000  H
  C628     1.0000 0.77691  0.35673  0.82168  Biso   1.000  C
  C629     1.0000 0.81097  0.39806  0.85412  Biso   1.000  C
  H437     1.0000 0.84370  0.37580  0.88820  Biso   1.000  H
  H438     1.0000 0.75940  0.35160  0.80530  Biso   1.000  H
  C630     1.0000 0.78526  0.39077  0.82859  Biso   1.000  C
  H439     1.0000 0.81710  0.42120  0.85930  Biso   1.000  H
  N63      1.0000 0.76490  0.42100  0.81130  Biso   1.000  N
  O252     1.0000 0.76710  0.42400  0.80650  Biso   1.000  O
  H440     1.0000 0.74420  0.42830  0.81890  Biso   1.000  H
  H441     1.0000 0.87310  0.30170  0.84520  Biso   1.000  H
  O253     1.0000 0.46495  0.67423  0.37622  Biso   1.000  O
  O254     1.0000 0.46414  0.71416  0.33452  Biso   1.000  O
  C631     1.0000 0.45395  0.70050  0.36174  Biso   1.000  C
  C632     1.0000 0.42488  0.71849  0.38044  Biso   1.000  C
  C633     1.0000 0.40863  0.74697  0.36594  Biso   1.000  C
  H442     1.0000 0.41650  0.75580  0.34450  Biso   1.000  H
  C634     1.0000 0.33670  0.80765  0.38172  Biso   1.000  C
  C635     1.0000 0.31827  0.83803  0.36384  Biso   1.000  C
  O255     1.0000 0.32081  0.79931  0.40839  Biso   1.000  O
  C636     1.0000 0.29354  0.83050  0.33818  Biso   1.000  C
  C637     1.0000 0.32670  0.87113  0.37116  Biso   1.000  C
  H443     1.0000 0.28850  0.80720  0.33240  Biso   1.000  H
  C638     1.0000 0.27691  0.85673  0.32168  Biso   1.000  C
  C639     1.0000 0.31097  0.89806  0.35412  Biso   1.000  C
  H444     1.0000 0.34370  0.87580  0.38820  Biso   1.000  H
  H445     1.0000 0.25940  0.85160  0.30530  Biso   1.000  H
  C640     1.0000 0.28526  0.89077  0.32859  Biso   1.000  C
  H446     1.0000 0.31710  0.92120  0.35930  Biso   1.000  H
  N64      1.0000 0.26490  0.92100  0.31130  Biso   1.000  N
  O256     1.0000 0.26710  0.92400  0.30650  Biso   1.000  O
  H447     1.0000 0.24420  0.92830  0.31890  Biso   1.000  H
  H448     1.0000 0.37310  0.80170  0.34520  Biso   1.000  H
  O257     1.0000 0.12378  0.03505  0.17423  Biso   1.000  O
  O258     1.0000 0.16548  0.03586  0.21416  Biso   1.000  O
  C641     1.0000 0.13826  0.04605  0.20050  Biso   1.000  C
  C642     1.0000 0.11956  0.07512  0.21849  Biso   1.000  C
  C643     1.0000 0.13406  0.09137  0.24697  Biso   1.000  C
  H449     1.0000 0.15550  0.08350  0.25580  Biso   1.000  H
  C644     1.0000 0.11828  0.16330  0.30765  Biso   1.000  C
  C645     1.0000 0.13616  0.18173  0.33803  Biso   1.000  C
  O259     1.0000 0.09161  0.17919  0.29931  Biso   1.000  O
  C646     1.0000 0.16182  0.20646  0.33050  Biso   1.000  C
  C647     1.0000 0.12884  0.17330  0.37113  Biso   1.000  C
  H450     1.0000 0.16760  0.21150  0.30720  Biso   1.000  H
  C648     1.0000 0.17832  0.22309  0.35673  Biso   1.000  C
  C649     1.0000 0.14588  0.18903  0.39806  Biso   1.000  C
  H451     1.0000 0.11180  0.15630  0.37580  Biso   1.000  H
  H452     1.0000 0.19470  0.24060  0.35160  Biso   1.000  H
  C650     1.0000 0.17141  0.21474  0.39077  Biso   1.000  C
  H453     1.0000 0.14070  0.18290  0.42120  Biso   1.000  H
  N65      1.0000 0.18870  0.23510  0.42100  Biso   1.000  N
  O260     1.0000 0.19350  0.23290  0.42400  Biso   1.000  O
  H454     1.0000 0.18110  0.25580  0.42830  Biso   1.000  H
  H455     1.0000 0.15480  0.12690  0.30170  Biso   1.000  H
  O261     1.0000 0.62378  0.53505  0.67423  Biso   1.000  O
  O262     1.0000 0.66548  0.53586  0.71416  Biso   1.000  O
  C651     1.0000 0.63826  0.54605  0.70050  Biso   1.000  C
  C652     1.0000 0.61956  0.57512  0.71849  Biso   1.000  C
  C653     1.0000 0.63406  0.59137  0.74697  Biso   1.000  C
  H456     1.0000 0.65550  0.58350  0.75580  Biso   1.000  H
  C654     1.0000 0.61828  0.66330  0.80765  Biso   1.000  C
  C655     1.0000 0.63616  0.68173  0.83803  Biso   1.000  C
  O263     1.0000 0.59161  0.67919  0.79931  Biso   1.000  O
  C656     1.0000 0.66182  0.70646  0.83050  Biso   1.000  C
  C657     1.0000 0.62884  0.67330  0.87113  Biso   1.000  C
  H457     1.0000 0.66760  0.71150  0.80720  Biso   1.000  H
  C658     1.0000 0.67832  0.72309  0.85673  Biso   1.000  C
  C659     1.0000 0.64588  0.68903  0.89806  Biso   1.000  C
  H458     1.0000 0.61180  0.65630  0.87580  Biso   1.000  H
  H459     1.0000 0.69470  0.74060  0.85160  Biso   1.000  H
  C660     1.0000 0.67141  0.71474  0.89077  Biso   1.000  C
  H460     1.0000 0.64070  0.68290  0.92120  Biso   1.000  H
  N66      1.0000 0.68870  0.73510  0.92100  Biso   1.000  N
  O264     1.0000 0.69350  0.73290  0.92400  Biso   1.000  O
  H461     1.0000 0.68110  0.75580  0.92830  Biso   1.000  H
  H462     1.0000 0.65480  0.62690  0.80170  Biso   1.000  H
  O265     1.0000 0.87622  0.03505  0.82577  Biso   1.000  O
  O266     1.0000 0.83452  0.03586  0.78584  Biso   1.000  O
  C661     1.0000 0.86174  0.04605  0.79950  Biso   1.000  C
  C662     1.0000 0.88044  0.07512  0.78151  Biso   1.000  C
  C663     1.0000 0.86594  0.09137  0.75303  Biso   1.000  C
  H463     1.0000 0.84450  0.08350  0.74420  Biso   1.000  H
  C664     1.0000 0.88172  0.16330  0.69235  Biso   1.000  C
  C665     1.0000 0.86384  0.18173  0.66197  Biso   1.000  C
  O267     1.0000 0.90839  0.17919  0.70069  Biso   1.000  O
  C666     1.0000 0.83818  0.20646  0.66950  Biso   1.000  C
  C667     1.0000 0.87116  0.17330  0.62887  Biso   1.000  C
  H464     1.0000 0.83240  0.21150  0.69280  Biso   1.000  H
  C668     1.0000 0.82168  0.22309  0.64327  Biso   1.000  C
  C669     1.0000 0.85412  0.18903  0.60194  Biso   1.000  C
  H465     1.0000 0.88820  0.15630  0.62420  Biso   1.000  H
  H466     1.0000 0.80530  0.24060  0.64840  Biso   1.000  H
  C670     1.0000 0.82859  0.21474  0.60923  Biso   1.000  C
  H467     1.0000 0.85930  0.18290  0.57880  Biso   1.000  H
  N67      1.0000 0.81130  0.23510  0.57900  Biso   1.000  N
  O268     1.0000 0.80650  0.23290  0.57600  Biso   1.000  O
  H468     1.0000 0.81890  0.25580  0.57170  Biso   1.000  H
  H469     1.0000 0.84520  0.12690  0.69830  Biso   1.000  H
  O269     1.0000 0.37622  0.53505  0.32577  Biso   1.000  O
  O270     1.0000 0.33452  0.53586  0.28584  Biso   1.000  O
  C671     1.0000 0.36174  0.54605  0.29950  Biso   1.000  C
  C672     1.0000 0.38044  0.57512  0.28151  Biso   1.000  C
  C673     1.0000 0.36594  0.59137  0.25303  Biso   1.000  C
  H470     1.0000 0.34450  0.58350  0.24420  Biso   1.000  H
  C674     1.0000 0.38172  0.66330  0.19235  Biso   1.000  C
  C675     1.0000 0.36384  0.68173  0.16197  Biso   1.000  C
  O271     1.0000 0.40839  0.67919  0.20069  Biso   1.000  O
  C676     1.0000 0.33818  0.70646  0.16950  Biso   1.000  C
  C677     1.0000 0.37116  0.67330  0.12887  Biso   1.000  C
  H471     1.0000 0.33240  0.71150  0.19280  Biso   1.000  H
  C678     1.0000 0.32168  0.72309  0.14327  Biso   1.000  C
  C679     1.0000 0.35412  0.68903  0.10194  Biso   1.000  C
  H472     1.0000 0.38820  0.65630  0.12420  Biso   1.000  H
  H473     1.0000 0.30530  0.74060  0.14840  Biso   1.000  H
  C680     1.0000 0.32859  0.71474  0.10923  Biso   1.000  C
  H474     1.0000 0.35930  0.68290  0.07880  Biso   1.000  H
  N68      1.0000 0.31130  0.73510  0.07900  Biso   1.000  N
  O272     1.0000 0.30650  0.73290  0.07600  Biso   1.000  O
  H475     1.0000 0.31890  0.75580  0.07170  Biso   1.000  H
  H476     1.0000 0.34520  0.62690  0.19830  Biso   1.000  H
  O273     1.0000 0.12378  0.96495  0.82577  Biso   1.000  O
  O274     1.0000 0.16548  0.96414  0.78584  Biso   1.000  O
  C681     1.0000 0.13826  0.95395  0.79950  Biso   1.000  C
  C682     1.0000 0.11956  0.92488  0.78151  Biso   1.000  C
  C683     1.0000 0.13406  0.90863  0.75303  Biso   1.000  C
  H477     1.0000 0.15550  0.91650  0.74420  Biso   1.000  H
  C684     1.0000 0.11828  0.83670  0.69235  Biso   1.000  C
  C685     1.0000 0.13616  0.81827  0.66197  Biso   1.000  C
  O275     1.0000 0.09161  0.82081  0.70069  Biso   1.000  O
  C686     1.0000 0.16182  0.79354  0.66950  Biso   1.000  C
  C687     1.0000 0.12884  0.82670  0.62887  Biso   1.000  C
  H478     1.0000 0.16760  0.78850  0.69280  Biso   1.000  H
  C688     1.0000 0.17832  0.77691  0.64327  Biso   1.000  C
  C689     1.0000 0.14588  0.81097  0.60194  Biso   1.000  C
  H479     1.0000 0.11180  0.84370  0.62420  Biso   1.000  H
  H480     1.0000 0.19470  0.75940  0.64840  Biso   1.000  H
  C690     1.0000 0.17141  0.78526  0.60923  Biso   1.000  C
  H481     1.0000 0.14070  0.81710  0.57880  Biso   1.000  H
  N69      1.0000 0.18870  0.76490  0.57900  Biso   1.000  N
  O276     1.0000 0.19350  0.76710  0.57600  Biso   1.000  O
  H482     1.0000 0.18110  0.74420  0.57170  Biso   1.000  H
  H483     1.0000 0.15480  0.87310  0.69830  Biso   1.000  H
  O277     1.0000 0.62378  0.46495  0.32577  Biso   1.000  O
  O278     1.0000 0.66548  0.46414  0.28584  Biso   1.000  O
  C691     1.0000 0.63826  0.45395  0.29950  Biso   1.000  C
  C692     1.0000 0.61956  0.42488  0.28151  Biso   1.000  C
  C693     1.0000 0.63406  0.40863  0.25303  Biso   1.000  C
  H484     1.0000 0.65550  0.41650  0.24420  Biso   1.000  H
  C694     1.0000 0.61828  0.33670  0.19235  Biso   1.000  C
  C695     1.0000 0.63616  0.31827  0.16197  Biso   1.000  C
  O279     1.0000 0.59161  0.32081  0.20069  Biso   1.000  O
  C696     1.0000 0.66182  0.29354  0.16950  Biso   1.000  C
  C697     1.0000 0.62884  0.32670  0.12887  Biso   1.000  C
  H485     1.0000 0.66760  0.28850  0.19280  Biso   1.000  H
  C698     1.0000 0.67832  0.27691  0.14327  Biso   1.000  C
  C699     1.0000 0.64588  0.31097  0.10194  Biso   1.000  C
  H486     1.0000 0.61180  0.34370  0.12420  Biso   1.000  H
  H487     1.0000 0.69470  0.25940  0.14840  Biso   1.000  H
  C700     1.0000 0.67141  0.28526  0.10923  Biso   1.000  C
  H488     1.0000 0.64070  0.31710  0.07880  Biso   1.000  H
  N70      1.0000 0.68870  0.26490  0.07900  Biso   1.000  N
  O280     1.0000 0.69350  0.26710  0.07600  Biso   1.000  O
  H489     1.0000 0.68110  0.24420  0.07170  Biso   1.000  H
  H490     1.0000 0.65480  0.37310  0.19830  Biso   1.000  H
  O281     1.0000 0.87622  0.96495  0.17423  Biso   1.000  O
  O282     1.0000 0.83452  0.96414  0.21416  Biso   1.000  O
  C701     1.0000 0.86174  0.95395  0.20050  Biso   1.000  C
  C702     1.0000 0.88044  0.92488  0.21849  Biso   1.000  C
  C703     1.0000 0.86594  0.90863  0.24697  Biso   1.000  C
  H491     1.0000 0.84450  0.91650  0.25580  Biso   1.000  H
  C704     1.0000 0.88172  0.83670  0.30765  Biso   1.000  C
  C705     1.0000 0.86384  0.81827  0.33803  Biso   1.000  C
  O283     1.0000 0.90839  0.82081  0.29931  Biso   1.000  O
  C706     1.0000 0.83818  0.79354  0.33050  Biso   1.000  C
  C707     1.0000 0.87116  0.82670  0.37113  Biso   1.000  C
  H492     1.0000 0.83240  0.78850  0.30720  Biso   1.000  H
  C708     1.0000 0.82168  0.77691  0.35673  Biso   1.000  C
  C709     1.0000 0.85412  0.81097  0.39806  Biso   1.000  C
  H493     1.0000 0.88820  0.84370  0.37580  Biso   1.000  H
  H494     1.0000 0.80530  0.75940  0.35160  Biso   1.000  H
  C710     1.0000 0.82859  0.78526  0.39077  Biso   1.000  C
  H495     1.0000 0.85930  0.81710  0.42120  Biso   1.000  H
  N71      1.0000 0.81130  0.76490  0.42100  Biso   1.000  N
  O284     1.0000 0.80650  0.76710  0.42400  Biso   1.000  O
  H496     1.0000 0.81890  0.74420  0.42830  Biso   1.000  H
  H497     1.0000 0.84520  0.87310  0.30170  Biso   1.000  H
  O285     1.0000 0.37622  0.46495  0.67423  Biso   1.000  O
  O286     1.0000 0.33452  0.46414  0.71416  Biso   1.000  O
  C711     1.0000 0.36174  0.45395  0.70050  Biso   1.000  C
  C712     1.0000 0.38044  0.42488  0.71849  Biso   1.000  C
  C713     1.0000 0.36594  0.40863  0.74697  Biso   1.000  C
  H498     1.0000 0.34450  0.41650  0.75580  Biso   1.000  H
  C714     1.0000 0.38172  0.33670  0.80765  Biso   1.000  C
  C715     1.0000 0.36384  0.31827  0.83803  Biso   1.000  C
  O287     1.0000 0.40839  0.32081  0.79931  Biso   1.000  O
  C716     1.0000 0.33818  0.29354  0.83050  Biso   1.000  C
  C717     1.0000 0.37116  0.32670  0.87113  Biso   1.000  C
  H499     1.0000 0.33240  0.28850  0.80720  Biso   1.000  H
  C718     1.0000 0.32168  0.27691  0.85673  Biso   1.000  C
  C719     1.0000 0.35412  0.31097  0.89806  Biso   1.000  C
  H500     1.0000 0.38820  0.34370  0.87580  Biso   1.000  H
  H501     1.0000 0.30530  0.25940  0.85160  Biso   1.000  H
  C720     1.0000 0.32859  0.28526  0.89077  Biso   1.000  C
  H502     1.0000 0.35930  0.31710  0.92120  Biso   1.000  H
  N72      1.0000 0.31130  0.26490  0.92100  Biso   1.000  N
  O288     1.0000 0.30650  0.26710  0.92400  Biso   1.000  O
  H503     1.0000 0.31890  0.24420  0.92830  Biso   1.000  H
  H504     1.0000 0.34520  0.37310  0.80170  Biso   1.000  H
  O289     1.0000 0.12378  0.17423  0.96495  Biso   1.000  O
  O290     1.0000 0.16548  0.21416  0.96414  Biso   1.000  O
  C721     1.0000 0.13826  0.20050  0.95395  Biso   1.000  C
  C722     1.0000 0.11956  0.21849  0.92488  Biso   1.000  C
  C723     1.0000 0.13406  0.24697  0.90863  Biso   1.000  C
  H505     1.0000 0.15550  0.25580  0.91650  Biso   1.000  H
  C724     1.0000 0.11828  0.30765  0.83670  Biso   1.000  C
  C725     1.0000 0.13616  0.33803  0.81827  Biso   1.000  C
  O291     1.0000 0.09161  0.29931  0.82081  Biso   1.000  O
  C726     1.0000 0.16182  0.33050  0.79354  Biso   1.000  C
  C727     1.0000 0.12884  0.37113  0.82670  Biso   1.000  C
  H506     1.0000 0.16760  0.30720  0.78850  Biso   1.000  H
  C728     1.0000 0.17832  0.35673  0.77691  Biso   1.000  C
  C729     1.0000 0.14588  0.39806  0.81097  Biso   1.000  C
  H507     1.0000 0.11180  0.37580  0.84370  Biso   1.000  H
  H508     1.0000 0.19470  0.35160  0.75940  Biso   1.000  H
  C730     1.0000 0.17141  0.39077  0.78526  Biso   1.000  C
  H509     1.0000 0.14070  0.42120  0.81710  Biso   1.000  H
  N73      1.0000 0.18870  0.42100  0.76490  Biso   1.000  N
  O292     1.0000 0.19350  0.42400  0.76710  Biso   1.000  O
  H510     1.0000 0.18110  0.42830  0.74420  Biso   1.000  H
  H511     1.0000 0.15480  0.30170  0.87310  Biso   1.000  H
  O293     1.0000 0.62378  0.67423  0.46495  Biso   1.000  O
  O294     1.0000 0.66548  0.71416  0.46414  Biso   1.000  O
  C731     1.0000 0.63826  0.70050  0.45395  Biso   1.000  C
  C732     1.0000 0.61956  0.71849  0.42488  Biso   1.000  C
  C733     1.0000 0.63406  0.74697  0.40863  Biso   1.000  C
  H512     1.0000 0.65550  0.75580  0.41650  Biso   1.000  H
  C734     1.0000 0.61828  0.80765  0.33670  Biso   1.000  C
  C735     1.0000 0.63616  0.83803  0.31827  Biso   1.000  C
  O295     1.0000 0.59161  0.79931  0.32081  Biso   1.000  O
  C736     1.0000 0.66182  0.83050  0.29354  Biso   1.000  C
  C737     1.0000 0.62884  0.87113  0.32670  Biso   1.000  C
  H513     1.0000 0.66760  0.80720  0.28850  Biso   1.000  H
  C738     1.0000 0.67832  0.85673  0.27691  Biso   1.000  C
  C739     1.0000 0.64588  0.89806  0.31097  Biso   1.000  C
  H514     1.0000 0.61180  0.87580  0.34370  Biso   1.000  H
  H515     1.0000 0.69470  0.85160  0.25940  Biso   1.000  H
  C740     1.0000 0.67141  0.89077  0.28526  Biso   1.000  C
  H516     1.0000 0.64070  0.92120  0.31710  Biso   1.000  H
  N74      1.0000 0.68870  0.92100  0.26490  Biso   1.000  N
  O296     1.0000 0.69350  0.92400  0.26710  Biso   1.000  O
  H517     1.0000 0.68110  0.92830  0.24420  Biso   1.000  H
  H518     1.0000 0.65480  0.80170  0.37310  Biso   1.000  H
  O297     1.0000 0.87622  0.82577  0.96495  Biso   1.000  O
  O298     1.0000 0.83452  0.78584  0.96414  Biso   1.000  O
  C741     1.0000 0.86174  0.79950  0.95395  Biso   1.000  C
  C742     1.0000 0.88044  0.78151  0.92488  Biso   1.000  C
  C743     1.0000 0.86594  0.75303  0.90863  Biso   1.000  C
  H519     1.0000 0.84450  0.74420  0.91650  Biso   1.000  H
  C744     1.0000 0.88172  0.69235  0.83670  Biso   1.000  C
  C745     1.0000 0.86384  0.66197  0.81827  Biso   1.000  C
  O299     1.0000 0.90839  0.70069  0.82081  Biso   1.000  O
  C746     1.0000 0.83818  0.66950  0.79354  Biso   1.000  C
  C747     1.0000 0.87116  0.62887  0.82670  Biso   1.000  C
  H520     1.0000 0.83240  0.69280  0.78850  Biso   1.000  H
  C748     1.0000 0.82168  0.64327  0.77691  Biso   1.000  C
  C749     1.0000 0.85412  0.60194  0.81097  Biso   1.000  C
  H521     1.0000 0.88820  0.62420  0.84370  Biso   1.000  H
  H522     1.0000 0.80530  0.64840  0.75940  Biso   1.000  H
  C750     1.0000 0.82859  0.60923  0.78526  Biso   1.000  C
  H523     1.0000 0.85930  0.57880  0.81710  Biso   1.000  H
  N75      1.0000 0.81130  0.57900  0.76490  Biso   1.000  N
  O300     1.0000 0.80650  0.57600  0.76710  Biso   1.000  O
  H524     1.0000 0.81890  0.57170  0.74420  Biso   1.000  H
  H525     1.0000 0.84520  0.69830  0.87310  Biso   1.000  H
  O301     1.0000 0.37622  0.32577  0.46495  Biso   1.000  O
  O302     1.0000 0.33452  0.28584  0.46414  Biso   1.000  O
  C751     1.0000 0.36174  0.29950  0.45395  Biso   1.000  C
  C752     1.0000 0.38044  0.28151  0.42488  Biso   1.000  C
  C753     1.0000 0.36594  0.25303  0.40863  Biso   1.000  C
  H526     1.0000 0.34450  0.24420  0.41650  Biso   1.000  H
  C754     1.0000 0.38172  0.19235  0.33670  Biso   1.000  C
  C755     1.0000 0.36384  0.16197  0.31827  Biso   1.000  C
  O303     1.0000 0.40839  0.20069  0.32081  Biso   1.000  O
  C756     1.0000 0.33818  0.16950  0.29354  Biso   1.000  C
  C757     1.0000 0.37116  0.12887  0.32670  Biso   1.000  C
  H527     1.0000 0.33240  0.19280  0.28850  Biso   1.000  H
  C758     1.0000 0.32168  0.14327  0.27691  Biso   1.000  C
  C759     1.0000 0.35412  0.10194  0.31097  Biso   1.000  C
  H528     1.0000 0.38820  0.12420  0.34370  Biso   1.000  H
  H529     1.0000 0.30530  0.14840  0.25940  Biso   1.000  H
  C760     1.0000 0.32859  0.10923  0.28526  Biso   1.000  C
  H530     1.0000 0.35930  0.07880  0.31710  Biso   1.000  H
  N76      1.0000 0.31130  0.07900  0.26490  Biso   1.000  N
  O304     1.0000 0.30650  0.07600  0.26710  Biso   1.000  O
  H531     1.0000 0.31890  0.07170  0.24420  Biso   1.000  H
  H532     1.0000 0.34520  0.19830  0.37310  Biso   1.000  H
  O305     1.0000 0.12378  0.82577  0.03505  Biso   1.000  O
  O306     1.0000 0.16548  0.78584  0.03586  Biso   1.000  O
  C761     1.0000 0.13826  0.79950  0.04605  Biso   1.000  C
  C762     1.0000 0.11956  0.78151  0.07512  Biso   1.000  C
  C763     1.0000 0.13406  0.75303  0.09137  Biso   1.000  C
  H533     1.0000 0.15550  0.74420  0.08350  Biso   1.000  H
  C764     1.0000 0.11828  0.69235  0.16330  Biso   1.000  C
  C765     1.0000 0.13616  0.66197  0.18173  Biso   1.000  C
  O307     1.0000 0.09161  0.70069  0.17919  Biso   1.000  O
  C766     1.0000 0.16182  0.66950  0.20646  Biso   1.000  C
  C767     1.0000 0.12884  0.62887  0.17330  Biso   1.000  C
  H534     1.0000 0.16760  0.69280  0.21150  Biso   1.000  H
  C768     1.0000 0.17832  0.64327  0.22309  Biso   1.000  C
  C769     1.0000 0.14588  0.60194  0.18903  Biso   1.000  C
  H535     1.0000 0.11180  0.62420  0.15630  Biso   1.000  H
  H536     1.0000 0.19470  0.64840  0.24060  Biso   1.000  H
  C770     1.0000 0.17141  0.60923  0.21474  Biso   1.000  C
  H537     1.0000 0.14070  0.57880  0.18290  Biso   1.000  H
  N77      1.0000 0.18870  0.57900  0.23510  Biso   1.000  N
  O308     1.0000 0.19350  0.57600  0.23290  Biso   1.000  O
  H538     1.0000 0.18110  0.57170  0.25580  Biso   1.000  H
  H539     1.0000 0.15480  0.69830  0.12690  Biso   1.000  H
  O309     1.0000 0.62378  0.32577  0.53505  Biso   1.000  O
  O310     1.0000 0.66548  0.28584  0.53586  Biso   1.000  O
  C771     1.0000 0.63826  0.29950  0.54605  Biso   1.000  C
  C772     1.0000 0.61956  0.28151  0.57512  Biso   1.000  C
  C773     1.0000 0.63406  0.25303  0.59137  Biso   1.000  C
  H540     1.0000 0.65550  0.24420  0.58350  Biso   1.000  H
  C774     1.0000 0.61828  0.19235  0.66330  Biso   1.000  C
  C775     1.0000 0.63616  0.16197  0.68173  Biso   1.000  C
  O311     1.0000 0.59161  0.20069  0.67919  Biso   1.000  O
  C776     1.0000 0.66182  0.16950  0.70646  Biso   1.000  C
  C777     1.0000 0.62884  0.12887  0.67330  Biso   1.000  C
  H541     1.0000 0.66760  0.19280  0.71150  Biso   1.000  H
  C778     1.0000 0.67832  0.14327  0.72309  Biso   1.000  C
  C779     1.0000 0.64588  0.10194  0.68903  Biso   1.000  C
  H542     1.0000 0.61180  0.12420  0.65630  Biso   1.000  H
  H543     1.0000 0.69470  0.14840  0.74060  Biso   1.000  H
  C780     1.0000 0.67141  0.10923  0.71474  Biso   1.000  C
  H544     1.0000 0.64070  0.07880  0.68290  Biso   1.000  H
  N78      1.0000 0.68870  0.07900  0.73510  Biso   1.000  N
  O312     1.0000 0.69350  0.07600  0.73290  Biso   1.000  O
  H545     1.0000 0.68110  0.07170  0.75580  Biso   1.000  H
  H546     1.0000 0.65480  0.19830  0.62690  Biso   1.000  H
  O313     1.0000 0.87622  0.17423  0.03505  Biso   1.000  O
  O314     1.0000 0.83452  0.21416  0.03586  Biso   1.000  O
  C781     1.0000 0.86174  0.20050  0.04605  Biso   1.000  C
  C782     1.0000 0.88044  0.21849  0.07512  Biso   1.000  C
  C783     1.0000 0.86594  0.24697  0.09137  Biso   1.000  C
  H547     1.0000 0.84450  0.25580  0.08350  Biso   1.000  H
  C784     1.0000 0.88172  0.30765  0.16330  Biso   1.000  C
  C785     1.0000 0.86384  0.33803  0.18173  Biso   1.000  C
  O315     1.0000 0.90839  0.29931  0.17919  Biso   1.000  O
  C786     1.0000 0.83818  0.33050  0.20646  Biso   1.000  C
  C787     1.0000 0.87116  0.37113  0.17330  Biso   1.000  C
  H548     1.0000 0.83240  0.30720  0.21150  Biso   1.000  H
  C788     1.0000 0.82168  0.35673  0.22309  Biso   1.000  C
  C789     1.0000 0.85412  0.39806  0.18903  Biso   1.000  C
  H549     1.0000 0.88820  0.37580  0.15630  Biso   1.000  H
  H550     1.0000 0.80530  0.35160  0.24060  Biso   1.000  H
  C790     1.0000 0.82859  0.39077  0.21474  Biso   1.000  C
  H551     1.0000 0.85930  0.42120  0.18290  Biso   1.000  H
  N79      1.0000 0.81130  0.42100  0.23510  Biso   1.000  N
  O316     1.0000 0.80650  0.42400  0.23290  Biso   1.000  O
  H552     1.0000 0.81890  0.42830  0.25580  Biso   1.000  H
  H553     1.0000 0.84520  0.30170  0.12690  Biso   1.000  H
  O317     1.0000 0.37622  0.67423  0.53505  Biso   1.000  O
  O318     1.0000 0.33452  0.71416  0.53586  Biso   1.000  O
  C791     1.0000 0.36174  0.70050  0.54605  Biso   1.000  C
  C792     1.0000 0.38044  0.71849  0.57512  Biso   1.000  C
  C793     1.0000 0.36594  0.74697  0.59137  Biso   1.000  C
  H554     1.0000 0.34450  0.75580  0.58350  Biso   1.000  H
  C794     1.0000 0.38172  0.80765  0.66330  Biso   1.000  C
  C795     1.0000 0.36384  0.83803  0.68173  Biso   1.000  C
  O319     1.0000 0.40839  0.79931  0.67919  Biso   1.000  O
  C796     1.0000 0.33818  0.83050  0.70646  Biso   1.000  C
  C797     1.0000 0.37116  0.87113  0.67330  Biso   1.000  C
  H555     1.0000 0.33240  0.80720  0.71150  Biso   1.000  H
  C798     1.0000 0.32168  0.85673  0.72309  Biso   1.000  C
  C799     1.0000 0.35412  0.89806  0.68903  Biso   1.000  C
  H556     1.0000 0.38820  0.87580  0.65630  Biso   1.000  H
  H557     1.0000 0.30530  0.85160  0.74060  Biso   1.000  H
  C800     1.0000 0.32859  0.89077  0.71474  Biso   1.000  C
  H558     1.0000 0.35930  0.92120  0.68290  Biso   1.000  H
  N80      1.0000 0.31130  0.92100  0.73510  Biso   1.000  N
  O320     1.0000 0.30650  0.92400  0.73290  Biso   1.000  O
  H559     1.0000 0.31890  0.92830  0.75580  Biso   1.000  H
  H560     1.0000 0.34520  0.80170  0.62690  Biso   1.000  H
  O321     1.0000 0.17423  0.03505  0.87622  Biso   1.000  O
  O322     1.0000 0.21416  0.03586  0.83452  Biso   1.000  O
  C801     1.0000 0.20050  0.04605  0.86174  Biso   1.000  C
  C802     1.0000 0.21849  0.07512  0.88044  Biso   1.000  C
  C803     1.0000 0.24697  0.09137  0.86594  Biso   1.000  C
  H561     1.0000 0.25580  0.08350  0.84450  Biso   1.000  H
  C804     1.0000 0.30765  0.16330  0.88172  Biso   1.000  C
  C805     1.0000 0.33803  0.18173  0.86384  Biso   1.000  C
  O323     1.0000 0.29931  0.17919  0.90839  Biso   1.000  O
  C806     1.0000 0.33050  0.20646  0.83818  Biso   1.000  C
  C807     1.0000 0.37113  0.17330  0.87116  Biso   1.000  C
  H562     1.0000 0.30720  0.21150  0.83240  Biso   1.000  H
  C808     1.0000 0.35673  0.22309  0.82168  Biso   1.000  C
  C809     1.0000 0.39806  0.18903  0.85412  Biso   1.000  C
  H563     1.0000 0.37580  0.15630  0.88820  Biso   1.000  H
  H564     1.0000 0.35160  0.24060  0.80530  Biso   1.000  H
  C810     1.0000 0.39077  0.21474  0.82859  Biso   1.000  C
  H565     1.0000 0.42120  0.18290  0.85930  Biso   1.000  H
  N81      1.0000 0.42100  0.23510  0.81130  Biso   1.000  N
  O324     1.0000 0.42400  0.23290  0.80650  Biso   1.000  O
  H566     1.0000 0.42830  0.25580  0.81890  Biso   1.000  H
  H567     1.0000 0.30170  0.12690  0.84520  Biso   1.000  H
  O325     1.0000 0.67423  0.53505  0.37622  Biso   1.000  O
  O326     1.0000 0.71416  0.53586  0.33452  Biso   1.000  O
  C811     1.0000 0.70050  0.54605  0.36174  Biso   1.000  C
  C812     1.0000 0.71849  0.57512  0.38044  Biso   1.000  C
  C813     1.0000 0.74697  0.59137  0.36594  Biso   1.000  C
  H568     1.0000 0.75580  0.58350  0.34450  Biso   1.000  H
  C814     1.0000 0.80765  0.66330  0.38172  Biso   1.000  C
  C815     1.0000 0.83803  0.68173  0.36384  Biso   1.000  C
  O327     1.0000 0.79931  0.67919  0.40839  Biso   1.000  O
  C816     1.0000 0.83050  0.70646  0.33818  Biso   1.000  C
  C817     1.0000 0.87113  0.67330  0.37116  Biso   1.000  C
  H569     1.0000 0.80720  0.71150  0.33240  Biso   1.000  H
  C818     1.0000 0.85673  0.72309  0.32168  Biso   1.000  C
  C819     1.0000 0.89806  0.68903  0.35412  Biso   1.000  C
  H570     1.0000 0.87580  0.65630  0.38820  Biso   1.000  H
  H571     1.0000 0.85160  0.74060  0.30530  Biso   1.000  H
  C820     1.0000 0.89077  0.71474  0.32859  Biso   1.000  C
  H572     1.0000 0.92120  0.68290  0.35930  Biso   1.000  H
  N82      1.0000 0.92100  0.73510  0.31130  Biso   1.000  N
  O328     1.0000 0.92400  0.73290  0.30650  Biso   1.000  O
  H573     1.0000 0.92830  0.75580  0.31890  Biso   1.000  H
  H574     1.0000 0.80170  0.62690  0.34520  Biso   1.000  H
  O329     1.0000 0.82577  0.03505  0.12378  Biso   1.000  O
  O330     1.0000 0.78584  0.03586  0.16548  Biso   1.000  O
  C821     1.0000 0.79950  0.04605  0.13826  Biso   1.000  C
  C822     1.0000 0.78151  0.07512  0.11956  Biso   1.000  C
  C823     1.0000 0.75303  0.09137  0.13406  Biso   1.000  C
  H575     1.0000 0.74420  0.08350  0.15550  Biso   1.000  H
  C824     1.0000 0.69235  0.16330  0.11828  Biso   1.000  C
  C825     1.0000 0.66197  0.18173  0.13616  Biso   1.000  C
  O331     1.0000 0.70069  0.17919  0.09161  Biso   1.000  O
  C826     1.0000 0.66950  0.20646  0.16182  Biso   1.000  C
  C827     1.0000 0.62887  0.17330  0.12884  Biso   1.000  C
  H576     1.0000 0.69280  0.21150  0.16760  Biso   1.000  H
  C828     1.0000 0.64327  0.22309  0.17832  Biso   1.000  C
  C829     1.0000 0.60194  0.18903  0.14588  Biso   1.000  C
  H577     1.0000 0.62420  0.15630  0.11180  Biso   1.000  H
  H578     1.0000 0.64840  0.24060  0.19470  Biso   1.000  H
  C830     1.0000 0.60923  0.21474  0.17141  Biso   1.000  C
  H579     1.0000 0.57880  0.18290  0.14070  Biso   1.000  H
  N83      1.0000 0.57900  0.23510  0.18870  Biso   1.000  N
  O332     1.0000 0.57600  0.23290  0.19350  Biso   1.000  O
  H580     1.0000 0.57170  0.25580  0.18110  Biso   1.000  H
  H581     1.0000 0.69830  0.12690  0.15480  Biso   1.000  H
  O333     1.0000 0.32577  0.53505  0.62378  Biso   1.000  O
  O334     1.0000 0.28584  0.53586  0.66548  Biso   1.000  O
  C831     1.0000 0.29950  0.54605  0.63826  Biso   1.000  C
  C832     1.0000 0.28151  0.57512  0.61956  Biso   1.000  C
  C833     1.0000 0.25303  0.59137  0.63406  Biso   1.000  C
  H582     1.0000 0.24420  0.58350  0.65550  Biso   1.000  H
  C834     1.0000 0.19235  0.66330  0.61828  Biso   1.000  C
  C835     1.0000 0.16197  0.68173  0.63616  Biso   1.000  C
  O335     1.0000 0.20069  0.67919  0.59161  Biso   1.000  O
  C836     1.0000 0.16950  0.70646  0.66182  Biso   1.000  C
  C837     1.0000 0.12887  0.67330  0.62884  Biso   1.000  C
  H583     1.0000 0.19280  0.71150  0.66760  Biso   1.000  H
  C838     1.0000 0.14327  0.72309  0.67832  Biso   1.000  C
  C839     1.0000 0.10194  0.68903  0.64588  Biso   1.000  C
  H584     1.0000 0.12420  0.65630  0.61180  Biso   1.000  H
  H585     1.0000 0.14840  0.74060  0.69470  Biso   1.000  H
  C840     1.0000 0.10923  0.71474  0.67141  Biso   1.000  C
  H586     1.0000 0.07880  0.68290  0.64070  Biso   1.000  H
  N84      1.0000 0.07900  0.73510  0.68870  Biso   1.000  N
  O336     1.0000 0.07600  0.73290  0.69350  Biso   1.000  O
  H587     1.0000 0.07170  0.75580  0.68110  Biso   1.000  H
  H588     1.0000 0.19830  0.62690  0.65480  Biso   1.000  H
  O337     1.0000 0.82577  0.96495  0.87622  Biso   1.000  O
  O338     1.0000 0.78584  0.96414  0.83452  Biso   1.000  O
  C841     1.0000 0.79950  0.95395  0.86174  Biso   1.000  C
  C842     1.0000 0.78151  0.92488  0.88044  Biso   1.000  C
  C843     1.0000 0.75303  0.90863  0.86594  Biso   1.000  C
  H589     1.0000 0.74420  0.91650  0.84450  Biso   1.000  H
  C844     1.0000 0.69235  0.83670  0.88172  Biso   1.000  C
  C845     1.0000 0.66197  0.81827  0.86384  Biso   1.000  C
  O339     1.0000 0.70069  0.82081  0.90839  Biso   1.000  O
  C846     1.0000 0.66950  0.79354  0.83818  Biso   1.000  C
  C847     1.0000 0.62887  0.82670  0.87116  Biso   1.000  C
  H590     1.0000 0.69280  0.78850  0.83240  Biso   1.000  H
  C848     1.0000 0.64327  0.77691  0.82168  Biso   1.000  C
  C849     1.0000 0.60194  0.81097  0.85412  Biso   1.000  C
  H591     1.0000 0.62420  0.84370  0.88820  Biso   1.000  H
  H592     1.0000 0.64840  0.75940  0.80530  Biso   1.000  H
  C850     1.0000 0.60923  0.78526  0.82859  Biso   1.000  C
  H593     1.0000 0.57880  0.81710  0.85930  Biso   1.000  H
  N85      1.0000 0.57900  0.76490  0.81130  Biso   1.000  N
  O340     1.0000 0.57600  0.76710  0.80650  Biso   1.000  O
  H594     1.0000 0.57170  0.74420  0.81890  Biso   1.000  H
  H595     1.0000 0.69830  0.87310  0.84520  Biso   1.000  H
  O341     1.0000 0.32577  0.46495  0.37622  Biso   1.000  O
  O342     1.0000 0.28584  0.46414  0.33452  Biso   1.000  O
  C851     1.0000 0.29950  0.45395  0.36174  Biso   1.000  C
  C852     1.0000 0.28151  0.42488  0.38044  Biso   1.000  C
  C853     1.0000 0.25303  0.40863  0.36594  Biso   1.000  C
  H596     1.0000 0.24420  0.41650  0.34450  Biso   1.000  H
  C854     1.0000 0.19235  0.33670  0.38172  Biso   1.000  C
  C855     1.0000 0.16197  0.31827  0.36384  Biso   1.000  C
  O343     1.0000 0.20069  0.32081  0.40839  Biso   1.000  O
  C856     1.0000 0.16950  0.29354  0.33818  Biso   1.000  C
  C857     1.0000 0.12887  0.32670  0.37116  Biso   1.000  C
  H597     1.0000 0.19280  0.28850  0.33240  Biso   1.000  H
  C858     1.0000 0.14327  0.27691  0.32168  Biso   1.000  C
  C859     1.0000 0.10194  0.31097  0.35412  Biso   1.000  C
  H598     1.0000 0.12420  0.34370  0.38820  Biso   1.000  H
  H599     1.0000 0.14840  0.25940  0.30530  Biso   1.000  H
  C860     1.0000 0.10923  0.28526  0.32859  Biso   1.000  C
  H600     1.0000 0.07880  0.31710  0.35930  Biso   1.000  H
  N86      1.0000 0.07900  0.26490  0.31130  Biso   1.000  N
  O344     1.0000 0.07600  0.26710  0.30650  Biso   1.000  O
  H601     1.0000 0.07170  0.24420  0.31890  Biso   1.000  H
  H602     1.0000 0.19830  0.37310  0.34520  Biso   1.000  H
  O345     1.0000 0.17423  0.96495  0.12378  Biso   1.000  O
  O346     1.0000 0.21416  0.96414  0.16548  Biso   1.000  O
  C861     1.0000 0.20050  0.95395  0.13826  Biso   1.000  C
  C862     1.0000 0.21849  0.92488  0.11956  Biso   1.000  C
  C863     1.0000 0.24697  0.90863  0.13406  Biso   1.000  C
  H603     1.0000 0.25580  0.91650  0.15550  Biso   1.000  H
  C864     1.0000 0.30765  0.83670  0.11828  Biso   1.000  C
  C865     1.0000 0.33803  0.81827  0.13616  Biso   1.000  C
  O347     1.0000 0.29931  0.82081  0.09161  Biso   1.000  O
  C866     1.0000 0.33050  0.79354  0.16182  Biso   1.000  C
  C867     1.0000 0.37113  0.82670  0.12884  Biso   1.000  C
  H604     1.0000 0.30720  0.78850  0.16760  Biso   1.000  H
  C868     1.0000 0.35673  0.77691  0.17832  Biso   1.000  C
  C869     1.0000 0.39806  0.81097  0.14588  Biso   1.000  C
  H605     1.0000 0.37580  0.84370  0.11180  Biso   1.000  H
  H606     1.0000 0.35160  0.75940  0.19470  Biso   1.000  H
  C870     1.0000 0.39077  0.78526  0.17141  Biso   1.000  C
  H607     1.0000 0.42120  0.81710  0.14070  Biso   1.000  H
  N87      1.0000 0.42100  0.76490  0.18870  Biso   1.000  N
  O348     1.0000 0.42400  0.76710  0.19350  Biso   1.000  O
  H608     1.0000 0.42830  0.74420  0.18110  Biso   1.000  H
  H609     1.0000 0.30170  0.87310  0.15480  Biso   1.000  H
  O349     1.0000 0.67423  0.46495  0.62378  Biso   1.000  O
  O350     1.0000 0.71416  0.46414  0.66548  Biso   1.000  O
  C871     1.0000 0.70050  0.45395  0.63826  Biso   1.000  C
  C872     1.0000 0.71849  0.42488  0.61956  Biso   1.000  C
  C873     1.0000 0.74697  0.40863  0.63406  Biso   1.000  C
  H610     1.0000 0.75580  0.41650  0.65550  Biso   1.000  H
  C874     1.0000 0.80765  0.33670  0.61828  Biso   1.000  C
  C875     1.0000 0.83803  0.31827  0.63616  Biso   1.000  C
  O351     1.0000 0.79931  0.32081  0.59161  Biso   1.000  O
  C876     1.0000 0.83050  0.29354  0.66182  Biso   1.000  C
  C877     1.0000 0.87113  0.32670  0.62884  Biso   1.000  C
  H611     1.0000 0.80720  0.28850  0.66760  Biso   1.000  H
  C878     1.0000 0.85673  0.27691  0.67832  Biso   1.000  C
  C879     1.0000 0.89806  0.31097  0.64588  Biso   1.000  C
  H612     1.0000 0.87580  0.34370  0.61180  Biso   1.000  H
  H613     1.0000 0.85160  0.25940  0.69470  Biso   1.000  H
  C880     1.0000 0.89077  0.28526  0.67141  Biso   1.000  C
  H614     1.0000 0.92120  0.31710  0.64070  Biso   1.000  H
  N88      1.0000 0.92100  0.26490  0.68870  Biso   1.000  N
  O352     1.0000 0.92400  0.26710  0.69350  Biso   1.000  O
  H615     1.0000 0.92830  0.24420  0.68110  Biso   1.000  H
  H616     1.0000 0.80170  0.37310  0.65480  Biso   1.000  H
  O353     1.0000 0.03505  0.12378  0.82577  Biso   1.000  O
  O354     1.0000 0.03586  0.16548  0.78584  Biso   1.000  O
  C881     1.0000 0.04605  0.13826  0.79950  Biso   1.000  C
  C882     1.0000 0.07512  0.11956  0.78151  Biso   1.000  C
  C883     1.0000 0.09137  0.13406  0.75303  Biso   1.000  C
  H617     1.0000 0.08350  0.15550  0.74420  Biso   1.000  H
  C884     1.0000 0.16330  0.11828  0.69235  Biso   1.000  C
  C885     1.0000 0.18173  0.13616  0.66197  Biso   1.000  C
  O355     1.0000 0.17919  0.09161  0.70069  Biso   1.000  O
  C886     1.0000 0.20646  0.16182  0.66950  Biso   1.000  C
  C887     1.0000 0.17330  0.12884  0.62887  Biso   1.000  C
  H618     1.0000 0.21150  0.16760  0.69280  Biso   1.000  H
  C888     1.0000 0.22309  0.17832  0.64327  Biso   1.000  C
  C889     1.0000 0.18903  0.14588  0.60194  Biso   1.000  C
  H619     1.0000 0.15630  0.11180  0.62420  Biso   1.000  H
  H620     1.0000 0.24060  0.19470  0.64840  Biso   1.000  H
  C890     1.0000 0.21474  0.17141  0.60923  Biso   1.000  C
  H621     1.0000 0.18290  0.14070  0.57880  Biso   1.000  H
  N89      1.0000 0.23510  0.18870  0.57900  Biso   1.000  N
  O356     1.0000 0.23290  0.19350  0.57600  Biso   1.000  O
  H622     1.0000 0.25580  0.18110  0.57170  Biso   1.000  H
  H623     1.0000 0.12690  0.15480  0.69830  Biso   1.000  H
  O357     1.0000 0.53505  0.62378  0.32577  Biso   1.000  O
  O358     1.0000 0.53586  0.66548  0.28584  Biso   1.000  O
  C891     1.0000 0.54605  0.63826  0.29950  Biso   1.000  C
  C892     1.0000 0.57512  0.61956  0.28151  Biso   1.000  C
  C893     1.0000 0.59137  0.63406  0.25303  Biso   1.000  C
  H624     1.0000 0.58350  0.65550  0.24420  Biso   1.000  H
  C894     1.0000 0.66330  0.61828  0.19235  Biso   1.000  C
  C895     1.0000 0.68173  0.63616  0.16197  Biso   1.000  C
  O359     1.0000 0.67919  0.59161  0.20069  Biso   1.000  O
  C896     1.0000 0.70646  0.66182  0.16950  Biso   1.000  C
  C897     1.0000 0.67330  0.62884  0.12887  Biso   1.000  C
  H625     1.0000 0.71150  0.66760  0.19280  Biso   1.000  H
  C898     1.0000 0.72309  0.67832  0.14327  Biso   1.000  C
  C899     1.0000 0.68903  0.64588  0.10194  Biso   1.000  C
  H626     1.0000 0.65630  0.61180  0.12420  Biso   1.000  H
  H627     1.0000 0.74060  0.69470  0.14840  Biso   1.000  H
  C900     1.0000 0.71474  0.67141  0.10923  Biso   1.000  C
  H628     1.0000 0.68290  0.64070  0.07880  Biso   1.000  H
  N90      1.0000 0.73510  0.68870  0.07900  Biso   1.000  N
  O360     1.0000 0.73290  0.69350  0.07600  Biso   1.000  O
  H629     1.0000 0.75580  0.68110  0.07170  Biso   1.000  H
  H630     1.0000 0.62690  0.65480  0.19830  Biso   1.000  H
  O361     1.0000 0.03505  0.87622  0.17423  Biso   1.000  O
  O362     1.0000 0.03586  0.83452  0.21416  Biso   1.000  O
  C901     1.0000 0.04605  0.86174  0.20050  Biso   1.000  C
  C902     1.0000 0.07512  0.88044  0.21849  Biso   1.000  C
  C903     1.0000 0.09137  0.86594  0.24697  Biso   1.000  C
  H631     1.0000 0.08350  0.84450  0.25580  Biso   1.000  H
  C904     1.0000 0.16330  0.88172  0.30765  Biso   1.000  C
  C905     1.0000 0.18173  0.86384  0.33803  Biso   1.000  C
  O363     1.0000 0.17919  0.90839  0.29931  Biso   1.000  O
  C906     1.0000 0.20646  0.83818  0.33050  Biso   1.000  C
  C907     1.0000 0.17330  0.87116  0.37113  Biso   1.000  C
  H632     1.0000 0.21150  0.83240  0.30720  Biso   1.000  H
  C908     1.0000 0.22309  0.82168  0.35673  Biso   1.000  C
  C909     1.0000 0.18903  0.85412  0.39806  Biso   1.000  C
  H633     1.0000 0.15630  0.88820  0.37580  Biso   1.000  H
  H634     1.0000 0.24060  0.80530  0.35160  Biso   1.000  H
  C910     1.0000 0.21474  0.82859  0.39077  Biso   1.000  C
  H635     1.0000 0.18290  0.85930  0.42120  Biso   1.000  H
  N91      1.0000 0.23510  0.81130  0.42100  Biso   1.000  N
  O364     1.0000 0.23290  0.80650  0.42400  Biso   1.000  O
  H636     1.0000 0.25580  0.81890  0.42830  Biso   1.000  H
  H637     1.0000 0.12690  0.84520  0.30170  Biso   1.000  H
  O365     1.0000 0.53505  0.37622  0.67423  Biso   1.000  O
  O366     1.0000 0.53586  0.33452  0.71416  Biso   1.000  O
  C911     1.0000 0.54605  0.36174  0.70050  Biso   1.000  C
  C912     1.0000 0.57512  0.38044  0.71849  Biso   1.000  C
  C913     1.0000 0.59137  0.36594  0.74697  Biso   1.000  C
  H638     1.0000 0.58350  0.34450  0.75580  Biso   1.000  H
  C914     1.0000 0.66330  0.38172  0.80765  Biso   1.000  C
  C915     1.0000 0.68173  0.36384  0.83803  Biso   1.000  C
  O367     1.0000 0.67919  0.40839  0.79931  Biso   1.000  O
  C916     1.0000 0.70646  0.33818  0.83050  Biso   1.000  C
  C917     1.0000 0.67330  0.37116  0.87113  Biso   1.000  C
  H639     1.0000 0.71150  0.33240  0.80720  Biso   1.000  H
  C918     1.0000 0.72309  0.32168  0.85673  Biso   1.000  C
  C919     1.0000 0.68903  0.35412  0.89806  Biso   1.000  C
  H640     1.0000 0.65630  0.38820  0.87580  Biso   1.000  H
  H641     1.0000 0.74060  0.30530  0.85160  Biso   1.000  H
  C920     1.0000 0.71474  0.32859  0.89077  Biso   1.000  C
  H642     1.0000 0.68290  0.35930  0.92120  Biso   1.000  H
  N92      1.0000 0.73510  0.31130  0.92100  Biso   1.000  N
  O368     1.0000 0.73290  0.30650  0.92400  Biso   1.000  O
  H643     1.0000 0.75580  0.31890  0.92830  Biso   1.000  H
  H644     1.0000 0.62690  0.34520  0.80170  Biso   1.000  H
  O369     1.0000 0.96495  0.12378  0.17423  Biso   1.000  O
  O370     1.0000 0.96414  0.16548  0.21416  Biso   1.000  O
  C921     1.0000 0.95395  0.13826  0.20050  Biso   1.000  C
  C922     1.0000 0.92488  0.11956  0.21849  Biso   1.000  C
  C923     1.0000 0.90863  0.13406  0.24697  Biso   1.000  C
  H645     1.0000 0.91650  0.15550  0.25580  Biso   1.000  H
  C924     1.0000 0.83670  0.11828  0.30765  Biso   1.000  C
  C925     1.0000 0.81827  0.13616  0.33803  Biso   1.000  C
  O371     1.0000 0.82081  0.09161  0.29931  Biso   1.000  O
  C926     1.0000 0.79354  0.16182  0.33050  Biso   1.000  C
  C927     1.0000 0.82670  0.12884  0.37113  Biso   1.000  C
  H646     1.0000 0.78850  0.16760  0.30720  Biso   1.000  H
  C928     1.0000 0.77691  0.17832  0.35673  Biso   1.000  C
  C929     1.0000 0.81097  0.14588  0.39806  Biso   1.000  C
  H647     1.0000 0.84370  0.11180  0.37580  Biso   1.000  H
  H648     1.0000 0.75940  0.19470  0.35160  Biso   1.000  H
  C930     1.0000 0.78526  0.17141  0.39077  Biso   1.000  C
  H649     1.0000 0.81710  0.14070  0.42120  Biso   1.000  H
  N93      1.0000 0.76490  0.18870  0.42100  Biso   1.000  N
  O372     1.0000 0.76710  0.19350  0.42400  Biso   1.000  O
  H650     1.0000 0.74420  0.18110  0.42830  Biso   1.000  H
  H651     1.0000 0.87310  0.15480  0.30170  Biso   1.000  H
  O373     1.0000 0.46495  0.62378  0.67423  Biso   1.000  O
  O374     1.0000 0.46414  0.66548  0.71416  Biso   1.000  O
  C931     1.0000 0.45395  0.63826  0.70050  Biso   1.000  C
  C932     1.0000 0.42488  0.61956  0.71849  Biso   1.000  C
  C933     1.0000 0.40863  0.63406  0.74697  Biso   1.000  C
  H652     1.0000 0.41650  0.65550  0.75580  Biso   1.000  H
  C934     1.0000 0.33670  0.61828  0.80765  Biso   1.000  C
  C935     1.0000 0.31827  0.63616  0.83803  Biso   1.000  C
  O375     1.0000 0.32081  0.59161  0.79931  Biso   1.000  O
  C936     1.0000 0.29354  0.66182  0.83050  Biso   1.000  C
  C937     1.0000 0.32670  0.62884  0.87113  Biso   1.000  C
  H653     1.0000 0.28850  0.66760  0.80720  Biso   1.000  H
  C938     1.0000 0.27691  0.67832  0.85673  Biso   1.000  C
  C939     1.0000 0.31097  0.64588  0.89806  Biso   1.000  C
  H654     1.0000 0.34370  0.61180  0.87580  Biso   1.000  H
  H655     1.0000 0.25940  0.69470  0.85160  Biso   1.000  H
  C940     1.0000 0.28526  0.67141  0.89077  Biso   1.000  C
  H656     1.0000 0.31710  0.64070  0.92120  Biso   1.000  H
  N94      1.0000 0.26490  0.68870  0.92100  Biso   1.000  N
  O376     1.0000 0.26710  0.69350  0.92400  Biso   1.000  O
  H657     1.0000 0.24420  0.68110  0.92830  Biso   1.000  H
  H658     1.0000 0.37310  0.65480  0.80170  Biso   1.000  H
  O377     1.0000 0.96495  0.87622  0.82577  Biso   1.000  O
  O378     1.0000 0.96414  0.83452  0.78584  Biso   1.000  O
  C941     1.0000 0.95395  0.86174  0.79950  Biso   1.000  C
  C942     1.0000 0.92488  0.88044  0.78151  Biso   1.000  C
  C943     1.0000 0.90863  0.86594  0.75303  Biso   1.000  C
  H659     1.0000 0.91650  0.84450  0.74420  Biso   1.000  H
  C944     1.0000 0.83670  0.88172  0.69235  Biso   1.000  C
  C945     1.0000 0.81827  0.86384  0.66197  Biso   1.000  C
  O379     1.0000 0.82081  0.90839  0.70069  Biso   1.000  O
  C946     1.0000 0.79354  0.83818  0.66950  Biso   1.000  C
  C947     1.0000 0.82670  0.87116  0.62887  Biso   1.000  C
  H660     1.0000 0.78850  0.83240  0.69280  Biso   1.000  H
  C948     1.0000 0.77691  0.82168  0.64327  Biso   1.000  C
  C949     1.0000 0.81097  0.85412  0.60194  Biso   1.000  C
  H661     1.0000 0.84370  0.88820  0.62420  Biso   1.000  H
  H662     1.0000 0.75940  0.80530  0.64840  Biso   1.000  H
  C950     1.0000 0.78526  0.82859  0.60923  Biso   1.000  C
  H663     1.0000 0.81710  0.85930  0.57880  Biso   1.000  H
  N95      1.0000 0.76490  0.81130  0.57900  Biso   1.000  N
  O380     1.0000 0.76710  0.80650  0.57600  Biso   1.000  O
  H664     1.0000 0.74420  0.81890  0.57170  Biso   1.000  H
  H665     1.0000 0.87310  0.84520  0.69830  Biso   1.000  H
  O381     1.0000 0.46495  0.37622  0.32577  Biso   1.000  O
  O382     1.0000 0.46414  0.33452  0.28584  Biso   1.000  O
  C951     1.0000 0.45395  0.36174  0.29950  Biso   1.000  C
  C952     1.0000 0.42488  0.38044  0.28151  Biso   1.000  C
  C953     1.0000 0.40863  0.36594  0.25303  Biso   1.000  C
  H666     1.0000 0.41650  0.34450  0.24420  Biso   1.000  H
  C954     1.0000 0.33670  0.38172  0.19235  Biso   1.000  C
  C955     1.0000 0.31827  0.36384  0.16197  Biso   1.000  C
  O383     1.0000 0.32081  0.40839  0.20069  Biso   1.000  O
  C956     1.0000 0.29354  0.33818  0.16950  Biso   1.000  C
  C957     1.0000 0.32670  0.37116  0.12887  Biso   1.000  C
  H667     1.0000 0.28850  0.33240  0.19280  Biso   1.000  H
  C958     1.0000 0.27691  0.32168  0.14327  Biso   1.000  C
  C959     1.0000 0.31097  0.35412  0.10194  Biso   1.000  C
  H668     1.0000 0.34370  0.38820  0.12420  Biso   1.000  H
  H669     1.0000 0.25940  0.30530  0.14840  Biso   1.000  H
  C960     1.0000 0.28526  0.32859  0.10923  Biso   1.000  C
  H670     1.0000 0.31710  0.35930  0.07880  Biso   1.000  H
  N96      1.0000 0.26490  0.31130  0.07900  Biso   1.000  N
  O384     1.0000 0.26710  0.30650  0.07600  Biso   1.000  O
  H671     1.0000 0.24420  0.31890  0.07170  Biso   1.000  H
  H672     1.0000 0.37310  0.34520  0.19830  Biso   1.000  H
  Cu1      1.0000 0.85478  0.85478  0.00000  Biso   1.000  Cu
  Cu2      1.0000 0.80660  0.80660  0.00000  Biso   1.000  Cu
  Cu3      1.0000 0.35478  0.35478  0.50000  Biso   1.000  Cu
  Cu4      1.0000 0.30660  0.30660  0.50000  Biso   1.000  Cu
  Cu5      1.0000 0.14522  0.14522  0.00000  Biso   1.000  Cu
  Cu6      1.0000 0.19340  0.19340  0.00000  Biso   1.000  Cu
  Cu7      1.0000 0.64522  0.64522  0.50000  Biso   1.000  Cu
  Cu8      1.0000 0.69340  0.69340  0.50000  Biso   1.000  Cu
  Cu9      1.0000 0.14522  0.85478  0.00000  Biso   1.000  Cu
  Cu10     1.0000 0.19340  0.80660  0.00000  Biso   1.000  Cu
  Cu11     1.0000 0.64522  0.35478  0.50000  Biso   1.000  Cu
  Cu12     1.0000 0.69340  0.30660  0.50000  Biso   1.000  Cu
  Cu13     1.0000 0.85478  0.14522  0.00000  Biso   1.000  Cu
  Cu14     1.0000 0.80660  0.19340  0.00000  Biso   1.000  Cu
  Cu15     1.0000 0.35478  0.64522  0.50000  Biso   1.000  Cu
  Cu16     1.0000 0.30660  0.69340  0.50000  Biso   1.000  Cu
  Cu17     1.0000 0.00000  0.85478  0.85478  Biso   1.000  Cu
  Cu18     1.0000 0.00000  0.80660  0.80660  Biso   1.000  Cu
  Cu19     1.0000 0.50000  0.35478  0.35478  Biso   1.000  Cu
  Cu20     1.0000 0.50000  0.30660  0.30660  Biso   1.000  Cu
  Cu21     1.0000 0.00000  0.14522  0.14522  Biso   1.000  Cu
  Cu22     1.0000 0.00000  0.19340  0.19340  Biso   1.000  Cu
  Cu23     1.0000 0.50000  0.64522  0.64522  Biso   1.000  Cu
  Cu24     1.0000 0.50000  0.69340  0.69340  Biso   1.000  Cu
  Cu25     1.0000 0.00000  0.14522  0.85478  Biso   1.000  Cu
  Cu26     1.0000 0.00000  0.19340  0.80660  Biso   1.000  Cu
  Cu27     1.0000 0.50000  0.64522  0.35478  Biso   1.000  Cu
  Cu28     1.0000 0.50000  0.69340  0.30660  Biso   1.000  Cu
  Cu29     1.0000 0.00000  0.85478  0.14522  Biso   1.000  Cu
  Cu30     1.0000 0.00000  0.80660  0.19340  Biso   1.000  Cu
  Cu31     1.0000 0.50000  0.35478  0.64522  Biso   1.000  Cu
  Cu32     1.0000 0.50000  0.30660  0.69340  Biso   1.000  Cu
  Cu33     1.0000 0.85478  0.00000  0.85478  Biso   1.000  Cu
  Cu34     1.0000 0.80660  0.00000  0.80660  Biso   1.000  Cu
  Cu35     1.0000 0.35478  0.50000  0.35478  Biso   1.000  Cu
  Cu36     1.0000 0.30660  0.50000  0.30660  Biso   1.000  Cu
  Cu37     1.0000 0.14522  0.00000  0.14522  Biso   1.000  Cu
  Cu38     1.0000 0.19340  0.00000  0.19340  Biso   1.000  Cu
  Cu39     1.0000 0.64522  0.50000  0.64522  Biso   1.000  Cu
  Cu40     1.0000 0.69340  0.50000  0.69340  Biso   1.000  Cu
  Cu41     1.0000 0.85478  0.00000  0.14522  Biso   1.000  Cu
  Cu42     1.0000 0.80660  0.00000  0.19340  Biso   1.000  Cu
  Cu43     1.0000 0.35478  0.50000  0.64522  Biso   1.000  Cu
  Cu44     1.0000 0.30660  0.50000  0.69340  Biso   1.000  Cu
  Cu45     1.0000 0.14522  0.00000  0.85478  Biso   1.000  Cu
  Cu46     1.0000 0.19340  0.00000  0.80660  Biso   1.000  Cu
  Cu47     1.0000 0.64522  0.50000  0.35478  Biso   1.000  Cu
  Cu48     1.0000 0.69340  0.50000  0.30660  Biso   1.000  Cu
  N97      1.0000 0.50000  0.73204  0.73204  Biso   1.000  N
  C961     1.0000 0.50000  0.78250  0.78250  Biso   1.000  C
  H673     1.0000 0.50000  0.79980  0.79980  Biso   1.000  H
  N98      1.0000 0.00000  0.23204  0.23204  Biso   1.000  N
  C962     1.0000 0.00000  0.28250  0.28250  Biso   1.000  C
  H674     1.0000 0.00000  0.29980  0.29980  Biso   1.000  H
  N99      1.0000 0.50000  0.26796  0.73204  Biso   1.000  N
  C963     1.0000 0.50000  0.21750  0.78250  Biso   1.000  C
  H675     1.0000 0.50000  0.20020  0.79980  Biso   1.000  H
  N100     1.0000 0.00000  0.76796  0.23204  Biso   1.000  N
  C964     1.0000 0.00000  0.71750  0.28250  Biso   1.000  C
  H676     1.0000 0.00000  0.70020  0.29980  Biso   1.000  H
  N101     1.0000 0.50000  0.73204  0.26796  Biso   1.000  N
  C965     1.0000 0.50000  0.78250  0.21750  Biso   1.000  C
  H677     1.0000 0.50000  0.79980  0.20020  Biso   1.000  H
  N102     1.0000 0.00000  0.23204  0.76796  Biso   1.000  N
  C966     1.0000 0.00000  0.28250  0.71750  Biso   1.000  C
  H678     1.0000 0.00000  0.29980  0.70020  Biso   1.000  H
  N103     1.0000 0.50000  0.26796  0.26796  Biso   1.000  N
  C967     1.0000 0.50000  0.21750  0.21750  Biso   1.000  C
  H679     1.0000 0.50000  0.20020  0.20020  Biso   1.000  H
  N104     1.0000 0.00000  0.76796  0.76796  Biso   1.000  N
  C968     1.0000 0.00000  0.71750  0.71750  Biso   1.000  C
  H680     1.0000 0.00000  0.70020  0.70020  Biso   1.000  H
  N105     1.0000 0.73204  0.50000  0.73204  Biso   1.000  N
  C969     1.0000 0.78250  0.50000  0.78250  Biso   1.000  C
  H681     1.0000 0.79980  0.50000  0.79980  Biso   1.000  H
  N106     1.0000 0.23204  0.00000  0.23204  Biso   1.000  N
  C970     1.0000 0.28250  0.00000  0.28250  Biso   1.000  C
  H682     1.0000 0.29980  0.00000  0.29980  Biso   1.000  H
  N107     1.0000 0.73204  0.50000  0.26796  Biso   1.000  N
  C971     1.0000 0.78250  0.50000  0.21750  Biso   1.000  C
  H683     1.0000 0.79980  0.50000  0.20020  Biso   1.000  H
  N108     1.0000 0.23204  0.00000  0.76796  Biso   1.000  N
  C972     1.0000 0.28250  0.00000  0.71750  Biso   1.000  C
  H684     1.0000 0.29980  0.00000  0.70020  Biso   1.000  H
  N109     1.0000 0.26796  0.50000  0.73204  Biso   1.000  N
  C973     1.0000 0.21750  0.50000  0.78250  Biso   1.000  C
  H685     1.0000 0.20020  0.50000  0.79980  Biso   1.000  H
  N110     1.0000 0.76796  0.00000  0.23204  Biso   1.000  N
  C974     1.0000 0.71750  0.00000  0.28250  Biso   1.000  C
  H686     1.0000 0.70020  0.00000  0.29980  Biso   1.000  H
  N111     1.0000 0.26796  0.50000  0.26796  Biso   1.000  N
  C975     1.0000 0.21750  0.50000  0.21750  Biso   1.000  C
  H687     1.0000 0.20020  0.50000  0.20020  Biso   1.000  H
  N112     1.0000 0.76796  0.00000  0.76796  Biso   1.000  N
  C976     1.0000 0.71750  0.00000  0.71750  Biso   1.000  C
  H688     1.0000 0.70020  0.00000  0.70020  Biso   1.000  H
  N113     1.0000 0.73204  0.73204  0.50000  Biso   1.000  N
  C977     1.0000 0.78250  0.78250  0.50000  Biso   1.000  C
  H689     1.0000 0.79980  0.79980  0.50000  Biso   1.000  H
  N114     1.0000 0.23204  0.23204  0.00000  Biso   1.000  N
  C978     1.0000 0.28250  0.28250  0.00000  Biso   1.000  C
  H690     1.0000 0.29980  0.29980  0.00000  Biso   1.000  H
  N115     1.0000 0.26796  0.73204  0.50000  Biso   1.000  N
  C979     1.0000 0.21750  0.78250  0.50000  Biso   1.000  C
  H691     1.0000 0.20020  0.79980  0.50000  Biso   1.000  H
  N116     1.0000 0.76796  0.23204  0.00000  Biso   1.000  N
  C980     1.0000 0.71750  0.28250  0.00000  Biso   1.000  C
  H692     1.0000 0.70020  0.29980  0.00000  Biso   1.000  H
  N117     1.0000 0.73204  0.26796  0.50000  Biso   1.000  N
  C981     1.0000 0.78250  0.21750  0.50000  Biso   1.000  C
  H693     1.0000 0.79980  0.20020  0.50000  Biso   1.000  H
  N118     1.0000 0.23204  0.76796  0.00000  Biso   1.000  N
  C982     1.0000 0.28250  0.71750  0.00000  Biso   1.000  C
  H694     1.0000 0.29980  0.70020  0.00000  Biso   1.000  H
  N119     1.0000 0.26796  0.26796  0.50000  Biso   1.000  N
  C983     1.0000 0.21750  0.21750  0.50000  Biso   1.000  C
  H695     1.0000 0.20020  0.20020  0.50000  Biso   1.000  H
  N120     1.0000 0.76796  0.76796  0.00000  Biso   1.000  N
  C984     1.0000 0.71750  0.71750  0.00000  Biso   1.000  C
  H696     1.0000 0.70020  0.70020  0.00000  Biso   1.000  H
  C985     1.0000 0.79426  0.91261  0.91261  Biso   1.000  C
  H697     1.0000 0.81070  0.92550  0.92550  Biso   1.000  H
  C986     1.0000 0.73796  0.88196  0.88196  Biso   1.000  C
  N121     1.0000 0.70696  0.86518  0.86518  Biso   1.000  N
  C987     1.0000 0.56453  0.78245  0.78245  Biso   1.000  C
  C988     1.0000 0.53007  0.76918  0.76918  Biso   1.000  C
  C989     1.0000 0.52968  0.74411  0.74411  Biso   1.000  C
  H698     1.0000 0.55080  0.73530  0.73530  Biso   1.000  H
  C990     1.0000 0.29426  0.41261  0.41261  Biso   1.000  C
  H699     1.0000 0.31070  0.42550  0.42550  Biso   1.000  H
  C991     1.0000 0.23796  0.38196  0.38196  Biso   1.000  C
  N122     1.0000 0.20696  0.36518  0.36518  Biso   1.000  N
  C992     1.0000 0.06453  0.28245  0.28245  Biso   1.000  C
  C993     1.0000 0.03007  0.26918  0.26918  Biso   1.000  C
  C994     1.0000 0.02968  0.24411  0.24411  Biso   1.000  C
  H700     1.0000 0.05080  0.23530  0.23530  Biso   1.000  H
  C995     1.0000 0.20574  0.08739  0.91261  Biso   1.000  C
  H701     1.0000 0.18930  0.07450  0.92550  Biso   1.000  H
  C996     1.0000 0.26204  0.11804  0.88196  Biso   1.000  C
  N123     1.0000 0.29304  0.13482  0.86518  Biso   1.000  N
  C997     1.0000 0.43547  0.21755  0.78245  Biso   1.000  C
  C998     1.0000 0.46993  0.23082  0.76918  Biso   1.000  C
  C999     1.0000 0.47032  0.25589  0.74411  Biso   1.000  C
  H702     1.0000 0.44920  0.26470  0.73530  Biso   1.000  H
  C1000    1.0000 0.70574  0.58739  0.41261  Biso   1.000  C
  H703     1.0000 0.68930  0.57450  0.42550  Biso   1.000  H
  C1001    1.0000 0.76204  0.61804  0.38196  Biso   1.000  C
  N124     1.0000 0.79304  0.63482  0.36518  Biso   1.000  N
  C1002    1.0000 0.93547  0.71755  0.28245  Biso   1.000  C
  C1003    1.0000 0.96993  0.73082  0.26918  Biso   1.000  C
  C1004    1.0000 0.97032  0.75589  0.24411  Biso   1.000  C
  H704     1.0000 0.94920  0.76470  0.23530  Biso   1.000  H
  C1005    1.0000 0.20574  0.91261  0.08739  Biso   1.000  C
  H705     1.0000 0.18930  0.92550  0.07450  Biso   1.000  H
  C1006    1.0000 0.26204  0.88196  0.11804  Biso   1.000  C
  N125     1.0000 0.29304  0.86518  0.13482  Biso   1.000  N
  C1007    1.0000 0.43547  0.78245  0.21755  Biso   1.000  C
  C1008    1.0000 0.46993  0.76918  0.23082  Biso   1.000  C
  C1009    1.0000 0.47032  0.74411  0.25589  Biso   1.000  C
  H706     1.0000 0.44920  0.73530  0.26470  Biso   1.000  H
  C1010    1.0000 0.70574  0.41261  0.58739  Biso   1.000  C
  H707     1.0000 0.68930  0.42550  0.57450  Biso   1.000  H
  C1011    1.0000 0.76204  0.38196  0.61804  Biso   1.000  C
  N126     1.0000 0.79304  0.36518  0.63482  Biso   1.000  N
  C1012    1.0000 0.93547  0.28245  0.71755  Biso   1.000  C
  C1013    1.0000 0.96993  0.26918  0.73082  Biso   1.000  C
  C1014    1.0000 0.97032  0.24411  0.75589  Biso   1.000  C
  H708     1.0000 0.94920  0.23530  0.76470  Biso   1.000  H
  C1015    1.0000 0.79426  0.08739  0.08739  Biso   1.000  C
  H709     1.0000 0.81070  0.07450  0.07450  Biso   1.000  H
  C1016    1.0000 0.73796  0.11804  0.11804  Biso   1.000  C
  N127     1.0000 0.70696  0.13482  0.13482  Biso   1.000  N
  C1017    1.0000 0.56453  0.21755  0.21755  Biso   1.000  C
  C1018    1.0000 0.53007  0.23082  0.23082  Biso   1.000  C
  C1019    1.0000 0.52968  0.25589  0.25589  Biso   1.000  C
  H710     1.0000 0.55080  0.26470  0.26470  Biso   1.000  H
  C1020    1.0000 0.29426  0.58739  0.58739  Biso   1.000  C
  H711     1.0000 0.31070  0.57450  0.57450  Biso   1.000  H
  C1021    1.0000 0.23796  0.61804  0.61804  Biso   1.000  C
  N128     1.0000 0.20696  0.63482  0.63482  Biso   1.000  N
  C1022    1.0000 0.06453  0.71755  0.71755  Biso   1.000  C
  C1023    1.0000 0.03007  0.73082  0.73082  Biso   1.000  C
  C1024    1.0000 0.02968  0.75589  0.75589  Biso   1.000  C
  H712     1.0000 0.05080  0.76470  0.76470  Biso   1.000  H
  C1025    1.0000 0.91261  0.79426  0.91261  Biso   1.000  C
  H713     1.0000 0.92550  0.81070  0.92550  Biso   1.000  H
  C1026    1.0000 0.88196  0.73796  0.88196  Biso   1.000  C
  N129     1.0000 0.86518  0.70696  0.86518  Biso   1.000  N
  C1027    1.0000 0.78245  0.56453  0.78245  Biso   1.000  C
  C1028    1.0000 0.76918  0.53007  0.76918  Biso   1.000  C
  C1029    1.0000 0.74411  0.52968  0.74411  Biso   1.000  C
  H714     1.0000 0.73530  0.55080  0.73530  Biso   1.000  H
  C1030    1.0000 0.41261  0.29426  0.41261  Biso   1.000  C
  H715     1.0000 0.42550  0.31070  0.42550  Biso   1.000  H
  C1031    1.0000 0.38196  0.23796  0.38196  Biso   1.000  C
  N130     1.0000 0.36518  0.20696  0.36518  Biso   1.000  N
  C1032    1.0000 0.28245  0.06453  0.28245  Biso   1.000  C
  C1033    1.0000 0.26918  0.03007  0.26918  Biso   1.000  C
  C1034    1.0000 0.24411  0.02968  0.24411  Biso   1.000  C
  H716     1.0000 0.23530  0.05080  0.23530  Biso   1.000  H
  C1035    1.0000 0.91261  0.20574  0.08739  Biso   1.000  C
  H717     1.0000 0.92550  0.18930  0.07450  Biso   1.000  H
  C1036    1.0000 0.88196  0.26204  0.11804  Biso   1.000  C
  N131     1.0000 0.86518  0.29304  0.13482  Biso   1.000  N
  C1037    1.0000 0.78245  0.43547  0.21755  Biso   1.000  C
  C1038    1.0000 0.76918  0.46993  0.23082  Biso   1.000  C
  C1039    1.0000 0.74411  0.47032  0.25589  Biso   1.000  C
  H718     1.0000 0.73530  0.44920  0.26470  Biso   1.000  H
  C1040    1.0000 0.41261  0.70574  0.58739  Biso   1.000  C
  H719     1.0000 0.42550  0.68930  0.57450  Biso   1.000  H
  C1041    1.0000 0.38196  0.76204  0.61804  Biso   1.000  C
  N132     1.0000 0.36518  0.79304  0.63482  Biso   1.000  N
  C1042    1.0000 0.28245  0.93547  0.71755  Biso   1.000  C
  C1043    1.0000 0.26918  0.96993  0.73082  Biso   1.000  C
  C1044    1.0000 0.24411  0.97032  0.75589  Biso   1.000  C
  H720     1.0000 0.23530  0.94920  0.76470  Biso   1.000  H
  C1045    1.0000 0.08739  0.20574  0.91261  Biso   1.000  C
  H721     1.0000 0.07450  0.18930  0.92550  Biso   1.000  H
  C1046    1.0000 0.11804  0.26204  0.88196  Biso   1.000  C
  N133     1.0000 0.13482  0.29304  0.86518  Biso   1.000  N
  C1047    1.0000 0.21755  0.43547  0.78245  Biso   1.000  C
  C1048    1.0000 0.23082  0.46993  0.76918  Biso   1.000  C
  C1049    1.0000 0.25589  0.47032  0.74411  Biso   1.000  C
  H722     1.0000 0.26470  0.44920  0.73530  Biso   1.000  H
  C1050    1.0000 0.58739  0.70574  0.41261  Biso   1.000  C
  H723     1.0000 0.57450  0.68930  0.42550  Biso   1.000  H
  C1051    1.0000 0.61804  0.76204  0.38196  Biso   1.000  C
  N134     1.0000 0.63482  0.79304  0.36518  Biso   1.000  N
  C1052    1.0000 0.71755  0.93547  0.28245  Biso   1.000  C
  C1053    1.0000 0.73082  0.96993  0.26918  Biso   1.000  C
  C1054    1.0000 0.75589  0.97032  0.24411  Biso   1.000  C
  H724     1.0000 0.76470  0.94920  0.23530  Biso   1.000  H
  C1055    1.0000 0.08739  0.79426  0.08739  Biso   1.000  C
  H725     1.0000 0.07450  0.81070  0.07450  Biso   1.000  H
  C1056    1.0000 0.11804  0.73796  0.11804  Biso   1.000  C
  N135     1.0000 0.13482  0.70696  0.13482  Biso   1.000  N
  C1057    1.0000 0.21755  0.56453  0.21755  Biso   1.000  C
  C1058    1.0000 0.23082  0.53007  0.23082  Biso   1.000  C
  C1059    1.0000 0.25589  0.52968  0.25589  Biso   1.000  C
  H726     1.0000 0.26470  0.55080  0.26470  Biso   1.000  H
  C1060    1.0000 0.58739  0.29426  0.58739  Biso   1.000  C
  H727     1.0000 0.57450  0.31070  0.57450  Biso   1.000  H
  C1061    1.0000 0.61804  0.23796  0.61804  Biso   1.000  C
  N136     1.0000 0.63482  0.20696  0.63482  Biso   1.000  N
  C1062    1.0000 0.71755  0.06453  0.71755  Biso   1.000  C
  C1063    1.0000 0.73082  0.03007  0.73082  Biso   1.000  C
  C1064    1.0000 0.75589  0.02968  0.75589  Biso   1.000  C
  H728     1.0000 0.76470  0.05080  0.76470  Biso   1.000  H
  C1065    1.0000 0.91261  0.91261  0.79426  Biso   1.000  C
  H729     1.0000 0.92550  0.92550  0.81070  Biso   1.000  H
  C1066    1.0000 0.88196  0.88196  0.73796  Biso   1.000  C
  N137     1.0000 0.86518  0.86518  0.70696  Biso   1.000  N
  C1067    1.0000 0.78245  0.78245  0.56453  Biso   1.000  C
  C1068    1.0000 0.76918  0.76918  0.53007  Biso   1.000  C
  C1069    1.0000 0.74411  0.74411  0.52968  Biso   1.000  C
  H730     1.0000 0.73530  0.73530  0.55080  Biso   1.000  H
  C1070    1.0000 0.41261  0.41261  0.29426  Biso   1.000  C
  H731     1.0000 0.42550  0.42550  0.31070  Biso   1.000  H
  C1071    1.0000 0.38196  0.38196  0.23796  Biso   1.000  C
  N138     1.0000 0.36518  0.36518  0.20696  Biso   1.000  N
  C1072    1.0000 0.28245  0.28245  0.06453  Biso   1.000  C
  C1073    1.0000 0.26918  0.26918  0.03007  Biso   1.000  C
  C1074    1.0000 0.24411  0.24411  0.02968  Biso   1.000  C
  H732     1.0000 0.23530  0.23530  0.05080  Biso   1.000  H
  C1075    1.0000 0.08739  0.91261  0.20574  Biso   1.000  C
  H733     1.0000 0.07450  0.92550  0.18930  Biso   1.000  H
  C1076    1.0000 0.11804  0.88196  0.26204  Biso   1.000  C
  N139     1.0000 0.13482  0.86518  0.29304  Biso   1.000  N
  C1077    1.0000 0.21755  0.78245  0.43547  Biso   1.000  C
  C1078    1.0000 0.23082  0.76918  0.46993  Biso   1.000  C
  C1079    1.0000 0.25589  0.74411  0.47032  Biso   1.000  C
  H734     1.0000 0.26470  0.73530  0.44920  Biso   1.000  H
  C1080    1.0000 0.58739  0.41261  0.70574  Biso   1.000  C
  H735     1.0000 0.57450  0.42550  0.68930  Biso   1.000  H
  C1081    1.0000 0.61804  0.38196  0.76204  Biso   1.000  C
  N140     1.0000 0.63482  0.36518  0.79304  Biso   1.000  N
  C1082    1.0000 0.71755  0.28245  0.93547  Biso   1.000  C
  C1083    1.0000 0.73082  0.26918  0.96993  Biso   1.000  C
  C1084    1.0000 0.75589  0.24411  0.97032  Biso   1.000  C
  H736     1.0000 0.76470  0.23530  0.94920  Biso   1.000  H
  C1085    1.0000 0.91261  0.08739  0.20574  Biso   1.000  C
  H737     1.0000 0.92550  0.07450  0.18930  Biso   1.000  H
  C1086    1.0000 0.88196  0.11804  0.26204  Biso   1.000  C
  N141     1.0000 0.86518  0.13482  0.29304  Biso   1.000  N
  C1087    1.0000 0.78245  0.21755  0.43547  Biso   1.000  C
  C1088    1.0000 0.76918  0.23082  0.46993  Biso   1.000  C
  C1089    1.0000 0.74411  0.25589  0.47032  Biso   1.000  C
  H738     1.0000 0.73530  0.26470  0.44920  Biso   1.000  H
  C1090    1.0000 0.41261  0.58739  0.70574  Biso   1.000  C
  H739     1.0000 0.42550  0.57450  0.68930  Biso   1.000  H
  C1091    1.0000 0.38196  0.61804  0.76204  Biso   1.000  C
  N142     1.0000 0.36518  0.63482  0.79304  Biso   1.000  N
  C1092    1.0000 0.28245  0.71755  0.93547  Biso   1.000  C
  C1093    1.0000 0.26918  0.73082  0.96993  Biso   1.000  C
  C1094    1.0000 0.24411  0.75589  0.97032  Biso   1.000  C
  H740     1.0000 0.23530  0.76470  0.94920  Biso   1.000  H
  C1095    1.0000 0.08739  0.08739  0.79426  Biso   1.000  C
  H741     1.0000 0.07450  0.07450  0.81070  Biso   1.000  H
  C1096    1.0000 0.11804  0.11804  0.73796  Biso   1.000  C
  N143     1.0000 0.13482  0.13482  0.70696  Biso   1.000  N
  C1097    1.0000 0.21755  0.21755  0.56453  Biso   1.000  C
  C1098    1.0000 0.23082  0.23082  0.53007  Biso   1.000  C
  C1099    1.0000 0.25589  0.25589  0.52968  Biso   1.000  C
  H742     1.0000 0.26470  0.26470  0.55080  Biso   1.000  H
  C1100    1.0000 0.58739  0.58739  0.29426  Biso   1.000  C
  H743     1.0000 0.57450  0.57450  0.31070  Biso   1.000  H
  C1101    1.0000 0.61804  0.61804  0.23796  Biso   1.000  C
  N144     1.0000 0.63482  0.63482  0.20696  Biso   1.000  N
  C1102    1.0000 0.71755  0.71755  0.06453  Biso   1.000  C
  C1103    1.0000 0.73082  0.73082  0.03007  Biso   1.000  C
  C1104    1.0000 0.75589  0.75589  0.02968  Biso   1.000  C
  H744     1.0000 0.76470  0.76470  0.05080  Biso   1.000  H
  C1105    1.0000 0.91261  0.79426  0.08739  Biso   1.000  C
  H745     1.0000 0.92550  0.81070  0.07450  Biso   1.000  H
  C1106    1.0000 0.88196  0.73796  0.11804  Biso   1.000  C
  N145     1.0000 0.86518  0.70696  0.13482  Biso   1.000  N
  C1107    1.0000 0.78245  0.56453  0.21755  Biso   1.000  C
  C1108    1.0000 0.76918  0.53007  0.23082  Biso   1.000  C
  C1109    1.0000 0.74411  0.52968  0.25589  Biso   1.000  C
  H746     1.0000 0.73530  0.55080  0.26470  Biso   1.000  H
  C1110    1.0000 0.41261  0.29426  0.58739  Biso   1.000  C
  H747     1.0000 0.42550  0.31070  0.57450  Biso   1.000  H
  C1111    1.0000 0.38196  0.23796  0.61804  Biso   1.000  C
  N146     1.0000 0.36518  0.20696  0.63482  Biso   1.000  N
  C1112    1.0000 0.28245  0.06453  0.71755  Biso   1.000  C
  C1113    1.0000 0.26918  0.03007  0.73082  Biso   1.000  C
  C1114    1.0000 0.24411  0.02968  0.75589  Biso   1.000  C
  H748     1.0000 0.23530  0.05080  0.76470  Biso   1.000  H
  C1115    1.0000 0.08739  0.20574  0.08739  Biso   1.000  C
  H749     1.0000 0.07450  0.18930  0.07450  Biso   1.000  H
  C1116    1.0000 0.11804  0.26204  0.11804  Biso   1.000  C
  N147     1.0000 0.13482  0.29304  0.13482  Biso   1.000  N
  C1117    1.0000 0.21755  0.43547  0.21755  Biso   1.000  C
  C1118    1.0000 0.23082  0.46993  0.23082  Biso   1.000  C
  C1119    1.0000 0.25589  0.47032  0.25589  Biso   1.000  C
  H750     1.0000 0.26470  0.44920  0.26470  Biso   1.000  H
  C1120    1.0000 0.58739  0.70574  0.58739  Biso   1.000  C
  H751     1.0000 0.57450  0.68930  0.57450  Biso   1.000  H
  C1121    1.0000 0.61804  0.76204  0.61804  Biso   1.000  C
  N148     1.0000 0.63482  0.79304  0.63482  Biso   1.000  N
  C1122    1.0000 0.71755  0.93547  0.71755  Biso   1.000  C
  C1123    1.0000 0.73082  0.96993  0.73082  Biso   1.000  C
  C1124    1.0000 0.75589  0.97032  0.75589  Biso   1.000  C
  H752     1.0000 0.76470  0.94920  0.76470  Biso   1.000  H
  C1125    1.0000 0.91261  0.20574  0.91261  Biso   1.000  C
  H753     1.0000 0.92550  0.18930  0.92550  Biso   1.000  H
  C1126    1.0000 0.88196  0.26204  0.88196  Biso   1.000  C
  N149     1.0000 0.86518  0.29304  0.86518  Biso   1.000  N
  C1127    1.0000 0.78245  0.43547  0.78245  Biso   1.000  C
  C1128    1.0000 0.76918  0.46993  0.76918  Biso   1.000  C
  C1129    1.0000 0.74411  0.47032  0.74411  Biso   1.000  C
  H754     1.0000 0.73530  0.44920  0.73530  Biso   1.000  H
  C1130    1.0000 0.41261  0.70574  0.41261  Biso   1.000  C
  H755     1.0000 0.42550  0.68930  0.42550  Biso   1.000  H
  C1131    1.0000 0.38196  0.76204  0.38196  Biso   1.000  C
  N150     1.0000 0.36518  0.79304  0.36518  Biso   1.000  N
  C1132    1.0000 0.28245  0.93547  0.28245  Biso   1.000  C
  C1133    1.0000 0.26918  0.96993  0.26918  Biso   1.000  C
  C1134    1.0000 0.24411  0.97032  0.24411  Biso   1.000  C
  H756     1.0000 0.23530  0.94920  0.23530  Biso   1.000  H
  C1135    1.0000 0.08739  0.79426  0.91261  Biso   1.000  C
  H757     1.0000 0.07450  0.81070  0.92550  Biso   1.000  H
  C1136    1.0000 0.11804  0.73796  0.88196  Biso   1.000  C
  N151     1.0000 0.13482  0.70696  0.86518  Biso   1.000  N
  C1137    1.0000 0.21755  0.56453  0.78245  Biso   1.000  C
  C1138    1.0000 0.23082  0.53007  0.76918  Biso   1.000  C
  C1139    1.0000 0.25589  0.52968  0.74411  Biso   1.000  C
  H758     1.0000 0.26470  0.55080  0.73530  Biso   1.000  H
  C1140    1.0000 0.58739  0.29426  0.41261  Biso   1.000  C
  H759     1.0000 0.57450  0.31070  0.42550  Biso   1.000  H
  C1141    1.0000 0.61804  0.23796  0.38196  Biso   1.000  C
  N152     1.0000 0.63482  0.20696  0.36518  Biso   1.000  N
  C1142    1.0000 0.71755  0.06453  0.28245  Biso   1.000  C
  C1143    1.0000 0.73082  0.03007  0.26918  Biso   1.000  C
  C1144    1.0000 0.75589  0.02968  0.24411  Biso   1.000  C
  H760     1.0000 0.76470  0.05080  0.23530  Biso   1.000  H
  C1145    1.0000 0.79426  0.91261  0.08739  Biso   1.000  C
  H761     1.0000 0.81070  0.92550  0.07450  Biso   1.000  H
  C1146    1.0000 0.73796  0.88196  0.11804  Biso   1.000  C
  N153     1.0000 0.70696  0.86518  0.13482  Biso   1.000  N
  C1147    1.0000 0.56453  0.78245  0.21755  Biso   1.000  C
  C1148    1.0000 0.53007  0.76918  0.23082  Biso   1.000  C
  C1149    1.0000 0.52968  0.74411  0.25589  Biso   1.000  C
  H762     1.0000 0.55080  0.73530  0.26470  Biso   1.000  H
  C1150    1.0000 0.29426  0.41261  0.58739  Biso   1.000  C
  H763     1.0000 0.31070  0.42550  0.57450  Biso   1.000  H
  C1151    1.0000 0.23796  0.38196  0.61804  Biso   1.000  C
  N154     1.0000 0.20696  0.36518  0.63482  Biso   1.000  N
  C1152    1.0000 0.06453  0.28245  0.71755  Biso   1.000  C
  C1153    1.0000 0.03007  0.26918  0.73082  Biso   1.000  C
  C1154    1.0000 0.02968  0.24411  0.75589  Biso   1.000  C
  H764     1.0000 0.05080  0.23530  0.76470  Biso   1.000  H
  C1155    1.0000 0.20574  0.91261  0.91261  Biso   1.000  C
  H765     1.0000 0.18930  0.92550  0.92550  Biso   1.000  H
  C1156    1.0000 0.26204  0.88196  0.88196  Biso   1.000  C
  N155     1.0000 0.29304  0.86518  0.86518  Biso   1.000  N
  C1157    1.0000 0.43547  0.78245  0.78245  Biso   1.000  C
  C1158    1.0000 0.46993  0.76918  0.76918  Biso   1.000  C
  C1159    1.0000 0.47032  0.74411  0.74411  Biso   1.000  C
  H766     1.0000 0.44920  0.73530  0.73530  Biso   1.000  H
  C1160    1.0000 0.70574  0.41261  0.41261  Biso   1.000  C
  H767     1.0000 0.68930  0.42550  0.42550  Biso   1.000  H
  C1161    1.0000 0.76204  0.38196  0.38196  Biso   1.000  C
  N156     1.0000 0.79304  0.36518  0.36518  Biso   1.000  N
  C1162    1.0000 0.93547  0.28245  0.28245  Biso   1.000  C
  C1163    1.0000 0.96993  0.26918  0.26918  Biso   1.000  C
  C1164    1.0000 0.97032  0.24411  0.24411  Biso   1.000  C
  H768     1.0000 0.94920  0.23530  0.23530  Biso   1.000  H
  C1165    1.0000 0.20574  0.08739  0.08739  Biso   1.000  C
  H769     1.0000 0.18930  0.07450  0.07450  Biso   1.000  H
  C1166    1.0000 0.26204  0.11804  0.11804  Biso   1.000  C
  N157     1.0000 0.29304  0.13482  0.13482  Biso   1.000  N
  C1167    1.0000 0.43547  0.21755  0.21755  Biso   1.000  C
  C1168    1.0000 0.46993  0.23082  0.23082  Biso   1.000  C
  C1169    1.0000 0.47032  0.25589  0.25589  Biso   1.000  C
  H770     1.0000 0.44920  0.26470  0.26470  Biso   1.000  H
  C1170    1.0000 0.70574  0.58739  0.58739  Biso   1.000  C
  H771     1.0000 0.68930  0.57450  0.57450  Biso   1.000  H
  C1171    1.0000 0.76204  0.61804  0.61804  Biso   1.000  C
  N158     1.0000 0.79304  0.63482  0.63482  Biso   1.000  N
  C1172    1.0000 0.93547  0.71755  0.71755  Biso   1.000  C
  C1173    1.0000 0.96993  0.73082  0.73082  Biso   1.000  C
  C1174    1.0000 0.97032  0.75589  0.75589  Biso   1.000  C
  H772     1.0000 0.94920  0.76470  0.76470  Biso   1.000  H
  C1175    1.0000 0.79426  0.08739  0.91261  Biso   1.000  C
  H773     1.0000 0.81070  0.07450  0.92550  Biso   1.000  H
  C1176    1.0000 0.73796  0.11804  0.88196  Biso   1.000  C
  N159     1.0000 0.70696  0.13482  0.86518  Biso   1.000  N
  C1177    1.0000 0.56453  0.21755  0.78245  Biso   1.000  C
  C1178    1.0000 0.53007  0.23082  0.76918  Biso   1.000  C
  C1179    1.0000 0.52968  0.25589  0.74411  Biso   1.000  C
  H774     1.0000 0.55080  0.26470  0.73530  Biso   1.000  H
  C1180    1.0000 0.29426  0.58739  0.41261  Biso   1.000  C
  H775     1.0000 0.31070  0.57450  0.42550  Biso   1.000  H
  C1181    1.0000 0.23796  0.61804  0.38196  Biso   1.000  C
  N160     1.0000 0.20696  0.63482  0.36518  Biso   1.000  N
  C1182    1.0000 0.06453  0.71755  0.28245  Biso   1.000  C
  C1183    1.0000 0.03007  0.73082  0.26918  Biso   1.000  C
  C1184    1.0000 0.02968  0.75589  0.24411  Biso   1.000  C
  H776     1.0000 0.05080  0.76470  0.23530  Biso   1.000  H
  C1185    1.0000 0.91261  0.91261  0.20574  Biso   1.000  C
  H777     1.0000 0.92550  0.92550  0.18930  Biso   1.000  H
  C1186    1.0000 0.88196  0.88196  0.26204  Biso   1.000  C
  N161     1.0000 0.86518  0.86518  0.29304  Biso   1.000  N
  C1187    1.0000 0.78245  0.78245  0.43547  Biso   1.000  C
  C1188    1.0000 0.76918  0.76918  0.46993  Biso   1.000  C
  C1189    1.0000 0.74411  0.74411  0.47032  Biso   1.000  C
  H778     1.0000 0.73530  0.73530  0.44920  Biso   1.000  H
  C1190    1.0000 0.41261  0.41261  0.70574  Biso   1.000  C
  H779     1.0000 0.42550  0.42550  0.68930  Biso   1.000  H
  C1191    1.0000 0.38196  0.38196  0.76204  Biso   1.000  C
  N162     1.0000 0.36518  0.36518  0.79304  Biso   1.000  N
  C1192    1.0000 0.28245  0.28245  0.93547  Biso   1.000  C
  C1193    1.0000 0.26918  0.26918  0.96993  Biso   1.000  C
  C1194    1.0000 0.24411  0.24411  0.97032  Biso   1.000  C
  H780     1.0000 0.23530  0.23530  0.94920  Biso   1.000  H
  C1195    1.0000 0.91261  0.08739  0.79426  Biso   1.000  C
  H781     1.0000 0.92550  0.07450  0.81070  Biso   1.000  H
  C1196    1.0000 0.88196  0.11804  0.73796  Biso   1.000  C
  N163     1.0000 0.86518  0.13482  0.70696  Biso   1.000  N
  C1197    1.0000 0.78245  0.21755  0.56453  Biso   1.000  C
  C1198    1.0000 0.76918  0.23082  0.53007  Biso   1.000  C
  C1199    1.0000 0.74411  0.25589  0.52968  Biso   1.000  C
  H782     1.0000 0.73530  0.26470  0.55080  Biso   1.000  H
  C1200    1.0000 0.41261  0.58739  0.29426  Biso   1.000  C
  H783     1.0000 0.42550  0.57450  0.31070  Biso   1.000  H
  C1201    1.0000 0.38196  0.61804  0.23796  Biso   1.000  C
  N164     1.0000 0.36518  0.63482  0.20696  Biso   1.000  N
  C1202    1.0000 0.28245  0.71755  0.06453  Biso   1.000  C
  C1203    1.0000 0.26918  0.73082  0.03007  Biso   1.000  C
  C1204    1.0000 0.24411  0.75589  0.02968  Biso   1.000  C
  H784     1.0000 0.23530  0.76470  0.05080  Biso   1.000  H
  C1205    1.0000 0.08739  0.91261  0.79426  Biso   1.000  C
  H785     1.0000 0.07450  0.92550  0.81070  Biso   1.000  H
  C1206    1.0000 0.11804  0.88196  0.73796  Biso   1.000  C
  N165     1.0000 0.13482  0.86518  0.70696  Biso   1.000  N
  C1207    1.0000 0.21755  0.78245  0.56453  Biso   1.000  C
  C1208    1.0000 0.23082  0.76918  0.53007  Biso   1.000  C
  C1209    1.0000 0.25589  0.74411  0.52968  Biso   1.000  C
  H786     1.0000 0.26470  0.73530  0.55080  Biso   1.000  H
  C1210    1.0000 0.58739  0.41261  0.29426  Biso   1.000  C
  H787     1.0000 0.57450  0.42550  0.31070  Biso   1.000  H
  C1211    1.0000 0.61804  0.38196  0.23796  Biso   1.000  C
  N166     1.0000 0.63482  0.36518  0.20696  Biso   1.000  N
  C1212    1.0000 0.71755  0.28245  0.06453  Biso   1.000  C
  C1213    1.0000 0.73082  0.26918  0.03007  Biso   1.000  C
  C1214    1.0000 0.75589  0.24411  0.02968  Biso   1.000  C
  H788     1.0000 0.76470  0.23530  0.05080  Biso   1.000  H
  C1215    1.0000 0.08739  0.08739  0.20574  Biso   1.000  C
  H789     1.0000 0.07450  0.07450  0.18930  Biso   1.000  H
  C1216    1.0000 0.11804  0.11804  0.26204  Biso   1.000  C
  N167     1.0000 0.13482  0.13482  0.29304  Biso   1.000  N
  C1217    1.0000 0.21755  0.21755  0.43547  Biso   1.000  C
  C1218    1.0000 0.23082  0.23082  0.46993  Biso   1.000  C
  C1219    1.0000 0.25589  0.25589  0.47032  Biso   1.000  C
  H790     1.0000 0.26470  0.26470  0.44920  Biso   1.000  H
  C1220    1.0000 0.58739  0.58739  0.70574  Biso   1.000  C
  H791     1.0000 0.57450  0.57450  0.68930  Biso   1.000  H
  C1221    1.0000 0.61804  0.61804  0.76204  Biso   1.000  C
  N168     1.0000 0.63482  0.63482  0.79304  Biso   1.000  N
  C1222    1.0000 0.71755  0.71755  0.93547  Biso   1.000  C
  C1223    1.0000 0.73082  0.73082  0.96993  Biso   1.000  C
  C1224    1.0000 0.75589  0.75589  0.97032  Biso   1.000  C
  H792     1.0000 0.76470  0.76470  0.94920  Biso   1.000  H
