data_EMIGAJ_charged
_audit_creation_date              2014-07-02
_audit_creation_method            'Materials Studio'
_symmetry_space_group_name_H-M    'P1'
_symmetry_Int_Tables_number       1
_symmetry_cell_setting            triclinic
loop_
_symmetry_equiv_pos_as_xyz
  x,y,z
_cell_length_a                    25.5907
_cell_length_b                    42.3140
_cell_length_c                    42.3140
_cell_angle_alpha                 107.5850
_cell_angle_beta                  90.6846
_cell_angle_gamma                 90.6846
loop_
_atom_site_label
_atom_site_type_symbol
_atom_site_fract_x
_atom_site_fract_y
_atom_site_fract_z
_atom_site_U_iso_or_equiv
_atom_site_adp_type
_atom_site_occupancy
In1    In    0.95482   0.09106   0.86054   0.01267  Uiso   1.00
In2    In    0.94976   0.01370   0.78832   0.01267  Uiso   1.00
In3    In    0.89684   0.10276   0.78288   0.01267  Uiso   1.00
In4    In    0.05293   0.09033   0.79515   0.01267  Uiso   1.00
In5    In    0.94853   0.94322   0.70964   0.01267  Uiso   1.00
In6    In    0.89305   0.02172   0.70024   0.01267  Uiso   1.00
In7    In    0.85119   0.10614   0.69924   0.01267  Uiso   1.00
In8    In    0.04900   0.00918   0.71220   0.01267  Uiso   1.00
In9    In    0.99594   0.09899   0.70733   0.01267  Uiso   1.00
In10   In    0.13740   0.08297   0.72179   0.01267  Uiso   1.00
In11   In    0.44954   0.29414   0.65766   0.01267  Uiso   1.00
In12   In    0.39486   0.21600   0.66936   0.01267  Uiso   1.00
In13   In    0.44644   0.22213   0.58039   0.01267  Uiso   1.00
In14   In    0.55029   0.23024   0.65770   0.01267  Uiso   1.00
In15   In    0.35178   0.13190   0.67178   0.01267  Uiso   1.00
In16   In    0.39305   0.13391   0.58751   0.01267  Uiso   1.00
In17   In    0.44978   0.14433   0.50933   0.01267  Uiso   1.00
In18   In    0.49621   0.14129   0.66481   0.01267  Uiso   1.00
In19   In    0.54980   0.14803   0.57633   0.01267  Uiso   1.00
In20   In    0.63768   0.15802   0.65058   0.01267  Uiso   1.00
In21   In    0.91996   0.68662   0.45142   0.01267  Uiso   1.00
In22   In    0.91724   0.74182   0.53814   0.01267  Uiso   1.00
In23   In    0.83031   0.65547   0.50475   0.01267  Uiso   1.00
In24   In    0.98973   0.65154   0.51212   0.01267  Uiso   1.00
In25   In    0.91278   0.78834   0.62862   0.01267  Uiso   1.00
In26   In    0.82578   0.71309   0.60205   0.01267  Uiso   1.00
In27   In    0.75452   0.63054   0.56886   0.01267  Uiso   1.00
In28   In    0.98640   0.70868   0.60868   0.01267  Uiso   1.00
In29   In    0.89703   0.62273   0.57721   0.01267  Uiso   1.00
In30   In    0.04433   0.62429   0.58249   0.01267  Uiso   1.00
In31   In    0.28965   0.17305   0.23157   0.01267  Uiso   1.00
In32   In    0.36403   0.14551   0.29487   0.01267  Uiso   1.00
In33   In    0.35751   0.09171   0.19663   0.01267  Uiso   1.00
In34   In    0.43533   0.18091   0.22683   0.01267  Uiso   1.00
In35   In    0.44941   0.11396   0.35088   0.01267  Uiso   1.00
In36   In    0.44427   0.05958   0.26316   0.01267  Uiso   1.00
In37   In    0.52284   0.14946   0.29304   0.01267  Uiso   1.00
In38   In    0.51703   0.09452   0.19472   0.01267  Uiso   1.00
In39   In    0.43760   0.01541   0.17143   0.01267  Uiso   1.00
In40   In    0.58155   0.17878   0.22558   0.01267  Uiso   1.00
In41   In    0.45482   0.86054   0.09106   0.01267  Uiso   1.00
In42   In    0.44976   0.78832   0.01370   0.01267  Uiso   1.00
In43   In    0.39684   0.78288   0.10276   0.01267  Uiso   1.00
In44   In    0.55293   0.79515   0.09033   0.01267  Uiso   1.00
In45   In    0.44853   0.70964   0.94322   0.01267  Uiso   1.00
In46   In    0.39305   0.70024   0.02172   0.01267  Uiso   1.00
In47   In    0.35119   0.69924   0.10614   0.01267  Uiso   1.00
In48   In    0.54900   0.71220   0.00918   0.01267  Uiso   1.00
In49   In    0.49594   0.70733   0.09899   0.01267  Uiso   1.00
In50   In    0.63740   0.72179   0.08297   0.01267  Uiso   1.00
In51   In    0.94954   0.65766   0.29414   0.01267  Uiso   1.00
In52   In    0.89486   0.66936   0.21600   0.01267  Uiso   1.00
In53   In    0.94644   0.58039   0.22213   0.01267  Uiso   1.00
In54   In    0.05029   0.65770   0.23024   0.01267  Uiso   1.00
In55   In    0.85178   0.67178   0.13190   0.01267  Uiso   1.00
In56   In    0.89305   0.58751   0.13391   0.01267  Uiso   1.00
In57   In    0.94978   0.50933   0.14433   0.01267  Uiso   1.00
In58   In    0.99621   0.66481   0.14129   0.01267  Uiso   1.00
In59   In    0.04980   0.57633   0.14803   0.01267  Uiso   1.00
In60   In    0.13768   0.65058   0.15802   0.01267  Uiso   1.00
In61   In    0.41996   0.45142   0.68662   0.01267  Uiso   1.00
In62   In    0.41724   0.53814   0.74182   0.01267  Uiso   1.00
In63   In    0.33031   0.50475   0.65547   0.01267  Uiso   1.00
In64   In    0.48973   0.51212   0.65154   0.01267  Uiso   1.00
In65   In    0.41278   0.62862   0.78834   0.01267  Uiso   1.00
In66   In    0.32578   0.60205   0.71309   0.01267  Uiso   1.00
In67   In    0.25452   0.56886   0.63054   0.01267  Uiso   1.00
In68   In    0.48640   0.60868   0.70868   0.01267  Uiso   1.00
In69   In    0.39703   0.57721   0.62273   0.01267  Uiso   1.00
In70   In    0.54433   0.58249   0.62429   0.01267  Uiso   1.00
In71   In    0.78965   0.23157   0.17305   0.01267  Uiso   1.00
In72   In    0.86403   0.29487   0.14551   0.01267  Uiso   1.00
In73   In    0.85751   0.19663   0.09171   0.01267  Uiso   1.00
In74   In    0.93533   0.22683   0.18091   0.01267  Uiso   1.00
In75   In    0.94941   0.35088   0.11396   0.01267  Uiso   1.00
In76   In    0.94427   0.26316   0.05958   0.01267  Uiso   1.00
In77   In    0.02284   0.29304   0.14946   0.01267  Uiso   1.00
In78   In    0.01703   0.19472   0.09452   0.01267  Uiso   1.00
In79   In    0.93760   0.17143   0.01541   0.01267  Uiso   1.00
In80   In    0.08155   0.22558   0.17878   0.01267  Uiso   1.00
H1     H     0.06170   0.55250   0.59870   0.01267  Uiso   1.00
H2     H     0.63790   0.61560   0.53160   0.01267  Uiso   1.00
H3     H     0.16650   0.64790   0.61010   0.01267  Uiso   1.00
H4     H     0.19390   0.62600   0.57700   0.01267  Uiso   1.00
H5     H     0.21970   0.62930   0.61250   0.01267  Uiso   1.00
H6     H     0.90160   0.88400   0.73500   0.01267  Uiso   1.00
H7     H     0.87730   0.82630   0.70210   0.01267  Uiso   1.00
H8     H     0.00230   0.87540   0.64380   0.01267  Uiso   1.00
H9     H     0.96360   0.84860   0.61960   0.01267  Uiso   1.00
H10    H     0.95010   0.88720   0.62980   0.01267  Uiso   1.00
H11    H     0.33690   0.08490   0.71550   0.01267  Uiso   1.00
H12    H     0.25480   0.06260   0.73500   0.01267  Uiso   1.00
H13    H     0.17820   0.13670   0.68750   0.01267  Uiso   1.00
H14    H     0.23290   0.15410   0.68390   0.01267  Uiso   1.00
H15    H     0.21230   0.12230   0.65490   0.01267  Uiso   1.00
H16    H     0.75160   0.18240   0.64720   0.01267  Uiso   1.00
H17    H     0.83350   0.16130   0.65830   0.01267  Uiso   1.00
H18    H     0.72730   0.10400   0.70660   0.01267  Uiso   1.00
H19    H     0.67680   0.11030   0.68670   0.01267  Uiso   1.00
H20    H     0.71810   0.08290   0.66850   0.01267  Uiso   1.00
H21    H     0.40410   0.07690   0.45330   0.01267  Uiso   1.00
H22    H     0.41540   0.06320   0.39300   0.01267  Uiso   1.00
H23    H     0.51680   0.16590   0.44310   0.01267  Uiso   1.00
H24    H     0.47920   0.17060   0.41440   0.01267  Uiso   1.00
H25    H     0.46110   0.18290   0.45210   0.01267  Uiso   1.00
H26    H     0.91770   0.74030   0.40750   0.01267  Uiso   1.00
H27    H     0.43180   0.34880   0.72720   0.01267  Uiso   1.00
H28    H     0.92240   0.61900   0.34900   0.01267  Uiso   1.00
H29    H     0.92370   0.62690   0.38850   0.01267  Uiso   1.00
H30    H     0.97710   0.62550   0.36890   0.01267  Uiso   1.00
H31    H     0.38300   0.97840   0.10840   0.01267  Uiso   1.00
H32    H     0.89650   0.06670   0.91870   0.01267  Uiso   1.00
H33    H     0.17090   0.19520   0.26940   0.01267  Uiso   1.00
H34    H     0.56170   0.59870   0.55250   0.01267  Uiso   1.00
H35    H     0.13790   0.53160   0.61560   0.01267  Uiso   1.00
H36    H     0.66650   0.61010   0.64790   0.01267  Uiso   1.00
H37    H     0.69390   0.57700   0.62600   0.01267  Uiso   1.00
H38    H     0.71970   0.61250   0.62930   0.01267  Uiso   1.00
H39    H     0.40160   0.73500   0.88400   0.01267  Uiso   1.00
H40    H     0.37730   0.70210   0.82630   0.01267  Uiso   1.00
H41    H     0.50230   0.64380   0.87540   0.01267  Uiso   1.00
H42    H     0.46360   0.61960   0.84860   0.01267  Uiso   1.00
H43    H     0.45010   0.62980   0.88720   0.01267  Uiso   1.00
H44    H     0.83690   0.71550   0.08490   0.01267  Uiso   1.00
H45    H     0.75480   0.73500   0.06260   0.01267  Uiso   1.00
H46    H     0.67820   0.68750   0.13670   0.01267  Uiso   1.00
H47    H     0.73290   0.68390   0.15410   0.01267  Uiso   1.00
H48    H     0.71230   0.65490   0.12230   0.01267  Uiso   1.00
H49    H     0.25160   0.64720   0.18240   0.01267  Uiso   1.00
H50    H     0.33350   0.65830   0.16130   0.01267  Uiso   1.00
H51    H     0.22730   0.70660   0.10400   0.01267  Uiso   1.00
H52    H     0.17680   0.68670   0.11030   0.01267  Uiso   1.00
H53    H     0.21810   0.66850   0.08290   0.01267  Uiso   1.00
H54    H     0.90410   0.45330   0.07690   0.01267  Uiso   1.00
H55    H     0.91540   0.39300   0.06320   0.01267  Uiso   1.00
H56    H     0.01680   0.44310   0.16590   0.01267  Uiso   1.00
H57    H     0.97920   0.41440   0.17060   0.01267  Uiso   1.00
H58    H     0.96110   0.45210   0.18290   0.01267  Uiso   1.00
H59    H     0.41770   0.40750   0.74030   0.01267  Uiso   1.00
H60    H     0.93180   0.72720   0.34880   0.01267  Uiso   1.00
H61    H     0.42240   0.34900   0.61900   0.01267  Uiso   1.00
H62    H     0.42370   0.38850   0.62690   0.01267  Uiso   1.00
H63    H     0.47710   0.36890   0.62550   0.01267  Uiso   1.00
H64    H     0.88300   0.10840   0.97840   0.01267  Uiso   1.00
H65    H     0.39650   0.91870   0.06670   0.01267  Uiso   1.00
H66    H     0.67090   0.26940   0.19520   0.01267  Uiso   1.00
C1     C     0.15580   0.59790   0.60170   0.01267  Uiso   1.00
C2     C     0.09510   0.56310   0.60130   0.01267  Uiso   1.00
C3     C     0.63540   0.61010   0.55170   0.01267  Uiso   1.00
C4     C     0.18660   0.62790   0.60010   0.01267  Uiso   1.00
C5     C     0.93750   0.86660   0.66580   0.01267  Uiso   1.00
C6     C     0.90860   0.87430   0.71210   0.01267  Uiso   1.00
C7     C     0.89600   0.84200   0.69440   0.01267  Uiso   1.00
C8     C     0.96570   0.86970   0.63750   0.01267  Uiso   1.00
C9     C     0.24080   0.11110   0.69490   0.01267  Uiso   1.00
C10    C     0.30230   0.09040   0.71120   0.01267  Uiso   1.00
C11    C     0.25750   0.07800   0.72280   0.01267  Uiso   1.00
C12    C     0.21380   0.13280   0.67900   0.01267  Uiso   1.00
C13    C     0.74230   0.12900   0.67500   0.01267  Uiso   1.00
C14    C     0.75530   0.16450   0.65630   0.01267  Uiso   1.00
C15    C     0.80020   0.15380   0.66280   0.01267  Uiso   1.00
C16    C     0.71390   0.10470   0.68490   0.01267  Uiso   1.00
C17    C     0.45600   0.13280   0.43160   0.01267  Uiso   1.00
C18    C     0.41930   0.09060   0.44180   0.01267  Uiso   1.00
C19    C     0.42450   0.08380   0.40900   0.01267  Uiso   1.00
C20    C     0.48030   0.16580   0.43560   0.01267  Uiso   1.00
C21    C     0.93650   0.66790   0.37350   0.01267  Uiso   1.00
C22    C     0.92440   0.71890   0.39290   0.01267  Uiso   1.00
C23    C     0.43200   0.36090   0.71150   0.01267  Uiso   1.00
C24    C     0.94020   0.63170   0.36970   0.01267  Uiso   1.00
C25    C     0.96300   0.13990   0.93550   0.01267  Uiso   1.00
C26    C     0.40600   0.96180   0.11120   0.01267  Uiso   1.00
C27    C     0.91100   0.08840   0.92800   0.01267  Uiso   1.00
C28    C     0.21900   0.20990   0.17750   0.01267  Uiso   1.00
C29    C     0.17700   0.19960   0.24900   0.01267  Uiso   1.00
C30    C     0.64260   0.21820   0.21540   0.01267  Uiso   1.00
C31    C     0.65580   0.60170   0.59790   0.01267  Uiso   1.00
C32    C     0.59510   0.60130   0.56310   0.01267  Uiso   1.00
C33    C     0.13540   0.55170   0.61010   0.01267  Uiso   1.00
C34    C     0.68660   0.60010   0.62790   0.01267  Uiso   1.00
C35    C     0.43750   0.66580   0.86660   0.01267  Uiso   1.00
C36    C     0.40860   0.71210   0.87430   0.01267  Uiso   1.00
C37    C     0.39600   0.69440   0.84200   0.01267  Uiso   1.00
C38    C     0.46570   0.63750   0.86970   0.01267  Uiso   1.00
C39    C     0.74080   0.69490   0.11110   0.01267  Uiso   1.00
C40    C     0.80230   0.71120   0.09040   0.01267  Uiso   1.00
C41    C     0.75750   0.72280   0.07800   0.01267  Uiso   1.00
C42    C     0.71380   0.67900   0.13280   0.01267  Uiso   1.00
C43    C     0.24230   0.67500   0.12900   0.01267  Uiso   1.00
C44    C     0.25530   0.65630   0.16450   0.01267  Uiso   1.00
C45    C     0.30020   0.66280   0.15380   0.01267  Uiso   1.00
C46    C     0.21390   0.68490   0.10470   0.01267  Uiso   1.00
C47    C     0.95600   0.43160   0.13280   0.01267  Uiso   1.00
C48    C     0.91930   0.44180   0.09060   0.01267  Uiso   1.00
C49    C     0.92450   0.40900   0.08380   0.01267  Uiso   1.00
C50    C     0.98030   0.43560   0.16580   0.01267  Uiso   1.00
C51    C     0.43650   0.37350   0.66790   0.01267  Uiso   1.00
C52    C     0.42440   0.39290   0.71890   0.01267  Uiso   1.00
C53    C     0.93200   0.71150   0.36090   0.01267  Uiso   1.00
C54    C     0.44020   0.36970   0.63170   0.01267  Uiso   1.00
C55    C     0.46300   0.93550   0.13990   0.01267  Uiso   1.00
C56    C     0.90600   0.11120   0.96180   0.01267  Uiso   1.00
C57    C     0.41100   0.92800   0.08840   0.01267  Uiso   1.00
C58    C     0.71900   0.17750   0.20990   0.01267  Uiso   1.00
C59    C     0.67700   0.24900   0.19960   0.01267  Uiso   1.00
C60    C     0.14260   0.21540   0.21820   0.01267  Uiso   1.00
S1     S     0.93930   0.03193   0.84761   0.01267  Uiso   1.00
S2     S     0.88720   0.12182   0.84212   0.01267  Uiso   1.00
S3     S     0.93800   0.95439   0.76879   0.01267  Uiso   1.00
S4     S     0.88340   0.04124   0.76190   0.01267  Uiso   1.00
S5     S     0.03910   0.02869   0.77365   0.01267  Uiso   1.00
S6     S     0.98670   0.11791   0.76869   0.01267  Uiso   1.00
S7     S     0.88080   0.96275   0.67983   0.01267  Uiso   1.00
S8     S     0.82930   0.04800   0.67448   0.01267  Uiso   1.00
S9     S     0.03660   0.94987   0.69195   0.01267  Uiso   1.00
S10    S     0.98300   0.03730   0.68622   0.01267  Uiso   1.00
S11    S     0.13560   0.02356   0.69834   0.01267  Uiso   1.00
S12    S     0.38180   0.27486   0.68728   0.01267  Uiso   1.00
S13    S     0.43290   0.28142   0.59878   0.01267  Uiso   1.00
S14    S     0.53860   0.28958   0.67604   0.01267  Uiso   1.00
S15    S     0.38110   0.19537   0.60767   0.01267  Uiso   1.00
S16    S     0.43530   0.20321   0.52083   0.01267  Uiso   1.00
S17    S     0.48480   0.20258   0.68446   0.01267  Uiso   1.00
S18    S     0.53620   0.20935   0.59601   0.01267  Uiso   1.00
S19    S     0.63770   0.21821   0.67147   0.01267  Uiso   1.00
S20    S     0.32920   0.10823   0.61349   0.01267  Uiso   1.00
S21    S     0.38180   0.11427   0.52815   0.01267  Uiso   1.00
S22    S     0.43260   0.11397   0.68997   0.01267  Uiso   1.00
S23    S     0.48360   0.12096   0.60312   0.01267  Uiso   1.00
S24    S     0.58290   0.12897   0.67947   0.01267  Uiso   1.00
S25    S     0.63690   0.13539   0.59073   0.01267  Uiso   1.00
S26    S     0.92170   0.74510   0.48230   0.01267  Uiso   1.00
S27    S     0.83520   0.65927   0.44925   0.01267  Uiso   1.00
S28    S     0.99550   0.65488   0.45644   0.01267  Uiso   1.00
S29    S     0.91820   0.79761   0.57521   0.01267  Uiso   1.00
S30    S     0.83280   0.71360   0.54334   0.01267  Uiso   1.00
S31    S     0.75290   0.62536   0.51026   0.01267  Uiso   1.00
S32    S     0.99240   0.70995   0.55023   0.01267  Uiso   1.00
S33    S     0.90529   0.62374   0.51838   0.01267  Uiso   1.00
S34    S     0.06100   0.62080   0.52520   0.01267  Uiso   1.00
S35    S     0.82840   0.76822   0.64068   0.01267  Uiso   1.00
S36    S     0.74580   0.68533   0.60783   0.01267  Uiso   1.00
S37    S     0.90110   0.68099   0.61419   0.01267  Uiso   1.00
S38    S     0.81710   0.59569   0.58519   0.01267  Uiso   1.00
S39    S     0.05820   0.67869   0.62197   0.01267  Uiso   1.00
S40    S     0.96860   0.59344   0.59178   0.01267  Uiso   1.00
S41    S     0.36720   0.14110   0.34994   0.01267  Uiso   1.00
S42    S     0.36310   0.08831   0.25467   0.01267  Uiso   1.00
S43    S     0.44060   0.17831   0.28515   0.01267  Uiso   1.00
S44    S     0.52130   0.09191   0.25279   0.01267  Uiso   1.00
S45    S     0.08280   0.11334   0.69408   0.01267  Uiso   1.00
S46    S     0.13950   0.10423   0.78153   0.01267  Uiso   1.00
S47    S     0.04360   0.10843   0.85443   0.01267  Uiso   1.00
S48    S     0.93220   0.12526   0.68182   0.01267  Uiso   1.00
S49    S     0.83230   0.12859   0.75747   0.01267  Uiso   1.00
S50    S     0.98790   0.76399   0.64615   0.01267  Uiso   1.00
S51    S     0.33310   0.19025   0.69627   0.01267  Uiso   1.00
S52    S     0.53900   0.12885   0.51677   0.01267  Uiso   1.00
S53    S     0.27830   0.11943   0.19025   0.01267  Uiso   1.00
S54    S     0.35610   0.20827   0.21929   0.01267  Uiso   1.00
S55    S     0.28460   0.17358   0.28880   0.01267  Uiso   1.00
S56    S     0.35650   0.03683   0.15773   0.01267  Uiso   1.00
S57    S     0.43560   0.12333   0.18685   0.01267  Uiso   1.00
S58    S     0.50890   0.21054   0.21488   0.01267  Uiso   1.00
S59    S     0.44120   0.00445   0.22443   0.01267  Uiso   1.00
S60    S     0.51640   0.03955   0.15647   0.01267  Uiso   1.00
S61    S     0.59320   0.12487   0.18529   0.01267  Uiso   1.00
S62    S     0.45030   0.05589   0.31873   0.01267  Uiso   1.00
S63    S     0.59760   0.18048   0.28272   0.01267  Uiso   1.00
S64    S     0.52720   0.14591   0.34851   0.01267  Uiso   1.00
S65    S     0.43930   0.84761   0.03193   0.01267  Uiso   1.00
S66    S     0.38720   0.84212   0.12182   0.01267  Uiso   1.00
S67    S     0.43800   0.76879   0.95439   0.01267  Uiso   1.00
S68    S     0.38340   0.76190   0.04124   0.01267  Uiso   1.00
S69    S     0.53910   0.77365   0.02869   0.01267  Uiso   1.00
S70    S     0.48670   0.76869   0.11791   0.01267  Uiso   1.00
S71    S     0.38080   0.67983   0.96275   0.01267  Uiso   1.00
S72    S     0.32930   0.67448   0.04800   0.01267  Uiso   1.00
S73    S     0.53660   0.69195   0.94987   0.01267  Uiso   1.00
S74    S     0.48300   0.68622   0.03730   0.01267  Uiso   1.00
S75    S     0.63560   0.69834   0.02356   0.01267  Uiso   1.00
S76    S     0.88180   0.68728   0.27486   0.01267  Uiso   1.00
S77    S     0.93290   0.59878   0.28142   0.01267  Uiso   1.00
S78    S     0.03860   0.67604   0.28958   0.01267  Uiso   1.00
S79    S     0.88110   0.60767   0.19537   0.01267  Uiso   1.00
S80    S     0.93530   0.52083   0.20321   0.01267  Uiso   1.00
S81    S     0.98480   0.68446   0.20258   0.01267  Uiso   1.00
S82    S     0.03620   0.59601   0.20935   0.01267  Uiso   1.00
S83    S     0.13770   0.67147   0.21821   0.01267  Uiso   1.00
S84    S     0.82920   0.61349   0.10823   0.01267  Uiso   1.00
S85    S     0.88180   0.52815   0.11427   0.01267  Uiso   1.00
S86    S     0.93260   0.68997   0.11397   0.01267  Uiso   1.00
S87    S     0.98360   0.60312   0.12096   0.01267  Uiso   1.00
S88    S     0.08290   0.67947   0.12897   0.01267  Uiso   1.00
S89    S     0.13690   0.59073   0.13539   0.01267  Uiso   1.00
S90    S     0.42170   0.48230   0.74510   0.01267  Uiso   1.00
S91    S     0.33520   0.44925   0.65927   0.01267  Uiso   1.00
S92    S     0.49550   0.45644   0.65488   0.01267  Uiso   1.00
S93    S     0.41820   0.57521   0.79761   0.01267  Uiso   1.00
S94    S     0.33280   0.54334   0.71360   0.01267  Uiso   1.00
S95    S     0.25290   0.51026   0.62536   0.01267  Uiso   1.00
S96    S     0.49240   0.55023   0.70995   0.01267  Uiso   1.00
S97    S     0.40529   0.51838   0.62374   0.01267  Uiso   1.00
S98    S     0.56100   0.52520   0.62080   0.01267  Uiso   1.00
S99    S     0.32840   0.64068   0.76822   0.01267  Uiso   1.00
S100   S     0.24580   0.60783   0.68533   0.01267  Uiso   1.00
S101   S     0.40110   0.61419   0.68099   0.01267  Uiso   1.00
S102   S     0.31710   0.58519   0.59569   0.01267  Uiso   1.00
S103   S     0.55820   0.62197   0.67869   0.01267  Uiso   1.00
S104   S     0.46860   0.59178   0.59344   0.01267  Uiso   1.00
S105   S     0.86720   0.34994   0.14110   0.01267  Uiso   1.00
S106   S     0.86310   0.25467   0.08831   0.01267  Uiso   1.00
S107   S     0.94060   0.28515   0.17831   0.01267  Uiso   1.00
S108   S     0.02130   0.25279   0.09191   0.01267  Uiso   1.00
S109   S     0.58280   0.69408   0.11334   0.01267  Uiso   1.00
S110   S     0.63950   0.78153   0.10423   0.01267  Uiso   1.00
S111   S     0.54360   0.85443   0.10843   0.01267  Uiso   1.00
S112   S     0.43220   0.68182   0.12526   0.01267  Uiso   1.00
S113   S     0.33230   0.75747   0.12859   0.01267  Uiso   1.00
S114   S     0.48790   0.64615   0.76399   0.01267  Uiso   1.00
S115   S     0.83310   0.69627   0.19025   0.01267  Uiso   1.00
S116   S     0.03900   0.51677   0.12885   0.01267  Uiso   1.00
S117   S     0.77830   0.19025   0.11943   0.01267  Uiso   1.00
S118   S     0.85610   0.21929   0.20827   0.01267  Uiso   1.00
S119   S     0.78460   0.28880   0.17358   0.01267  Uiso   1.00
S120   S     0.85650   0.15773   0.03683   0.01267  Uiso   1.00
S121   S     0.93560   0.18685   0.12333   0.01267  Uiso   1.00
S122   S     0.00890   0.21488   0.21054   0.01267  Uiso   1.00
S123   S     0.94120   0.22443   0.00445   0.01267  Uiso   1.00
S124   S     0.01640   0.15647   0.03955   0.01267  Uiso   1.00
S125   S     0.09320   0.18529   0.12487   0.01267  Uiso   1.00
S126   S     0.95030   0.31873   0.05589   0.01267  Uiso   1.00
S127   S     0.09760   0.28272   0.18048   0.01267  Uiso   1.00
S128   S     0.02720   0.34851   0.14591   0.01267  Uiso   1.00
N1     N     0.10490   0.59290   0.59590   0.01267  Uiso   1.00
N2     N     0.67540   0.61050   0.57330   0.01267  Uiso   1.00
N3     N     0.91470   0.83760   0.66540   0.01267  Uiso   1.00
N4     N     0.93180   0.89000   0.69340   0.01267  Uiso   1.00
N5     N     0.22070   0.09380   0.71220   0.01267  Uiso   1.00
N6     N     0.29200   0.10910   0.69470   0.01267  Uiso   1.00
N7     N     0.79130   0.13110   0.67670   0.01267  Uiso   1.00
N8     N     0.71880   0.14940   0.66280   0.01267  Uiso   1.00
N9     N     0.44100   0.12260   0.45560   0.01267  Uiso   1.00
N10    N     0.44520   0.11100   0.40200   0.01267  Uiso   1.00
N11    N     0.43860   0.34770   0.67890   0.01267  Uiso   1.00
N12    N     0.92800   0.69110   0.40170   0.01267  Uiso   1.00
N13    N     0.94070   0.10640   0.91440   0.01267  Uiso   1.00
N14    N     0.43710   0.96500   0.13540   0.01267  Uiso   1.00
N15    N     0.21560   0.19800   0.22740   0.01267  Uiso   1.00
N16    N     0.18100   0.20590   0.20470   0.01267  Uiso   1.00
N17    N     0.60490   0.59590   0.59290   0.01267  Uiso   1.00
N18    N     0.17540   0.57330   0.61050   0.01267  Uiso   1.00
N19    N     0.41470   0.66540   0.83760   0.01267  Uiso   1.00
N20    N     0.43180   0.69340   0.89000   0.01267  Uiso   1.00
N21    N     0.72070   0.71220   0.09380   0.01267  Uiso   1.00
N22    N     0.79200   0.69470   0.10910   0.01267  Uiso   1.00
N23    N     0.29130   0.67670   0.13110   0.01267  Uiso   1.00
N24    N     0.21880   0.66280   0.14940   0.01267  Uiso   1.00
N25    N     0.94100   0.45560   0.12260   0.01267  Uiso   1.00
N26    N     0.94520   0.40200   0.11100   0.01267  Uiso   1.00
N27    N     0.93860   0.67890   0.34770   0.01267  Uiso   1.00
N28    N     0.42800   0.40170   0.69110   0.01267  Uiso   1.00
N29    N     0.44070   0.91440   0.10640   0.01267  Uiso   1.00
N30    N     0.93710   0.13540   0.96500   0.01267  Uiso   1.00
N31    N     0.71560   0.22740   0.19800   0.01267  Uiso   1.00
N32    N     0.68100   0.20470   0.20590   0.01267  Uiso   1.00
In81   In    0.54518   0.13946   0.90894   0.01267  Uiso   1.00
In82   In    0.55024   0.21168   0.98630   0.01267  Uiso   1.00
In83   In    0.60316   0.21712   0.89724   0.01267  Uiso   1.00
In84   In    0.44707   0.20485   0.90967   0.01267  Uiso   1.00
In85   In    0.55147   0.29036   0.05678   0.01267  Uiso   1.00
In86   In    0.60695   0.29976   0.97828   0.01267  Uiso   1.00
In87   In    0.64881   0.30076   0.89386   0.01267  Uiso   1.00
In88   In    0.45100   0.28780   0.99082   0.01267  Uiso   1.00
In89   In    0.50406   0.29267   0.90101   0.01267  Uiso   1.00
In90   In    0.36260   0.27821   0.91703   0.01267  Uiso   1.00
In91   In    0.05046   0.34234   0.70586   0.01267  Uiso   1.00
In92   In    0.10514   0.33064   0.78400   0.01267  Uiso   1.00
In93   In    0.05356   0.41961   0.77787   0.01267  Uiso   1.00
In94   In    0.94971   0.34230   0.76976   0.01267  Uiso   1.00
In95   In    0.14822   0.32822   0.86810   0.01267  Uiso   1.00
In96   In    0.10695   0.41249   0.86609   0.01267  Uiso   1.00
In97   In    0.05022   0.49067   0.85567   0.01267  Uiso   1.00
In98   In    0.00379   0.33519   0.85871   0.01267  Uiso   1.00
In99   In    0.95020   0.42367   0.85197   0.01267  Uiso   1.00
In100  In    0.86232   0.34942   0.84198   0.01267  Uiso   1.00
In101  In    0.58004   0.54858   0.31338   0.01267  Uiso   1.00
In102  In    0.58276   0.46186   0.25818   0.01267  Uiso   1.00
In103  In    0.66969   0.49525   0.34453   0.01267  Uiso   1.00
In104  In    0.51027   0.48788   0.34846   0.01267  Uiso   1.00
In105  In    0.58722   0.37138   0.21166   0.01267  Uiso   1.00
In106  In    0.67422   0.39795   0.28691   0.01267  Uiso   1.00
In107  In    0.74548   0.43114   0.36946   0.01267  Uiso   1.00
In108  In    0.51360   0.39132   0.29132   0.01267  Uiso   1.00
In109  In    0.60297   0.42279   0.37727   0.01267  Uiso   1.00
In110  In    0.45567   0.41751   0.37571   0.01267  Uiso   1.00
In111  In    0.21035   0.76843   0.82695   0.01267  Uiso   1.00
In112  In    0.13597   0.70513   0.85449   0.01267  Uiso   1.00
In113  In    0.14249   0.80337   0.90829   0.01267  Uiso   1.00
In114  In    0.06467   0.77317   0.81909   0.01267  Uiso   1.00
In115  In    0.05059   0.64912   0.88604   0.01267  Uiso   1.00
In116  In    0.05573   0.73684   0.94042   0.01267  Uiso   1.00
In117  In    0.97716   0.70696   0.85054   0.01267  Uiso   1.00
In118  In    0.98297   0.80528   0.90548   0.01267  Uiso   1.00
In119  In    0.06240   0.82857   0.98459   0.01267  Uiso   1.00
In120  In    0.91845   0.77442   0.82122   0.01267  Uiso   1.00
In121  In    0.04518   0.90894   0.13946   0.01267  Uiso   1.00
In122  In    0.05024   0.98630   0.21168   0.01267  Uiso   1.00
In123  In    0.10316   0.89724   0.21712   0.01267  Uiso   1.00
In124  In    0.94707   0.90967   0.20485   0.01267  Uiso   1.00
In125  In    0.05147   0.05678   0.29036   0.01267  Uiso   1.00
In126  In    0.10695   0.97828   0.29976   0.01267  Uiso   1.00
In127  In    0.14881   0.89386   0.30076   0.01267  Uiso   1.00
In128  In    0.95100   0.99082   0.28780   0.01267  Uiso   1.00
In129  In    0.00406   0.90101   0.29267   0.01267  Uiso   1.00
In130  In    0.86260   0.91703   0.27821   0.01267  Uiso   1.00
In131  In    0.55046   0.70586   0.34234   0.01267  Uiso   1.00
In132  In    0.60514   0.78400   0.33064   0.01267  Uiso   1.00
In133  In    0.55356   0.77787   0.41961   0.01267  Uiso   1.00
In134  In    0.44971   0.76976   0.34230   0.01267  Uiso   1.00
In135  In    0.64822   0.86810   0.32822   0.01267  Uiso   1.00
In136  In    0.60695   0.86609   0.41249   0.01267  Uiso   1.00
In137  In    0.55022   0.85567   0.49067   0.01267  Uiso   1.00
In138  In    0.50379   0.85871   0.33519   0.01267  Uiso   1.00
In139  In    0.45020   0.85197   0.42367   0.01267  Uiso   1.00
In140  In    0.36232   0.84198   0.34942   0.01267  Uiso   1.00
In141  In    0.08004   0.31338   0.54858   0.01267  Uiso   1.00
In142  In    0.08276   0.25818   0.46186   0.01267  Uiso   1.00
In143  In    0.16969   0.34453   0.49525   0.01267  Uiso   1.00
In144  In    0.01027   0.34846   0.48788   0.01267  Uiso   1.00
In145  In    0.08722   0.21166   0.37138   0.01267  Uiso   1.00
In146  In    0.17422   0.28691   0.39795   0.01267  Uiso   1.00
In147  In    0.24548   0.36946   0.43114   0.01267  Uiso   1.00
In148  In    0.01360   0.29132   0.39132   0.01267  Uiso   1.00
In149  In    0.10297   0.37727   0.42279   0.01267  Uiso   1.00
In150  In    0.95567   0.37571   0.41751   0.01267  Uiso   1.00
In151  In    0.71035   0.82695   0.76843   0.01267  Uiso   1.00
In152  In    0.63597   0.85449   0.70513   0.01267  Uiso   1.00
In153  In    0.64249   0.90829   0.80337   0.01267  Uiso   1.00
In154  In    0.56467   0.81909   0.77317   0.01267  Uiso   1.00
In155  In    0.55059   0.88604   0.64912   0.01267  Uiso   1.00
In156  In    0.55573   0.94042   0.73684   0.01267  Uiso   1.00
In157  In    0.47716   0.85054   0.70696   0.01267  Uiso   1.00
In158  In    0.48297   0.90548   0.80528   0.01267  Uiso   1.00
In159  In    0.56240   0.98459   0.82857   0.01267  Uiso   1.00
In160  In    0.41845   0.82122   0.77442   0.01267  Uiso   1.00
H67    H     0.43830   0.40130   0.44750   0.01267  Uiso   1.00
H68    H     0.86210   0.46840   0.38440   0.01267  Uiso   1.00
H69    H     0.33350   0.38990   0.35210   0.01267  Uiso   1.00
H70    H     0.30610   0.42300   0.37400   0.01267  Uiso   1.00
H71    H     0.28030   0.38750   0.37070   0.01267  Uiso   1.00
H72    H     0.59840   0.26500   0.11600   0.01267  Uiso   1.00
H73    H     0.62270   0.29790   0.17370   0.01267  Uiso   1.00
H74    H     0.49770   0.35620   0.12460   0.01267  Uiso   1.00
H75    H     0.53640   0.38040   0.15140   0.01267  Uiso   1.00
H76    H     0.54990   0.37020   0.11280   0.01267  Uiso   1.00
H77    H     0.16310   0.28450   0.91510   0.01267  Uiso   1.00
H78    H     0.24520   0.26500   0.93740   0.01267  Uiso   1.00
H79    H     0.32180   0.31250   0.86330   0.01267  Uiso   1.00
H80    H     0.26710   0.31610   0.84590   0.01267  Uiso   1.00
H81    H     0.28770   0.34510   0.87770   0.01267  Uiso   1.00
H82    H     0.74840   0.35280   0.81760   0.01267  Uiso   1.00
H83    H     0.66650   0.34170   0.83870   0.01267  Uiso   1.00
H84    H     0.77270   0.29340   0.89600   0.01267  Uiso   1.00
H85    H     0.82320   0.31330   0.88970   0.01267  Uiso   1.00
H86    H     0.78190   0.33150   0.91710   0.01267  Uiso   1.00
H87    H     0.09590   0.54670   0.92310   0.01267  Uiso   1.00
H88    H     0.08460   0.60700   0.93680   0.01267  Uiso   1.00
H89    H     0.98320   0.55690   0.83410   0.01267  Uiso   1.00
H90    H     0.02080   0.58560   0.82940   0.01267  Uiso   1.00
H91    H     0.03890   0.54790   0.81710   0.01267  Uiso   1.00
H92    H     0.58230   0.59250   0.25970   0.01267  Uiso   1.00
H93    H     0.06820   0.27280   0.65120   0.01267  Uiso   1.00
H94    H     0.57760   0.65100   0.38100   0.01267  Uiso   1.00
H95    H     0.57630   0.61150   0.37310   0.01267  Uiso   1.00
H96    H     0.52290   0.63110   0.37450   0.01267  Uiso   1.00
H97    H     0.11700   0.89160   0.02160   0.01267  Uiso   1.00
H98    H     0.60350   0.08130   0.93330   0.01267  Uiso   1.00
H99    H     0.32910   0.73060   0.80480   0.01267  Uiso   1.00
H100   H     0.93830   0.44750   0.40130   0.01267  Uiso   1.00
H101   H     0.36210   0.38440   0.46840   0.01267  Uiso   1.00
H102   H     0.83350   0.35210   0.38990   0.01267  Uiso   1.00
H103   H     0.80610   0.37400   0.42300   0.01267  Uiso   1.00
H104   H     0.78030   0.37070   0.38750   0.01267  Uiso   1.00
H105   H     0.09840   0.11600   0.26500   0.01267  Uiso   1.00
H106   H     0.12270   0.17370   0.29790   0.01267  Uiso   1.00
H107   H     0.99770   0.12460   0.35620   0.01267  Uiso   1.00
H108   H     0.03640   0.15140   0.38040   0.01267  Uiso   1.00
H109   H     0.04990   0.11280   0.37020   0.01267  Uiso   1.00
H110   H     0.66310   0.91510   0.28450   0.01267  Uiso   1.00
H111   H     0.74520   0.93740   0.26500   0.01267  Uiso   1.00
H112   H     0.82180   0.86330   0.31250   0.01267  Uiso   1.00
H113   H     0.76710   0.84590   0.31610   0.01267  Uiso   1.00
H114   H     0.78770   0.87770   0.34510   0.01267  Uiso   1.00
H115   H     0.24840   0.81760   0.35280   0.01267  Uiso   1.00
H116   H     0.16650   0.83870   0.34170   0.01267  Uiso   1.00
H117   H     0.27270   0.89600   0.29340   0.01267  Uiso   1.00
H118   H     0.32320   0.88970   0.31330   0.01267  Uiso   1.00
H119   H     0.28190   0.91710   0.33150   0.01267  Uiso   1.00
H120   H     0.59590   0.92310   0.54670   0.01267  Uiso   1.00
H121   H     0.58460   0.93680   0.60700   0.01267  Uiso   1.00
H122   H     0.48320   0.83410   0.55690   0.01267  Uiso   1.00
H123   H     0.52080   0.82940   0.58560   0.01267  Uiso   1.00
H124   H     0.53890   0.81710   0.54790   0.01267  Uiso   1.00
H125   H     0.08230   0.25970   0.59250   0.01267  Uiso   1.00
H126   H     0.56820   0.65120   0.27280   0.01267  Uiso   1.00
H127   H     0.07760   0.38100   0.65100   0.01267  Uiso   1.00
H128   H     0.07630   0.37310   0.61150   0.01267  Uiso   1.00
H129   H     0.02290   0.37450   0.63110   0.01267  Uiso   1.00
H130   H     0.61700   0.02160   0.89160   0.01267  Uiso   1.00
H131   H     0.10350   0.93330   0.08130   0.01267  Uiso   1.00
H132   H     0.82910   0.80480   0.73060   0.01267  Uiso   1.00
C61    C     0.34420   0.39830   0.40210   0.01267  Uiso   1.00
C62    C     0.40490   0.39870   0.43690   0.01267  Uiso   1.00
C63    C     0.86460   0.44830   0.38990   0.01267  Uiso   1.00
C64    C     0.31340   0.39990   0.37210   0.01267  Uiso   1.00
C65    C     0.56250   0.33420   0.13340   0.01267  Uiso   1.00
C66    C     0.59140   0.28790   0.12570   0.01267  Uiso   1.00
C67    C     0.60400   0.30560   0.15800   0.01267  Uiso   1.00
C68    C     0.53430   0.36250   0.13030   0.01267  Uiso   1.00
C69    C     0.25920   0.30510   0.88890   0.01267  Uiso   1.00
C70    C     0.19770   0.28880   0.90960   0.01267  Uiso   1.00
C71    C     0.24250   0.27720   0.92200   0.01267  Uiso   1.00
C72    C     0.28620   0.32100   0.86720   0.01267  Uiso   1.00
C73    C     0.75770   0.32500   0.87100   0.01267  Uiso   1.00
C74    C     0.74470   0.34370   0.83550   0.01267  Uiso   1.00
C75    C     0.69980   0.33720   0.84620   0.01267  Uiso   1.00
C76    C     0.78610   0.31510   0.89530   0.01267  Uiso   1.00
C77    C     0.04400   0.56840   0.86720   0.01267  Uiso   1.00
C78    C     0.08070   0.55820   0.90940   0.01267  Uiso   1.00
C79    C     0.07550   0.59100   0.91620   0.01267  Uiso   1.00
C80    C     0.01970   0.56440   0.83420   0.01267  Uiso   1.00
C81    C     0.56350   0.62650   0.33210   0.01267  Uiso   1.00
C82    C     0.57560   0.60710   0.28110   0.01267  Uiso   1.00
C83    C     0.06800   0.28850   0.63910   0.01267  Uiso   1.00
C84    C     0.55980   0.63030   0.36830   0.01267  Uiso   1.00
C85    C     0.53700   0.06450   0.86010   0.01267  Uiso   1.00
C86    C     0.09400   0.88880   0.03820   0.01267  Uiso   1.00
C87    C     0.58900   0.07200   0.91160   0.01267  Uiso   1.00
C88    C     0.28100   0.82250   0.79010   0.01267  Uiso   1.00
C89    C     0.32300   0.75100   0.80040   0.01267  Uiso   1.00
C90    C     0.85740   0.78460   0.78180   0.01267  Uiso   1.00
C91    C     0.84420   0.40210   0.39830   0.01267  Uiso   1.00
C92    C     0.90490   0.43690   0.39870   0.01267  Uiso   1.00
C93    C     0.36460   0.38990   0.44830   0.01267  Uiso   1.00
C94    C     0.81340   0.37210   0.39990   0.01267  Uiso   1.00
C95    C     0.06250   0.13340   0.33420   0.01267  Uiso   1.00
C96    C     0.09140   0.12570   0.28790   0.01267  Uiso   1.00
C97    C     0.10400   0.15800   0.30560   0.01267  Uiso   1.00
C98    C     0.03430   0.13030   0.36250   0.01267  Uiso   1.00
C99    C     0.75920   0.88890   0.30510   0.01267  Uiso   1.00
C100   C     0.69770   0.90960   0.28880   0.01267  Uiso   1.00
C101   C     0.74250   0.92200   0.27720   0.01267  Uiso   1.00
C102   C     0.78620   0.86720   0.32100   0.01267  Uiso   1.00
C103   C     0.25770   0.87100   0.32500   0.01267  Uiso   1.00
C104   C     0.24470   0.83550   0.34370   0.01267  Uiso   1.00
C105   C     0.19980   0.84620   0.33720   0.01267  Uiso   1.00
C106   C     0.28610   0.89530   0.31510   0.01267  Uiso   1.00
C107   C     0.54400   0.86720   0.56840   0.01267  Uiso   1.00
C108   C     0.58070   0.90940   0.55820   0.01267  Uiso   1.00
C109   C     0.57550   0.91620   0.59100   0.01267  Uiso   1.00
C110   C     0.51970   0.83420   0.56440   0.01267  Uiso   1.00
C111   C     0.06350   0.33210   0.62650   0.01267  Uiso   1.00
C112   C     0.07560   0.28110   0.60710   0.01267  Uiso   1.00
C113   C     0.56800   0.63910   0.28850   0.01267  Uiso   1.00
C114   C     0.05980   0.36830   0.63030   0.01267  Uiso   1.00
C115   C     0.03700   0.86010   0.06450   0.01267  Uiso   1.00
C116   C     0.59400   0.03820   0.88880   0.01267  Uiso   1.00
C117   C     0.08900   0.91160   0.07200   0.01267  Uiso   1.00
C118   C     0.78100   0.79010   0.82250   0.01267  Uiso   1.00
C119   C     0.82300   0.80040   0.75100   0.01267  Uiso   1.00
C120   C     0.35740   0.78180   0.78460   0.01267  Uiso   1.00
S129   S     0.56070   0.15239   0.96807   0.01267  Uiso   1.00
S130   S     0.61280   0.15788   0.87818   0.01267  Uiso   1.00
S131   S     0.56200   0.23121   0.04561   0.01267  Uiso   1.00
S132   S     0.61660   0.23810   0.95876   0.01267  Uiso   1.00
S133   S     0.46090   0.22635   0.97131   0.01267  Uiso   1.00
S134   S     0.51330   0.23131   0.88209   0.01267  Uiso   1.00
S135   S     0.61920   0.32017   0.03725   0.01267  Uiso   1.00
S136   S     0.67070   0.32552   0.95200   0.01267  Uiso   1.00
S137   S     0.46340   0.30805   0.05013   0.01267  Uiso   1.00
S138   S     0.51700   0.31378   0.96270   0.01267  Uiso   1.00
S139   S     0.36440   0.30166   0.97644   0.01267  Uiso   1.00
S140   S     0.11820   0.31272   0.72514   0.01267  Uiso   1.00
S141   S     0.06710   0.40122   0.71858   0.01267  Uiso   1.00
S142   S     0.96140   0.32396   0.71042   0.01267  Uiso   1.00
S143   S     0.11890   0.39233   0.80463   0.01267  Uiso   1.00
S144   S     0.06470   0.47917   0.79679   0.01267  Uiso   1.00
S145   S     0.01520   0.31554   0.79742   0.01267  Uiso   1.00
S146   S     0.96380   0.40399   0.79065   0.01267  Uiso   1.00
S147   S     0.86230   0.32853   0.78179   0.01267  Uiso   1.00
S148   S     0.17080   0.38651   0.89177   0.01267  Uiso   1.00
S149   S     0.11820   0.47185   0.88573   0.01267  Uiso   1.00
S150   S     0.06740   0.31003   0.88603   0.01267  Uiso   1.00
S151   S     0.01640   0.39688   0.87904   0.01267  Uiso   1.00
S152   S     0.91710   0.32053   0.87103   0.01267  Uiso   1.00
S153   S     0.86310   0.40927   0.86461   0.01267  Uiso   1.00
S154   S     0.57830   0.51770   0.25490   0.01267  Uiso   1.00
S155   S     0.66480   0.55075   0.34073   0.01267  Uiso   1.00
S156   S     0.50450   0.54356   0.34512   0.01267  Uiso   1.00
S157   S     0.58180   0.42479   0.20239   0.01267  Uiso   1.00
S158   S     0.66720   0.45666   0.28640   0.01267  Uiso   1.00
S159   S     0.74710   0.48974   0.37464   0.01267  Uiso   1.00
S160   S     0.50760   0.44977   0.29005   0.01267  Uiso   1.00
S161   S     0.59471   0.48162   0.37626   0.01267  Uiso   1.00
S162   S     0.43900   0.47480   0.37920   0.01267  Uiso   1.00
S163   S     0.67160   0.35932   0.23178   0.01267  Uiso   1.00
S164   S     0.75420   0.39217   0.31467   0.01267  Uiso   1.00
S165   S     0.59890   0.38581   0.31901   0.01267  Uiso   1.00
S166   S     0.68290   0.41481   0.40431   0.01267  Uiso   1.00
S167   S     0.44180   0.37803   0.32131   0.01267  Uiso   1.00
S168   S     0.53140   0.40822   0.40656   0.01267  Uiso   1.00
S169   S     0.13280   0.65006   0.85890   0.01267  Uiso   1.00
S170   S     0.13690   0.74533   0.91169   0.01267  Uiso   1.00
S171   S     0.05940   0.71485   0.82169   0.01267  Uiso   1.00
S172   S     0.97870   0.74721   0.90809   0.01267  Uiso   1.00
S173   S     0.41720   0.30592   0.88666   0.01267  Uiso   1.00
S174   S     0.36050   0.21847   0.89577   0.01267  Uiso   1.00
S175   S     0.45640   0.14557   0.89157   0.01267  Uiso   1.00
S176   S     0.56780   0.31818   0.87474   0.01267  Uiso   1.00
S177   S     0.66770   0.24253   0.87141   0.01267  Uiso   1.00
S178   S     0.51210   0.35385   0.23601   0.01267  Uiso   1.00
S179   S     0.16690   0.30373   0.80975   0.01267  Uiso   1.00
S180   S     0.96100   0.48323   0.87115   0.01267  Uiso   1.00
S181   S     0.22170   0.80975   0.88057   0.01267  Uiso   1.00
S182   S     0.14390   0.78071   0.79173   0.01267  Uiso   1.00
S183   S     0.21540   0.71120   0.82642   0.01267  Uiso   1.00
S184   S     0.14350   0.84227   0.96317   0.01267  Uiso   1.00
S185   S     0.06440   0.81315   0.87667   0.01267  Uiso   1.00
S186   S     0.99110   0.78512   0.78946   0.01267  Uiso   1.00
S187   S     0.05880   0.77557   0.99555   0.01267  Uiso   1.00
S188   S     0.98360   0.84353   0.96045   0.01267  Uiso   1.00
S189   S     0.90680   0.81471   0.87513   0.01267  Uiso   1.00
S190   S     0.04970   0.68127   0.94411   0.01267  Uiso   1.00
S191   S     0.90240   0.71728   0.81952   0.01267  Uiso   1.00
S192   S     0.97280   0.65149   0.85409   0.01267  Uiso   1.00
S193   S     0.06070   0.96807   0.15239   0.01267  Uiso   1.00
S194   S     0.11280   0.87818   0.15788   0.01267  Uiso   1.00
S195   S     0.06200   0.04561   0.23121   0.01267  Uiso   1.00
S196   S     0.11660   0.95876   0.23810   0.01267  Uiso   1.00
S197   S     0.96090   0.97131   0.22635   0.01267  Uiso   1.00
S198   S     0.01330   0.88209   0.23131   0.01267  Uiso   1.00
S199   S     0.11920   0.03725   0.32017   0.01267  Uiso   1.00
S200   S     0.17070   0.95200   0.32552   0.01267  Uiso   1.00
S201   S     0.96340   0.05013   0.30805   0.01267  Uiso   1.00
S202   S     0.01700   0.96270   0.31378   0.01267  Uiso   1.00
S203   S     0.86440   0.97644   0.30166   0.01267  Uiso   1.00
S204   S     0.61820   0.72514   0.31272   0.01267  Uiso   1.00
S205   S     0.56710   0.71858   0.40122   0.01267  Uiso   1.00
S206   S     0.46140   0.71042   0.32396   0.01267  Uiso   1.00
S207   S     0.61890   0.80463   0.39233   0.01267  Uiso   1.00
S208   S     0.56470   0.79679   0.47917   0.01267  Uiso   1.00
S209   S     0.51520   0.79742   0.31554   0.01267  Uiso   1.00
S210   S     0.46380   0.79065   0.40399   0.01267  Uiso   1.00
S211   S     0.36230   0.78179   0.32853   0.01267  Uiso   1.00
S212   S     0.67080   0.89177   0.38651   0.01267  Uiso   1.00
S213   S     0.61820   0.88573   0.47185   0.01267  Uiso   1.00
S214   S     0.56740   0.88603   0.31003   0.01267  Uiso   1.00
S215   S     0.51640   0.87904   0.39688   0.01267  Uiso   1.00
S216   S     0.41710   0.87103   0.32053   0.01267  Uiso   1.00
S217   S     0.36310   0.86461   0.40927   0.01267  Uiso   1.00
S218   S     0.07830   0.25490   0.51770   0.01267  Uiso   1.00
S219   S     0.16480   0.34073   0.55075   0.01267  Uiso   1.00
S220   S     0.00450   0.34512   0.54356   0.01267  Uiso   1.00
S221   S     0.08180   0.20239   0.42479   0.01267  Uiso   1.00
S222   S     0.16720   0.28640   0.45666   0.01267  Uiso   1.00
S223   S     0.24710   0.37464   0.48974   0.01267  Uiso   1.00
S224   S     0.00760   0.29005   0.44977   0.01267  Uiso   1.00
S225   S     0.09471   0.37626   0.48162   0.01267  Uiso   1.00
S226   S     0.93900   0.37920   0.47480   0.01267  Uiso   1.00
S227   S     0.17160   0.23178   0.35932   0.01267  Uiso   1.00
S228   S     0.25420   0.31467   0.39217   0.01267  Uiso   1.00
S229   S     0.09890   0.31901   0.38581   0.01267  Uiso   1.00
S230   S     0.18290   0.40431   0.41481   0.01267  Uiso   1.00
S231   S     0.94180   0.32131   0.37803   0.01267  Uiso   1.00
S232   S     0.03140   0.40656   0.40822   0.01267  Uiso   1.00
S233   S     0.63280   0.85890   0.65006   0.01267  Uiso   1.00
S234   S     0.63690   0.91169   0.74533   0.01267  Uiso   1.00
S235   S     0.55940   0.82169   0.71485   0.01267  Uiso   1.00
S236   S     0.47870   0.90809   0.74721   0.01267  Uiso   1.00
S237   S     0.91720   0.88666   0.30592   0.01267  Uiso   1.00
S238   S     0.86050   0.89577   0.21847   0.01267  Uiso   1.00
S239   S     0.95640   0.89157   0.14557   0.01267  Uiso   1.00
S240   S     0.06780   0.87474   0.31818   0.01267  Uiso   1.00
S241   S     0.16770   0.87141   0.24253   0.01267  Uiso   1.00
S242   S     0.01210   0.23601   0.35385   0.01267  Uiso   1.00
S243   S     0.66690   0.80975   0.30373   0.01267  Uiso   1.00
S244   S     0.46100   0.87115   0.48323   0.01267  Uiso   1.00
S245   S     0.72170   0.88057   0.80975   0.01267  Uiso   1.00
S246   S     0.64390   0.79173   0.78071   0.01267  Uiso   1.00
S247   S     0.71540   0.82642   0.71120   0.01267  Uiso   1.00
S248   S     0.64350   0.96317   0.84227   0.01267  Uiso   1.00
S249   S     0.56440   0.87667   0.81315   0.01267  Uiso   1.00
S250   S     0.49110   0.78946   0.78512   0.01267  Uiso   1.00
S251   S     0.55880   0.99555   0.77557   0.01267  Uiso   1.00
S252   S     0.48360   0.96045   0.84353   0.01267  Uiso   1.00
S253   S     0.40680   0.87513   0.81471   0.01267  Uiso   1.00
S254   S     0.54970   0.94411   0.68127   0.01267  Uiso   1.00
S255   S     0.40240   0.81952   0.71728   0.01267  Uiso   1.00
S256   S     0.47280   0.85409   0.65149   0.01267  Uiso   1.00
N33    N     0.39510   0.40410   0.40710   0.01267  Uiso   1.00
N34    N     0.82460   0.42670   0.38950   0.01267  Uiso   1.00
N35    N     0.58530   0.33460   0.16240   0.01267  Uiso   1.00
N36    N     0.56820   0.30660   0.11000   0.01267  Uiso   1.00
N37    N     0.27930   0.28780   0.90620   0.01267  Uiso   1.00
N38    N     0.20800   0.30530   0.89090   0.01267  Uiso   1.00
N39    N     0.70870   0.32330   0.86890   0.01267  Uiso   1.00
N40    N     0.78120   0.33720   0.85060   0.01267  Uiso   1.00
N41    N     0.05900   0.54440   0.87740   0.01267  Uiso   1.00
N42    N     0.05480   0.59800   0.88900   0.01267  Uiso   1.00
N43    N     0.06140   0.32110   0.65230   0.01267  Uiso   1.00
N44    N     0.57200   0.59830   0.30890   0.01267  Uiso   1.00
N45    N     0.55930   0.08560   0.89360   0.01267  Uiso   1.00
N46    N     0.06290   0.86460   0.03500   0.01267  Uiso   1.00
N47    N     0.28440   0.77260   0.80200   0.01267  Uiso   1.00
N48    N     0.31900   0.79530   0.79410   0.01267  Uiso   1.00
N49    N     0.89510   0.40710   0.40410   0.01267  Uiso   1.00
N50    N     0.32460   0.38950   0.42670   0.01267  Uiso   1.00
N51    N     0.08530   0.16240   0.33460   0.01267  Uiso   1.00
N52    N     0.06820   0.11000   0.30660   0.01267  Uiso   1.00
N53    N     0.77930   0.90620   0.28780   0.01267  Uiso   1.00
N54    N     0.70800   0.89090   0.30530   0.01267  Uiso   1.00
N55    N     0.20870   0.86890   0.32330   0.01267  Uiso   1.00
N56    N     0.28120   0.85060   0.33720   0.01267  Uiso   1.00
N57    N     0.55900   0.87740   0.54440   0.01267  Uiso   1.00
N58    N     0.55480   0.88900   0.59800   0.01267  Uiso   1.00
N59    N     0.56140   0.65230   0.32110   0.01267  Uiso   1.00
N60    N     0.07200   0.30890   0.59830   0.01267  Uiso   1.00
N61    N     0.05930   0.89360   0.08560   0.01267  Uiso   1.00
N62    N     0.56290   0.03500   0.86460   0.01267  Uiso   1.00
N63    N     0.78440   0.80200   0.77260   0.01267  Uiso   1.00
N64    N     0.81900   0.79410   0.79530   0.01267  Uiso   1.00
