data_image0
_cell_length_a       16.2326
_cell_length_b       33.0024
_cell_length_c       35.7503
_cell_angle_alpha    90
_cell_angle_beta     90
_cell_angle_gamma    90

_symmetry_space_group_name_H-M    "P 1"
_symmetry_int_tables_number       1

loop_
  _symmetry_equiv_pos_as_xyz
  'x, y, z'

loop_
  _atom_site_label
  _atom_site_occupancy
  _atom_site_fract_x
  _atom_site_fract_y
  _atom_site_fract_z
  _atom_site_thermal_displace_type
  _atom_site_B_iso_or_equiv
  _atom_site_type_symbol
  O1       1.0000 0.41790  0.46001  0.40106  Biso   1.000  O
  C1       1.0000 0.37040  0.43131  0.41018  Biso   1.000  C
  O2       1.0000 0.34770  0.42257  0.44291  Biso   1.000  O
  C2       1.0000 0.34120  0.40596  0.37800  Biso   1.000  C
  C3       1.0000 0.29090  0.37300  0.38276  Biso   1.000  C
  C4       1.0000 0.37030  0.41577  0.34228  Biso   1.000  C
  H1       1.0000 0.27220  0.36600  0.40710  Biso   1.000  H
  C5       1.0000 0.26710  0.34964  0.35212  Biso   1.000  C
  C6       1.0000 0.34590  0.39266  0.31219  Biso   1.000  C
  H2       1.0000 0.40640  0.43810  0.33880  Biso   1.000  H
  H3       1.0000 0.23150  0.32710  0.35550  Biso   1.000  H
  C7       1.0000 0.29550  0.35957  0.31647  Biso   1.000  C
  H4       1.0000 0.36440  0.39980  0.28790  Biso   1.000  H
  C8       1.0000 0.26980  0.33590  0.28273  Biso   1.000  C
  C9       1.0000 0.26910  0.29397  0.28258  Biso   1.000  C
  H5       1.0000 0.28180  0.27960  0.30490  Biso   1.000  H
  O3       1.0000 0.41790  0.96001  0.90106  Biso   1.000  O
  C10      1.0000 0.37040  0.93131  0.91018  Biso   1.000  C
  O4       1.0000 0.34770  0.92257  0.94291  Biso   1.000  O
  C11      1.0000 0.34120  0.90596  0.87800  Biso   1.000  C
  C12      1.0000 0.29090  0.87300  0.88276  Biso   1.000  C
  C13      1.0000 0.37030  0.91577  0.84228  Biso   1.000  C
  H6       1.0000 0.27220  0.86600  0.90710  Biso   1.000  H
  C14      1.0000 0.26710  0.84964  0.85212  Biso   1.000  C
  C15      1.0000 0.34590  0.89266  0.81219  Biso   1.000  C
  H7       1.0000 0.40640  0.93810  0.83880  Biso   1.000  H
  H8       1.0000 0.23150  0.82710  0.85550  Biso   1.000  H
  C16      1.0000 0.29550  0.85957  0.81647  Biso   1.000  C
  H9       1.0000 0.36440  0.89980  0.78790  Biso   1.000  H
  C17      1.0000 0.26980  0.83590  0.78273  Biso   1.000  C
  C18      1.0000 0.26910  0.79397  0.78258  Biso   1.000  C
  H10      1.0000 0.28180  0.77960  0.80490  Biso   1.000  H
  O5       1.0000 0.91790  0.46001  0.90106  Biso   1.000  O
  C19      1.0000 0.87040  0.43131  0.91018  Biso   1.000  C
  O6       1.0000 0.84770  0.42257  0.94291  Biso   1.000  O
  C20      1.0000 0.84120  0.40596  0.87800  Biso   1.000  C
  C21      1.0000 0.79090  0.37300  0.88276  Biso   1.000  C
  C22      1.0000 0.87030  0.41577  0.84228  Biso   1.000  C
  H11      1.0000 0.77220  0.36600  0.90710  Biso   1.000  H
  C23      1.0000 0.76710  0.34964  0.85212  Biso   1.000  C
  C24      1.0000 0.84590  0.39266  0.81219  Biso   1.000  C
  H12      1.0000 0.90640  0.43810  0.83880  Biso   1.000  H
  H13      1.0000 0.73150  0.32710  0.85550  Biso   1.000  H
  C25      1.0000 0.79550  0.35957  0.81647  Biso   1.000  C
  H14      1.0000 0.86440  0.39980  0.78790  Biso   1.000  H
  C26      1.0000 0.76980  0.33590  0.78273  Biso   1.000  C
  C27      1.0000 0.76910  0.29397  0.78258  Biso   1.000  C
  H15      1.0000 0.78180  0.27960  0.80490  Biso   1.000  H
  O7       1.0000 0.91790  0.96001  0.40106  Biso   1.000  O
  C28      1.0000 0.87040  0.93131  0.41018  Biso   1.000  C
  O8       1.0000 0.84770  0.92257  0.44291  Biso   1.000  O
  C29      1.0000 0.84120  0.90596  0.37800  Biso   1.000  C
  C30      1.0000 0.79090  0.87300  0.38276  Biso   1.000  C
  C31      1.0000 0.87030  0.91577  0.34228  Biso   1.000  C
  H16      1.0000 0.77220  0.86600  0.40710  Biso   1.000  H
  C32      1.0000 0.76710  0.84964  0.35212  Biso   1.000  C
  C33      1.0000 0.84590  0.89266  0.31219  Biso   1.000  C
  H17      1.0000 0.90640  0.93810  0.33880  Biso   1.000  H
  H18      1.0000 0.73150  0.82710  0.35550  Biso   1.000  H
  C34      1.0000 0.79550  0.85957  0.31647  Biso   1.000  C
  H19      1.0000 0.86440  0.89980  0.28790  Biso   1.000  H
  C35      1.0000 0.76980  0.83590  0.28273  Biso   1.000  C
  C36      1.0000 0.76910  0.79397  0.28258  Biso   1.000  C
  H20      1.0000 0.78180  0.77960  0.30490  Biso   1.000  H
  O9       1.0000 0.58210  0.53999  0.40106  Biso   1.000  O
  C37      1.0000 0.62960  0.56869  0.41018  Biso   1.000  C
  O10      1.0000 0.65230  0.57743  0.44291  Biso   1.000  O
  C38      1.0000 0.65880  0.59404  0.37800  Biso   1.000  C
  C39      1.0000 0.70910  0.62700  0.38276  Biso   1.000  C
  C40      1.0000 0.62970  0.58423  0.34228  Biso   1.000  C
  H21      1.0000 0.72780  0.63400  0.40710  Biso   1.000  H
  C41      1.0000 0.73290  0.65036  0.35212  Biso   1.000  C
  C42      1.0000 0.65410  0.60734  0.31219  Biso   1.000  C
  H22      1.0000 0.59360  0.56190  0.33880  Biso   1.000  H
  H23      1.0000 0.76850  0.67290  0.35550  Biso   1.000  H
  C43      1.0000 0.70450  0.64043  0.31647  Biso   1.000  C
  H24      1.0000 0.63560  0.60020  0.28790  Biso   1.000  H
  C44      1.0000 0.73020  0.66410  0.28273  Biso   1.000  C
  C45      1.0000 0.73090  0.70603  0.28258  Biso   1.000  C
  H25      1.0000 0.71820  0.72040  0.30490  Biso   1.000  H
  O11      1.0000 0.58210  0.03999  0.90106  Biso   1.000  O
  C46      1.0000 0.62960  0.06869  0.91018  Biso   1.000  C
  O12      1.0000 0.65230  0.07743  0.94291  Biso   1.000  O
  C47      1.0000 0.65880  0.09404  0.87800  Biso   1.000  C
  C48      1.0000 0.70910  0.12700  0.88276  Biso   1.000  C
  C49      1.0000 0.62970  0.08423  0.84228  Biso   1.000  C
  H26      1.0000 0.72780  0.13400  0.90710  Biso   1.000  H
  C50      1.0000 0.73290  0.15036  0.85212  Biso   1.000  C
  C51      1.0000 0.65410  0.10734  0.81219  Biso   1.000  C
  H27      1.0000 0.59360  0.06190  0.83880  Biso   1.000  H
  H28      1.0000 0.76850  0.17290  0.85550  Biso   1.000  H
  C52      1.0000 0.70450  0.14043  0.81647  Biso   1.000  C
  H29      1.0000 0.63560  0.10020  0.78790  Biso   1.000  H
  C53      1.0000 0.73020  0.16410  0.78273  Biso   1.000  C
  C54      1.0000 0.73090  0.20603  0.78258  Biso   1.000  C
  H30      1.0000 0.71820  0.22040  0.80490  Biso   1.000  H
  O13      1.0000 0.08210  0.53999  0.90106  Biso   1.000  O
  C55      1.0000 0.12960  0.56869  0.91018  Biso   1.000  C
  O14      1.0000 0.15230  0.57743  0.94291  Biso   1.000  O
  C56      1.0000 0.15880  0.59404  0.87800  Biso   1.000  C
  C57      1.0000 0.20910  0.62700  0.88276  Biso   1.000  C
  C58      1.0000 0.12970  0.58423  0.84228  Biso   1.000  C
  H31      1.0000 0.22780  0.63400  0.90710  Biso   1.000  H
  C59      1.0000 0.23290  0.65036  0.85212  Biso   1.000  C
  C60      1.0000 0.15410  0.60734  0.81219  Biso   1.000  C
  H32      1.0000 0.09360  0.56190  0.83880  Biso   1.000  H
  H33      1.0000 0.26850  0.67290  0.85550  Biso   1.000  H
  C61      1.0000 0.20450  0.64043  0.81647  Biso   1.000  C
  H34      1.0000 0.13560  0.60020  0.78790  Biso   1.000  H
  C62      1.0000 0.23020  0.66410  0.78273  Biso   1.000  C
  C63      1.0000 0.23090  0.70603  0.78258  Biso   1.000  C
  H35      1.0000 0.21820  0.72040  0.80490  Biso   1.000  H
  O15      1.0000 0.08210  0.03999  0.40106  Biso   1.000  O
  C64      1.0000 0.12960  0.06869  0.41018  Biso   1.000  C
  O16      1.0000 0.15230  0.07743  0.44291  Biso   1.000  O
  C65      1.0000 0.15880  0.09404  0.37800  Biso   1.000  C
  C66      1.0000 0.20910  0.12700  0.38276  Biso   1.000  C
  C67      1.0000 0.12970  0.08423  0.34228  Biso   1.000  C
  H36      1.0000 0.22780  0.13400  0.40710  Biso   1.000  H
  C68      1.0000 0.23290  0.15036  0.35212  Biso   1.000  C
  C69      1.0000 0.15410  0.10734  0.31219  Biso   1.000  C
  H37      1.0000 0.09360  0.06190  0.33880  Biso   1.000  H
  H38      1.0000 0.26850  0.17290  0.35550  Biso   1.000  H
  C70      1.0000 0.20450  0.14043  0.31647  Biso   1.000  C
  H39      1.0000 0.13560  0.10020  0.28790  Biso   1.000  H
  C71      1.0000 0.23020  0.16410  0.28273  Biso   1.000  C
  C72      1.0000 0.23090  0.20603  0.28258  Biso   1.000  C
  H40      1.0000 0.21820  0.22040  0.30490  Biso   1.000  H
  O17      1.0000 0.58210  0.46001  0.59894  Biso   1.000  O
  C73      1.0000 0.62960  0.43131  0.58982  Biso   1.000  C
  O18      1.0000 0.65230  0.42257  0.55709  Biso   1.000  O
  C74      1.0000 0.65880  0.40596  0.62200  Biso   1.000  C
  C75      1.0000 0.70910  0.37300  0.61724  Biso   1.000  C
  C76      1.0000 0.62970  0.41577  0.65772  Biso   1.000  C
  H41      1.0000 0.72780  0.36600  0.59290  Biso   1.000  H
  C77      1.0000 0.73290  0.34964  0.64788  Biso   1.000  C
  C78      1.0000 0.65410  0.39266  0.68781  Biso   1.000  C
  H42      1.0000 0.59360  0.43810  0.66120  Biso   1.000  H
  H43      1.0000 0.76850  0.32710  0.64450  Biso   1.000  H
  C79      1.0000 0.70450  0.35957  0.68353  Biso   1.000  C
  H44      1.0000 0.63560  0.39980  0.71210  Biso   1.000  H
  C80      1.0000 0.73020  0.33590  0.71727  Biso   1.000  C
  C81      1.0000 0.73090  0.29397  0.71742  Biso   1.000  C
  H45      1.0000 0.71820  0.27960  0.69510  Biso   1.000  H
  O19      1.0000 0.58210  0.96001  0.09894  Biso   1.000  O
  C82      1.0000 0.62960  0.93131  0.08982  Biso   1.000  C
  O20      1.0000 0.65230  0.92257  0.05709  Biso   1.000  O
  C83      1.0000 0.65880  0.90596  0.12200  Biso   1.000  C
  C84      1.0000 0.70910  0.87300  0.11724  Biso   1.000  C
  C85      1.0000 0.62970  0.91577  0.15772  Biso   1.000  C
  H46      1.0000 0.72780  0.86600  0.09290  Biso   1.000  H
  C86      1.0000 0.73290  0.84964  0.14788  Biso   1.000  C
  C87      1.0000 0.65410  0.89266  0.18781  Biso   1.000  C
  H47      1.0000 0.59360  0.93810  0.16120  Biso   1.000  H
  H48      1.0000 0.76850  0.82710  0.14450  Biso   1.000  H
  C88      1.0000 0.70450  0.85957  0.18353  Biso   1.000  C
  H49      1.0000 0.63560  0.89980  0.21210  Biso   1.000  H
  C89      1.0000 0.73020  0.83590  0.21727  Biso   1.000  C
  C90      1.0000 0.73090  0.79397  0.21742  Biso   1.000  C
  H50      1.0000 0.71820  0.77960  0.19510  Biso   1.000  H
  O21      1.0000 0.08210  0.46001  0.09894  Biso   1.000  O
  C91      1.0000 0.12960  0.43131  0.08982  Biso   1.000  C
  O22      1.0000 0.15230  0.42257  0.05709  Biso   1.000  O
  C92      1.0000 0.15880  0.40596  0.12200  Biso   1.000  C
  C93      1.0000 0.20910  0.37300  0.11724  Biso   1.000  C
  C94      1.0000 0.12970  0.41577  0.15772  Biso   1.000  C
  H51      1.0000 0.22780  0.36600  0.09290  Biso   1.000  H
  C95      1.0000 0.23290  0.34964  0.14788  Biso   1.000  C
  C96      1.0000 0.15410  0.39266  0.18781  Biso   1.000  C
  H52      1.0000 0.09360  0.43810  0.16120  Biso   1.000  H
  H53      1.0000 0.26850  0.32710  0.14450  Biso   1.000  H
  C97      1.0000 0.20450  0.35957  0.18353  Biso   1.000  C
  H54      1.0000 0.13560  0.39980  0.21210  Biso   1.000  H
  C98      1.0000 0.23020  0.33590  0.21727  Biso   1.000  C
  C99      1.0000 0.23090  0.29397  0.21742  Biso   1.000  C
  H55      1.0000 0.21820  0.27960  0.19510  Biso   1.000  H
  O23      1.0000 0.08210  0.96001  0.59894  Biso   1.000  O
  C100     1.0000 0.12960  0.93131  0.58982  Biso   1.000  C
  O24      1.0000 0.15230  0.92257  0.55709  Biso   1.000  O
  C101     1.0000 0.15880  0.90596  0.62200  Biso   1.000  C
  C102     1.0000 0.20910  0.87300  0.61724  Biso   1.000  C
  C103     1.0000 0.12970  0.91577  0.65772  Biso   1.000  C
  H56      1.0000 0.22780  0.86600  0.59290  Biso   1.000  H
  C104     1.0000 0.23290  0.84964  0.64788  Biso   1.000  C
  C105     1.0000 0.15410  0.89266  0.68781  Biso   1.000  C
  H57      1.0000 0.09360  0.93810  0.66120  Biso   1.000  H
  H58      1.0000 0.26850  0.82710  0.64450  Biso   1.000  H
  C106     1.0000 0.20450  0.85957  0.68353  Biso   1.000  C
  H59      1.0000 0.13560  0.89980  0.71210  Biso   1.000  H
  C107     1.0000 0.23020  0.83590  0.71727  Biso   1.000  C
  C108     1.0000 0.23090  0.79397  0.71742  Biso   1.000  C
  H60      1.0000 0.21820  0.77960  0.69510  Biso   1.000  H
  O25      1.0000 0.41790  0.53999  0.59894  Biso   1.000  O
  C109     1.0000 0.37040  0.56869  0.58982  Biso   1.000  C
  O26      1.0000 0.34770  0.57743  0.55709  Biso   1.000  O
  C110     1.0000 0.34120  0.59404  0.62200  Biso   1.000  C
  C111     1.0000 0.29090  0.62700  0.61724  Biso   1.000  C
  C112     1.0000 0.37030  0.58423  0.65772  Biso   1.000  C
  H61      1.0000 0.27220  0.63400  0.59290  Biso   1.000  H
  C113     1.0000 0.26710  0.65036  0.64788  Biso   1.000  C
  C114     1.0000 0.34590  0.60734  0.68781  Biso   1.000  C
  H62      1.0000 0.40640  0.56190  0.66120  Biso   1.000  H
  H63      1.0000 0.23150  0.67290  0.64450  Biso   1.000  H
  C115     1.0000 0.29550  0.64043  0.68353  Biso   1.000  C
  H64      1.0000 0.36440  0.60020  0.71210  Biso   1.000  H
  C116     1.0000 0.26980  0.66410  0.71727  Biso   1.000  C
  C117     1.0000 0.26910  0.70603  0.71742  Biso   1.000  C
  H65      1.0000 0.28180  0.72040  0.69510  Biso   1.000  H
  O27      1.0000 0.41790  0.03999  0.09894  Biso   1.000  O
  C118     1.0000 0.37040  0.06869  0.08982  Biso   1.000  C
  O28      1.0000 0.34770  0.07743  0.05709  Biso   1.000  O
  C119     1.0000 0.34120  0.09404  0.12200  Biso   1.000  C
  C120     1.0000 0.29090  0.12700  0.11724  Biso   1.000  C
  C121     1.0000 0.37030  0.08423  0.15772  Biso   1.000  C
  H66      1.0000 0.27220  0.13400  0.09290  Biso   1.000  H
  C122     1.0000 0.26710  0.15036  0.14788  Biso   1.000  C
  C123     1.0000 0.34590  0.10734  0.18781  Biso   1.000  C
  H67      1.0000 0.40640  0.06190  0.16120  Biso   1.000  H
  H68      1.0000 0.23150  0.17290  0.14450  Biso   1.000  H
  C124     1.0000 0.29550  0.14043  0.18353  Biso   1.000  C
  H69      1.0000 0.36440  0.10020  0.21210  Biso   1.000  H
  C125     1.0000 0.26980  0.16410  0.21727  Biso   1.000  C
  C126     1.0000 0.26910  0.20603  0.21742  Biso   1.000  C
  H70      1.0000 0.28180  0.22040  0.19510  Biso   1.000  H
  O29      1.0000 0.91790  0.53999  0.09894  Biso   1.000  O
  C127     1.0000 0.87040  0.56869  0.08982  Biso   1.000  C
  O30      1.0000 0.84770  0.57743  0.05709  Biso   1.000  O
  C128     1.0000 0.84120  0.59404  0.12200  Biso   1.000  C
  C129     1.0000 0.79090  0.62700  0.11724  Biso   1.000  C
  C130     1.0000 0.87030  0.58423  0.15772  Biso   1.000  C
  H71      1.0000 0.77220  0.63400  0.09290  Biso   1.000  H
  C131     1.0000 0.76710  0.65036  0.14788  Biso   1.000  C
  C132     1.0000 0.84590  0.60734  0.18781  Biso   1.000  C
  H72      1.0000 0.90640  0.56190  0.16120  Biso   1.000  H
  H73      1.0000 0.73150  0.67290  0.14450  Biso   1.000  H
  C133     1.0000 0.79550  0.64043  0.18353  Biso   1.000  C
  H74      1.0000 0.86440  0.60020  0.21210  Biso   1.000  H
  C134     1.0000 0.76980  0.66410  0.21727  Biso   1.000  C
  C135     1.0000 0.76910  0.70603  0.21742  Biso   1.000  C
  H75      1.0000 0.78180  0.72040  0.19510  Biso   1.000  H
  O31      1.0000 0.91790  0.03999  0.59894  Biso   1.000  O
  C136     1.0000 0.87040  0.06869  0.58982  Biso   1.000  C
  O32      1.0000 0.84770  0.07743  0.55709  Biso   1.000  O
  C137     1.0000 0.84120  0.09404  0.62200  Biso   1.000  C
  C138     1.0000 0.79090  0.12700  0.61724  Biso   1.000  C
  C139     1.0000 0.87030  0.08423  0.65772  Biso   1.000  C
  H76      1.0000 0.77220  0.13400  0.59290  Biso   1.000  H
  C140     1.0000 0.76710  0.15036  0.64788  Biso   1.000  C
  C141     1.0000 0.84590  0.10734  0.68781  Biso   1.000  C
  H77      1.0000 0.90640  0.06190  0.66120  Biso   1.000  H
  H78      1.0000 0.73150  0.17290  0.64450  Biso   1.000  H
  C142     1.0000 0.79550  0.14043  0.68353  Biso   1.000  C
  H79      1.0000 0.86440  0.10020  0.71210  Biso   1.000  H
  C143     1.0000 0.76980  0.16410  0.71727  Biso   1.000  C
  C144     1.0000 0.76910  0.20603  0.71742  Biso   1.000  C
  H80      1.0000 0.78180  0.22040  0.69510  Biso   1.000  H
  O33      1.0000 0.58210  0.53999  0.59894  Biso   1.000  O
  C145     1.0000 0.62960  0.56869  0.58982  Biso   1.000  C
  O34      1.0000 0.65230  0.57743  0.55709  Biso   1.000  O
  C146     1.0000 0.65880  0.59404  0.62200  Biso   1.000  C
  C147     1.0000 0.70910  0.62700  0.61724  Biso   1.000  C
  C148     1.0000 0.62970  0.58423  0.65772  Biso   1.000  C
  H81      1.0000 0.72780  0.63400  0.59290  Biso   1.000  H
  C149     1.0000 0.73290  0.65036  0.64788  Biso   1.000  C
  C150     1.0000 0.65410  0.60734  0.68781  Biso   1.000  C
  H82      1.0000 0.59360  0.56190  0.66120  Biso   1.000  H
  H83      1.0000 0.76850  0.67290  0.64450  Biso   1.000  H
  C151     1.0000 0.70450  0.64043  0.68353  Biso   1.000  C
  H84      1.0000 0.63560  0.60020  0.71210  Biso   1.000  H
  C152     1.0000 0.73020  0.66410  0.71727  Biso   1.000  C
  C153     1.0000 0.73090  0.70603  0.71742  Biso   1.000  C
  H85      1.0000 0.71820  0.72040  0.69510  Biso   1.000  H
  O35      1.0000 0.58210  0.03999  0.09894  Biso   1.000  O
  C154     1.0000 0.62960  0.06869  0.08982  Biso   1.000  C
  O36      1.0000 0.65230  0.07743  0.05709  Biso   1.000  O
  C155     1.0000 0.65880  0.09404  0.12200  Biso   1.000  C
  C156     1.0000 0.70910  0.12700  0.11724  Biso   1.000  C
  C157     1.0000 0.62970  0.08423  0.15772  Biso   1.000  C
  H86      1.0000 0.72780  0.13400  0.09290  Biso   1.000  H
  C158     1.0000 0.73290  0.15036  0.14788  Biso   1.000  C
  C159     1.0000 0.65410  0.10734  0.18781  Biso   1.000  C
  H87      1.0000 0.59360  0.06190  0.16120  Biso   1.000  H
  H88      1.0000 0.76850  0.17290  0.14450  Biso   1.000  H
  C160     1.0000 0.70450  0.14043  0.18353  Biso   1.000  C
  H89      1.0000 0.63560  0.10020  0.21210  Biso   1.000  H
  C161     1.0000 0.73020  0.16410  0.21727  Biso   1.000  C
  C162     1.0000 0.73090  0.20603  0.21742  Biso   1.000  C
  H90      1.0000 0.71820  0.22040  0.19510  Biso   1.000  H
  O37      1.0000 0.08210  0.53999  0.09894  Biso   1.000  O
  C163     1.0000 0.12960  0.56869  0.08982  Biso   1.000  C
  O38      1.0000 0.15230  0.57743  0.05709  Biso   1.000  O
  C164     1.0000 0.15880  0.59404  0.12200  Biso   1.000  C
  C165     1.0000 0.20910  0.62700  0.11724  Biso   1.000  C
  C166     1.0000 0.12970  0.58423  0.15772  Biso   1.000  C
  H91      1.0000 0.22780  0.63400  0.09290  Biso   1.000  H
  C167     1.0000 0.23290  0.65036  0.14788  Biso   1.000  C
  C168     1.0000 0.15410  0.60734  0.18781  Biso   1.000  C
  H92      1.0000 0.09360  0.56190  0.16120  Biso   1.000  H
  H93      1.0000 0.26850  0.67290  0.14450  Biso   1.000  H
  C169     1.0000 0.20450  0.64043  0.18353  Biso   1.000  C
  H94      1.0000 0.13560  0.60020  0.21210  Biso   1.000  H
  C170     1.0000 0.23020  0.66410  0.21727  Biso   1.000  C
  C171     1.0000 0.23090  0.70603  0.21742  Biso   1.000  C
  H95      1.0000 0.21820  0.72040  0.19510  Biso   1.000  H
  O39      1.0000 0.08210  0.03999  0.59894  Biso   1.000  O
  C172     1.0000 0.12960  0.06869  0.58982  Biso   1.000  C
  O40      1.0000 0.15230  0.07743  0.55709  Biso   1.000  O
  C173     1.0000 0.15880  0.09404  0.62200  Biso   1.000  C
  C174     1.0000 0.20910  0.12700  0.61724  Biso   1.000  C
  C175     1.0000 0.12970  0.08423  0.65772  Biso   1.000  C
  H96      1.0000 0.22780  0.13400  0.59290  Biso   1.000  H
  C176     1.0000 0.23290  0.15036  0.64788  Biso   1.000  C
  C177     1.0000 0.15410  0.10734  0.68781  Biso   1.000  C
  H97      1.0000 0.09360  0.06190  0.66120  Biso   1.000  H
  H98      1.0000 0.26850  0.17290  0.64450  Biso   1.000  H
  C178     1.0000 0.20450  0.14043  0.68353  Biso   1.000  C
  H99      1.0000 0.13560  0.10020  0.71210  Biso   1.000  H
  C179     1.0000 0.23020  0.16410  0.71727  Biso   1.000  C
  C180     1.0000 0.23090  0.20603  0.71742  Biso   1.000  C
  H100     1.0000 0.21820  0.22040  0.69510  Biso   1.000  H
  O41      1.0000 0.41790  0.46001  0.59894  Biso   1.000  O
  C181     1.0000 0.37040  0.43131  0.58982  Biso   1.000  C
  O42      1.0000 0.34770  0.42257  0.55709  Biso   1.000  O
  C182     1.0000 0.34120  0.40596  0.62200  Biso   1.000  C
  C183     1.0000 0.29090  0.37300  0.61724  Biso   1.000  C
  C184     1.0000 0.37030  0.41577  0.65772  Biso   1.000  C
  H101     1.0000 0.27220  0.36600  0.59290  Biso   1.000  H
  C185     1.0000 0.26710  0.34964  0.64788  Biso   1.000  C
  C186     1.0000 0.34590  0.39266  0.68781  Biso   1.000  C
  H102     1.0000 0.40640  0.43810  0.66120  Biso   1.000  H
  H103     1.0000 0.23150  0.32710  0.64450  Biso   1.000  H
  C187     1.0000 0.29550  0.35957  0.68353  Biso   1.000  C
  H104     1.0000 0.36440  0.39980  0.71210  Biso   1.000  H
  C188     1.0000 0.26980  0.33590  0.71727  Biso   1.000  C
  C189     1.0000 0.26910  0.29397  0.71742  Biso   1.000  C
  H105     1.0000 0.28180  0.27960  0.69510  Biso   1.000  H
  O43      1.0000 0.41790  0.96001  0.09894  Biso   1.000  O
  C190     1.0000 0.37040  0.93131  0.08982  Biso   1.000  C
  O44      1.0000 0.34770  0.92257  0.05709  Biso   1.000  O
  C191     1.0000 0.34120  0.90596  0.12200  Biso   1.000  C
  C192     1.0000 0.29090  0.87300  0.11724  Biso   1.000  C
  C193     1.0000 0.37030  0.91577  0.15772  Biso   1.000  C
  H106     1.0000 0.27220  0.86600  0.09290  Biso   1.000  H
  C194     1.0000 0.26710  0.84964  0.14788  Biso   1.000  C
  C195     1.0000 0.34590  0.89266  0.18781  Biso   1.000  C
  H107     1.0000 0.40640  0.93810  0.16120  Biso   1.000  H
  H108     1.0000 0.23150  0.82710  0.14450  Biso   1.000  H
  C196     1.0000 0.29550  0.85957  0.18353  Biso   1.000  C
  H109     1.0000 0.36440  0.89980  0.21210  Biso   1.000  H
  C197     1.0000 0.26980  0.83590  0.21727  Biso   1.000  C
  C198     1.0000 0.26910  0.79397  0.21742  Biso   1.000  C
  H110     1.0000 0.28180  0.77960  0.19510  Biso   1.000  H
  O45      1.0000 0.91790  0.46001  0.09894  Biso   1.000  O
  C199     1.0000 0.87040  0.43131  0.08982  Biso   1.000  C
  O46      1.0000 0.84770  0.42257  0.05709  Biso   1.000  O
  C200     1.0000 0.84120  0.40596  0.12200  Biso   1.000  C
  C201     1.0000 0.79090  0.37300  0.11724  Biso   1.000  C
  C202     1.0000 0.87030  0.41577  0.15772  Biso   1.000  C
  H111     1.0000 0.77220  0.36600  0.09290  Biso   1.000  H
  C203     1.0000 0.76710  0.34964  0.14788  Biso   1.000  C
  C204     1.0000 0.84590  0.39266  0.18781  Biso   1.000  C
  H112     1.0000 0.90640  0.43810  0.16120  Biso   1.000  H
  H113     1.0000 0.73150  0.32710  0.14450  Biso   1.000  H
  C205     1.0000 0.79550  0.35957  0.18353  Biso   1.000  C
  H114     1.0000 0.86440  0.39980  0.21210  Biso   1.000  H
  C206     1.0000 0.76980  0.33590  0.21727  Biso   1.000  C
  C207     1.0000 0.76910  0.29397  0.21742  Biso   1.000  C
  H115     1.0000 0.78180  0.27960  0.19510  Biso   1.000  H
  O47      1.0000 0.91790  0.96001  0.59894  Biso   1.000  O
  C208     1.0000 0.87040  0.93131  0.58982  Biso   1.000  C
  O48      1.0000 0.84770  0.92257  0.55709  Biso   1.000  O
  C209     1.0000 0.84120  0.90596  0.62200  Biso   1.000  C
  C210     1.0000 0.79090  0.87300  0.61724  Biso   1.000  C
  C211     1.0000 0.87030  0.91577  0.65772  Biso   1.000  C
  H116     1.0000 0.77220  0.86600  0.59290  Biso   1.000  H
  C212     1.0000 0.76710  0.84964  0.64788  Biso   1.000  C
  C213     1.0000 0.84590  0.89266  0.68781  Biso   1.000  C
  H117     1.0000 0.90640  0.93810  0.66120  Biso   1.000  H
  H118     1.0000 0.73150  0.82710  0.64450  Biso   1.000  H
  C214     1.0000 0.79550  0.85957  0.68353  Biso   1.000  C
  H119     1.0000 0.86440  0.89980  0.71210  Biso   1.000  H
  C215     1.0000 0.76980  0.83590  0.71727  Biso   1.000  C
  C216     1.0000 0.76910  0.79397  0.71742  Biso   1.000  C
  H120     1.0000 0.78180  0.77960  0.69510  Biso   1.000  H
  O49      1.0000 0.41790  0.53999  0.40106  Biso   1.000  O
  C217     1.0000 0.37040  0.56869  0.41018  Biso   1.000  C
  O50      1.0000 0.34770  0.57743  0.44291  Biso   1.000  O
  C218     1.0000 0.34120  0.59404  0.37800  Biso   1.000  C
  C219     1.0000 0.29090  0.62700  0.38276  Biso   1.000  C
  C220     1.0000 0.37030  0.58423  0.34228  Biso   1.000  C
  H121     1.0000 0.27220  0.63400  0.40710  Biso   1.000  H
  C221     1.0000 0.26710  0.65036  0.35212  Biso   1.000  C
  C222     1.0000 0.34590  0.60734  0.31219  Biso   1.000  C
  H122     1.0000 0.40640  0.56190  0.33880  Biso   1.000  H
  H123     1.0000 0.23150  0.67290  0.35550  Biso   1.000  H
  C223     1.0000 0.29550  0.64043  0.31647  Biso   1.000  C
  H124     1.0000 0.36440  0.60020  0.28790  Biso   1.000  H
  C224     1.0000 0.26980  0.66410  0.28273  Biso   1.000  C
  C225     1.0000 0.26910  0.70603  0.28258  Biso   1.000  C
  H125     1.0000 0.28180  0.72040  0.30490  Biso   1.000  H
  O51      1.0000 0.41790  0.03999  0.90106  Biso   1.000  O
  C226     1.0000 0.37040  0.06869  0.91018  Biso   1.000  C
  O52      1.0000 0.34770  0.07743  0.94291  Biso   1.000  O
  C227     1.0000 0.34120  0.09404  0.87800  Biso   1.000  C
  C228     1.0000 0.29090  0.12700  0.88276  Biso   1.000  C
  C229     1.0000 0.37030  0.08423  0.84228  Biso   1.000  C
  H126     1.0000 0.27220  0.13400  0.90710  Biso   1.000  H
  C230     1.0000 0.26710  0.15036  0.85212  Biso   1.000  C
  C231     1.0000 0.34590  0.10734  0.81219  Biso   1.000  C
  H127     1.0000 0.40640  0.06190  0.83880  Biso   1.000  H
  H128     1.0000 0.23150  0.17290  0.85550  Biso   1.000  H
  C232     1.0000 0.29550  0.14043  0.81647  Biso   1.000  C
  H129     1.0000 0.36440  0.10020  0.78790  Biso   1.000  H
  C233     1.0000 0.26980  0.16410  0.78273  Biso   1.000  C
  C234     1.0000 0.26910  0.20603  0.78258  Biso   1.000  C
  H130     1.0000 0.28180  0.22040  0.80490  Biso   1.000  H
  O53      1.0000 0.91790  0.53999  0.90106  Biso   1.000  O
  C235     1.0000 0.87040  0.56869  0.91018  Biso   1.000  C
  O54      1.0000 0.84770  0.57743  0.94291  Biso   1.000  O
  C236     1.0000 0.84120  0.59404  0.87800  Biso   1.000  C
  C237     1.0000 0.79090  0.62700  0.88276  Biso   1.000  C
  C238     1.0000 0.87030  0.58423  0.84228  Biso   1.000  C
  H131     1.0000 0.77220  0.63400  0.90710  Biso   1.000  H
  C239     1.0000 0.76710  0.65036  0.85212  Biso   1.000  C
  C240     1.0000 0.84590  0.60734  0.81219  Biso   1.000  C
  H132     1.0000 0.90640  0.56190  0.83880  Biso   1.000  H
  H133     1.0000 0.73150  0.67290  0.85550  Biso   1.000  H
  C241     1.0000 0.79550  0.64043  0.81647  Biso   1.000  C
  H134     1.0000 0.86440  0.60020  0.78790  Biso   1.000  H
  C242     1.0000 0.76980  0.66410  0.78273  Biso   1.000  C
  C243     1.0000 0.76910  0.70603  0.78258  Biso   1.000  C
  H135     1.0000 0.78180  0.72040  0.80490  Biso   1.000  H
  O55      1.0000 0.91790  0.03999  0.40106  Biso   1.000  O
  C244     1.0000 0.87040  0.06869  0.41018  Biso   1.000  C
  O56      1.0000 0.84770  0.07743  0.44291  Biso   1.000  O
  C245     1.0000 0.84120  0.09404  0.37800  Biso   1.000  C
  C246     1.0000 0.79090  0.12700  0.38276  Biso   1.000  C
  C247     1.0000 0.87030  0.08423  0.34228  Biso   1.000  C
  H136     1.0000 0.77220  0.13400  0.40710  Biso   1.000  H
  C248     1.0000 0.76710  0.15036  0.35212  Biso   1.000  C
  C249     1.0000 0.84590  0.10734  0.31219  Biso   1.000  C
  H137     1.0000 0.90640  0.06190  0.33880  Biso   1.000  H
  H138     1.0000 0.73150  0.17290  0.35550  Biso   1.000  H
  C250     1.0000 0.79550  0.14043  0.31647  Biso   1.000  C
  H139     1.0000 0.86440  0.10020  0.28790  Biso   1.000  H
  C251     1.0000 0.76980  0.16410  0.28273  Biso   1.000  C
  C252     1.0000 0.76910  0.20603  0.28258  Biso   1.000  C
  H140     1.0000 0.78180  0.22040  0.30490  Biso   1.000  H
  O57      1.0000 0.58210  0.46001  0.40106  Biso   1.000  O
  C253     1.0000 0.62960  0.43131  0.41018  Biso   1.000  C
  O58      1.0000 0.65230  0.42257  0.44291  Biso   1.000  O
  C254     1.0000 0.65880  0.40596  0.37800  Biso   1.000  C
  C255     1.0000 0.70910  0.37300  0.38276  Biso   1.000  C
  C256     1.0000 0.62970  0.41577  0.34228  Biso   1.000  C
  H141     1.0000 0.72780  0.36600  0.40710  Biso   1.000  H
  C257     1.0000 0.73290  0.34964  0.35212  Biso   1.000  C
  C258     1.0000 0.65410  0.39266  0.31219  Biso   1.000  C
  H142     1.0000 0.59360  0.43810  0.33880  Biso   1.000  H
  H143     1.0000 0.76850  0.32710  0.35550  Biso   1.000  H
  C259     1.0000 0.70450  0.35957  0.31647  Biso   1.000  C
  H144     1.0000 0.63560  0.39980  0.28790  Biso   1.000  H
  C260     1.0000 0.73020  0.33590  0.28273  Biso   1.000  C
  C261     1.0000 0.73090  0.29397  0.28258  Biso   1.000  C
  H145     1.0000 0.71820  0.27960  0.30490  Biso   1.000  H
  O59      1.0000 0.58210  0.96001  0.90106  Biso   1.000  O
  C262     1.0000 0.62960  0.93131  0.91018  Biso   1.000  C
  O60      1.0000 0.65230  0.92257  0.94291  Biso   1.000  O
  C263     1.0000 0.65880  0.90596  0.87800  Biso   1.000  C
  C264     1.0000 0.70910  0.87300  0.88276  Biso   1.000  C
  C265     1.0000 0.62970  0.91577  0.84228  Biso   1.000  C
  H146     1.0000 0.72780  0.86600  0.90710  Biso   1.000  H
  C266     1.0000 0.73290  0.84964  0.85212  Biso   1.000  C
  C267     1.0000 0.65410  0.89266  0.81219  Biso   1.000  C
  H147     1.0000 0.59360  0.93810  0.83880  Biso   1.000  H
  H148     1.0000 0.76850  0.82710  0.85550  Biso   1.000  H
  C268     1.0000 0.70450  0.85957  0.81647  Biso   1.000  C
  H149     1.0000 0.63560  0.89980  0.78790  Biso   1.000  H
  C269     1.0000 0.73020  0.83590  0.78273  Biso   1.000  C
  C270     1.0000 0.73090  0.79397  0.78258  Biso   1.000  C
  H150     1.0000 0.71820  0.77960  0.80490  Biso   1.000  H
  O61      1.0000 0.08210  0.46001  0.90106  Biso   1.000  O
  C271     1.0000 0.12960  0.43131  0.91018  Biso   1.000  C
  O62      1.0000 0.15230  0.42257  0.94291  Biso   1.000  O
  C272     1.0000 0.15880  0.40596  0.87800  Biso   1.000  C
  C273     1.0000 0.20910  0.37300  0.88276  Biso   1.000  C
  C274     1.0000 0.12970  0.41577  0.84228  Biso   1.000  C
  H151     1.0000 0.22780  0.36600  0.90710  Biso   1.000  H
  C275     1.0000 0.23290  0.34964  0.85212  Biso   1.000  C
  C276     1.0000 0.15410  0.39266  0.81219  Biso   1.000  C
  H152     1.0000 0.09360  0.43810  0.83880  Biso   1.000  H
  H153     1.0000 0.26850  0.32710  0.85550  Biso   1.000  H
  C277     1.0000 0.20450  0.35957  0.81647  Biso   1.000  C
  H154     1.0000 0.13560  0.39980  0.78790  Biso   1.000  H
  C278     1.0000 0.23020  0.33590  0.78273  Biso   1.000  C
  C279     1.0000 0.23090  0.29397  0.78258  Biso   1.000  C
  H155     1.0000 0.21820  0.27960  0.80490  Biso   1.000  H
  O63      1.0000 0.08210  0.96001  0.40106  Biso   1.000  O
  C280     1.0000 0.12960  0.93131  0.41018  Biso   1.000  C
  O64      1.0000 0.15230  0.92257  0.44291  Biso   1.000  O
  C281     1.0000 0.15880  0.90596  0.37800  Biso   1.000  C
  C282     1.0000 0.20910  0.87300  0.38276  Biso   1.000  C
  C283     1.0000 0.12970  0.91577  0.34228  Biso   1.000  C
  H156     1.0000 0.22780  0.86600  0.40710  Biso   1.000  H
  C284     1.0000 0.23290  0.84964  0.35212  Biso   1.000  C
  C285     1.0000 0.15410  0.89266  0.31219  Biso   1.000  C
  H157     1.0000 0.09360  0.93810  0.33880  Biso   1.000  H
  H158     1.0000 0.26850  0.82710  0.35550  Biso   1.000  H
  C286     1.0000 0.20450  0.85957  0.31647  Biso   1.000  C
  H159     1.0000 0.13560  0.89980  0.28790  Biso   1.000  H
  C287     1.0000 0.23020  0.83590  0.28273  Biso   1.000  C
  C288     1.0000 0.23090  0.79397  0.28258  Biso   1.000  C
  H160     1.0000 0.21820  0.77960  0.30490  Biso   1.000  H
  Zr1      1.0000 0.50000  0.50000  0.43188  Biso   1.000  Zr
  Zr2      1.0000 0.50000  0.00000  0.93188  Biso   1.000  Zr
  Zr3      1.0000 0.00000  0.50000  0.93188  Biso   1.000  Zr
  Zr4      1.0000 0.00000  0.00000  0.43188  Biso   1.000  Zr
  Zr5      1.0000 0.50000  0.50000  0.56812  Biso   1.000  Zr
  Zr6      1.0000 0.50000  0.00000  0.06812  Biso   1.000  Zr
  Zr7      1.0000 0.00000  0.50000  0.06812  Biso   1.000  Zr
  Zr8      1.0000 0.00000  0.00000  0.56812  Biso   1.000  Zr
  O65      1.0000 0.60810  0.50000  0.46727  Biso   1.000  O
  H161     1.0000 0.65800  0.50000  0.45090  Biso   1.000  H
  O66      1.0000 0.60810  0.00000  0.96727  Biso   1.000  O
  H162     1.0000 0.65800  0.00000  0.95090  Biso   1.000  H
  O67      1.0000 0.10810  0.50000  0.96727  Biso   1.000  O
  H163     1.0000 0.15800  0.50000  0.95090  Biso   1.000  H
  O68      1.0000 0.10810  0.00000  0.46727  Biso   1.000  O
  H164     1.0000 0.15800  0.00000  0.45090  Biso   1.000  H
  O69      1.0000 0.39190  0.50000  0.46727  Biso   1.000  O
  H165     1.0000 0.34200  0.50000  0.45090  Biso   1.000  H
  O70      1.0000 0.39190  0.00000  0.96727  Biso   1.000  O
  H166     1.0000 0.34200  0.00000  0.95090  Biso   1.000  H
  O71      1.0000 0.89190  0.50000  0.96727  Biso   1.000  O
  H167     1.0000 0.84200  0.50000  0.95090  Biso   1.000  H
  O72      1.0000 0.89190  0.00000  0.46727  Biso   1.000  O
  H168     1.0000 0.84200  0.00000  0.45090  Biso   1.000  H
  O73      1.0000 0.39190  0.50000  0.53273  Biso   1.000  O
  H169     1.0000 0.34200  0.50000  0.54910  Biso   1.000  H
  O74      1.0000 0.39190  0.00000  0.03273  Biso   1.000  O
  H170     1.0000 0.34200  0.00000  0.04910  Biso   1.000  H
  O75      1.0000 0.89190  0.50000  0.03273  Biso   1.000  O
  H171     1.0000 0.84200  0.50000  0.04910  Biso   1.000  H
  O76      1.0000 0.89190  0.00000  0.53273  Biso   1.000  O
  H172     1.0000 0.84200  0.00000  0.54910  Biso   1.000  H
  O77      1.0000 0.60810  0.50000  0.53273  Biso   1.000  O
  H173     1.0000 0.65800  0.50000  0.54910  Biso   1.000  H
  O78      1.0000 0.60810  0.00000  0.03273  Biso   1.000  O
  H174     1.0000 0.65800  0.00000  0.04910  Biso   1.000  H
  O79      1.0000 0.10810  0.50000  0.03273  Biso   1.000  O
  H175     1.0000 0.15800  0.50000  0.04910  Biso   1.000  H
  O80      1.0000 0.10810  0.00000  0.53273  Biso   1.000  O
  H176     1.0000 0.15800  0.00000  0.54910  Biso   1.000  H
  O81      1.0000 0.50000  0.55353  0.46687  Biso   1.000  O
  H177     1.0000 0.50000  0.57810  0.45040  Biso   1.000  H
  O82      1.0000 0.50000  0.05353  0.96687  Biso   1.000  O
  H178     1.0000 0.50000  0.07810  0.95040  Biso   1.000  H
  O83      1.0000 0.00000  0.55353  0.96687  Biso   1.000  O
  H179     1.0000 0.00000  0.57810  0.95040  Biso   1.000  H
  O84      1.0000 0.00000  0.05353  0.46687  Biso   1.000  O
  H180     1.0000 0.00000  0.07810  0.45040  Biso   1.000  H
  O85      1.0000 0.50000  0.44647  0.46687  Biso   1.000  O
  H181     1.0000 0.50000  0.42190  0.45040  Biso   1.000  H
  O86      1.0000 0.50000  0.94647  0.96687  Biso   1.000  O
  H182     1.0000 0.50000  0.92190  0.95040  Biso   1.000  H
  O87      1.0000 0.00000  0.44647  0.96687  Biso   1.000  O
  H183     1.0000 0.00000  0.42190  0.95040  Biso   1.000  H
  O88      1.0000 0.00000  0.94647  0.46687  Biso   1.000  O
  H184     1.0000 0.00000  0.92190  0.45040  Biso   1.000  H
  O89      1.0000 0.50000  0.55353  0.53313  Biso   1.000  O
  H185     1.0000 0.50000  0.57810  0.54960  Biso   1.000  H
  O90      1.0000 0.50000  0.05353  0.03313  Biso   1.000  O
  H186     1.0000 0.50000  0.07810  0.04960  Biso   1.000  H
  O91      1.0000 0.00000  0.55353  0.03313  Biso   1.000  O
  H187     1.0000 0.00000  0.57810  0.04960  Biso   1.000  H
  O92      1.0000 0.00000  0.05353  0.53313  Biso   1.000  O
  H188     1.0000 0.00000  0.07810  0.54960  Biso   1.000  H
  O93      1.0000 0.50000  0.44647  0.53313  Biso   1.000  O
  H189     1.0000 0.50000  0.42190  0.54960  Biso   1.000  H
  O94      1.0000 0.50000  0.94647  0.03313  Biso   1.000  O
  H190     1.0000 0.50000  0.92190  0.04960  Biso   1.000  H
  O95      1.0000 0.00000  0.44647  0.03313  Biso   1.000  O
  H191     1.0000 0.00000  0.42190  0.04960  Biso   1.000  H
  O96      1.0000 0.00000  0.94647  0.53313  Biso   1.000  O
  H192     1.0000 0.00000  0.92190  0.54960  Biso   1.000  H
  Zr9      1.0000 0.60953  0.55389  0.50000  Biso   1.000  Zr
  O97      1.0000 0.74170  0.54785  0.50000  Biso   1.000  O
  H193     1.0000 0.75430  0.52320  0.50000  Biso   1.000  H
  Zr10     1.0000 0.60953  0.05389  0.00000  Biso   1.000  Zr
  O98      1.0000 0.74170  0.04785  0.00000  Biso   1.000  O
  H194     1.0000 0.75430  0.02320  0.00000  Biso   1.000  H
  Zr11     1.0000 0.10953  0.55389  0.00000  Biso   1.000  Zr
  O99      1.0000 0.24170  0.54785  0.00000  Biso   1.000  O
  H195     1.0000 0.25430  0.52320  0.00000  Biso   1.000  H
  Zr12     1.0000 0.10953  0.05389  0.50000  Biso   1.000  Zr
  O100     1.0000 0.24170  0.04785  0.50000  Biso   1.000  O
  H196     1.0000 0.25430  0.02320  0.50000  Biso   1.000  H
  Zr13     1.0000 0.39047  0.44611  0.50000  Biso   1.000  Zr
  O101     1.0000 0.25830  0.45215  0.50000  Biso   1.000  O
  H197     1.0000 0.24570  0.47680  0.50000  Biso   1.000  H
  Zr14     1.0000 0.39047  0.94611  0.00000  Biso   1.000  Zr
  O102     1.0000 0.25830  0.95215  0.00000  Biso   1.000  O
  H198     1.0000 0.24570  0.97680  0.00000  Biso   1.000  H
  Zr15     1.0000 0.89047  0.44611  0.00000  Biso   1.000  Zr
  O103     1.0000 0.75830  0.45215  0.00000  Biso   1.000  O
  H199     1.0000 0.74570  0.47680  0.00000  Biso   1.000  H
  Zr16     1.0000 0.89047  0.94611  0.50000  Biso   1.000  Zr
  O104     1.0000 0.75830  0.95215  0.50000  Biso   1.000  O
  H200     1.0000 0.74570  0.97680  0.50000  Biso   1.000  H
  Zr17     1.0000 0.39047  0.55389  0.50000  Biso   1.000  Zr
  O105     1.0000 0.25830  0.54785  0.50000  Biso   1.000  O
  H201     1.0000 0.24570  0.52320  0.50000  Biso   1.000  H
  Zr18     1.0000 0.39047  0.05389  0.00000  Biso   1.000  Zr
  O106     1.0000 0.25830  0.04785  0.00000  Biso   1.000  O
  H202     1.0000 0.24570  0.02320  0.00000  Biso   1.000  H
  Zr19     1.0000 0.89047  0.55389  0.00000  Biso   1.000  Zr
  O107     1.0000 0.75830  0.54785  0.00000  Biso   1.000  O
  H203     1.0000 0.74570  0.52320  0.00000  Biso   1.000  H
  Zr20     1.0000 0.89047  0.05389  0.50000  Biso   1.000  Zr
  O108     1.0000 0.75830  0.04785  0.50000  Biso   1.000  O
  H204     1.0000 0.74570  0.02320  0.50000  Biso   1.000  H
  Zr21     1.0000 0.60953  0.44611  0.50000  Biso   1.000  Zr
  O109     1.0000 0.74170  0.45215  0.50000  Biso   1.000  O
  H205     1.0000 0.75430  0.47680  0.50000  Biso   1.000  H
  Zr22     1.0000 0.60953  0.94611  0.00000  Biso   1.000  Zr
  O110     1.0000 0.74170  0.95215  0.00000  Biso   1.000  O
  H206     1.0000 0.75430  0.97680  0.00000  Biso   1.000  H
  Zr23     1.0000 0.10953  0.44611  0.00000  Biso   1.000  Zr
  O111     1.0000 0.24170  0.45215  0.00000  Biso   1.000  O
  H207     1.0000 0.25430  0.47680  0.00000  Biso   1.000  H
  Zr24     1.0000 0.10953  0.94611  0.50000  Biso   1.000  Zr
  O112     1.0000 0.24170  0.95215  0.50000  Biso   1.000  O
  H208     1.0000 0.25430  0.97680  0.50000  Biso   1.000  H
  C289     1.0000 0.25000  0.35676  0.25000  Biso   1.000  C
  C290     1.0000 0.25000  0.27231  0.25000  Biso   1.000  C
  H209     1.0000 0.25000  0.38550  0.25000  Biso   1.000  H
  C291     1.0000 0.25000  0.85676  0.75000  Biso   1.000  C
  C292     1.0000 0.25000  0.77231  0.75000  Biso   1.000  C
  H210     1.0000 0.25000  0.88550  0.75000  Biso   1.000  H
  C293     1.0000 0.75000  0.64324  0.25000  Biso   1.000  C
  C294     1.0000 0.75000  0.72769  0.25000  Biso   1.000  C
  H211     1.0000 0.75000  0.61450  0.25000  Biso   1.000  H
  C295     1.0000 0.75000  0.14324  0.75000  Biso   1.000  C
  C296     1.0000 0.75000  0.22769  0.75000  Biso   1.000  C
  H212     1.0000 0.75000  0.11450  0.75000  Biso   1.000  H
  C297     1.0000 0.25000  0.14324  0.25000  Biso   1.000  C
  C298     1.0000 0.25000  0.22769  0.25000  Biso   1.000  C
  H213     1.0000 0.25000  0.11450  0.25000  Biso   1.000  H
  C299     1.0000 0.75000  0.35676  0.75000  Biso   1.000  C
  C300     1.0000 0.75000  0.27231  0.75000  Biso   1.000  C
  H214     1.0000 0.75000  0.38550  0.75000  Biso   1.000  H
  C301     1.0000 0.75000  0.85676  0.25000  Biso   1.000  C
  C302     1.0000 0.75000  0.77231  0.25000  Biso   1.000  C
  H215     1.0000 0.75000  0.88550  0.25000  Biso   1.000  H
  C303     1.0000 0.25000  0.64324  0.75000  Biso   1.000  C
  C304     1.0000 0.25000  0.72769  0.75000  Biso   1.000  C
  H216     1.0000 0.25000  0.61450  0.75000  Biso   1.000  H
  C305     1.0000 0.75000  0.64324  0.75000  Biso   1.000  C
  C306     1.0000 0.75000  0.72769  0.75000  Biso   1.000  C
  H217     1.0000 0.75000  0.61450  0.75000  Biso   1.000  H
  C307     1.0000 0.75000  0.14324  0.25000  Biso   1.000  C
  C308     1.0000 0.75000  0.22769  0.25000  Biso   1.000  C
  H218     1.0000 0.75000  0.11450  0.25000  Biso   1.000  H
  C309     1.0000 0.25000  0.64324  0.25000  Biso   1.000  C
  C310     1.0000 0.25000  0.72769  0.25000  Biso   1.000  C
  H219     1.0000 0.25000  0.61450  0.25000  Biso   1.000  H
  C311     1.0000 0.25000  0.35676  0.75000  Biso   1.000  C
  C312     1.0000 0.25000  0.27231  0.75000  Biso   1.000  C
  H220     1.0000 0.25000  0.38550  0.75000  Biso   1.000  H
  C313     1.0000 0.25000  0.85676  0.25000  Biso   1.000  C
  C314     1.0000 0.25000  0.77231  0.25000  Biso   1.000  C
  H221     1.0000 0.25000  0.88550  0.25000  Biso   1.000  H
  C315     1.0000 0.25000  0.14324  0.75000  Biso   1.000  C
  C316     1.0000 0.25000  0.22769  0.75000  Biso   1.000  C
  H222     1.0000 0.25000  0.11450  0.75000  Biso   1.000  H
  C317     1.0000 0.75000  0.35676  0.25000  Biso   1.000  C
  C318     1.0000 0.75000  0.27231  0.25000  Biso   1.000  C
  H223     1.0000 0.75000  0.38550  0.25000  Biso   1.000  H
  C319     1.0000 0.75000  0.85676  0.75000  Biso   1.000  C
  C320     1.0000 0.75000  0.77231  0.75000  Biso   1.000  C
  H224     1.0000 0.75000  0.88550  0.75000  Biso   1.000  H
