data_image0
_cell_length_a       27.09
_cell_length_b       38.276
_cell_length_c       19.107
_cell_angle_alpha    90
_cell_angle_beta     90
_cell_angle_gamma    90

_symmetry_space_group_name_H-M    "P 1"
_symmetry_int_tables_number       1

loop_
  _symmetry_equiv_pos_as_xyz
  'x, y, z'

loop_
  _atom_site_label
  _atom_site_occupancy
  _atom_site_fract_x
  _atom_site_fract_y
  _atom_site_fract_z
  _atom_site_thermal_displace_type
  _atom_site_B_iso_or_equiv
  _atom_site_type_symbol
  O1       1.0000 0.40780  0.38308  0.14720  Biso   1.000  O
  N1       1.0000 0.44646  0.44708  0.30210  Biso   1.000  N
  C1       1.0000 0.31430  0.30066  0.08010  Biso   1.000  C
  H1       1.0000 0.28600  0.30120  0.10780  Biso   1.000  H
  O2       1.0000 0.66551  0.62922  0.40410  Biso   1.000  O
  C2       1.0000 0.35300  0.32250  0.09870  Biso   1.000  C
  N2       1.0000 0.44400  0.42373  0.35630  Biso   1.000  N
  N3       1.0000 0.41120  0.40021  0.34300  Biso   1.000  N
  C3       1.0000 0.35610  0.27858  0.98690  Biso   1.000  C
  H2       1.0000 0.35770  0.26350  0.94890  Biso   1.000  H
  N4       1.0000 0.39170  0.40796  0.28070  Biso   1.000  N
  C4       1.0000 0.39650  0.29964  0.00120  Biso   1.000  C
  H3       1.0000 0.42440  0.29860  0.97300  Biso   1.000  H
  N5       1.0000 0.34610  0.34317  0.15900  Biso   1.000  N
  H4       1.0000 0.32180  0.33750  0.18570  Biso   1.000  H
  N6       1.0000 0.31450  0.27911  0.02620  Biso   1.000  N
  N7       1.0000 0.55890  0.52519  0.30620  Biso   1.000  N
  N8       1.0000 0.60080  0.59258  0.42640  Biso   1.000  N
  H5       1.0000 0.57830  0.58810  0.45700  Biso   1.000  H
  N9       1.0000 0.65068  0.66594  0.52440  Biso   1.000  N
  C5       1.0000 0.39500  0.32200  0.05720  Biso   1.000  C
  H6       1.0000 0.42160  0.33650  0.06720  Biso   1.000  H
  N10      1.0000 0.66420  0.66921  0.59250  Biso   1.000  N
  C6       1.0000 0.37310  0.37058  0.17910  Biso   1.000  C
  N11      1.0000 0.69647  0.69456  0.59490  Biso   1.000  N
  C7       1.0000 0.35400  0.38557  0.24800  Biso   1.000  C
  H7       1.0000 0.32440  0.39910  0.23930  Biso   1.000  H
  H8       1.0000 0.34550  0.36660  0.27950  Biso   1.000  H
  N12      1.0000 0.70351  0.70790  0.53010  Biso   1.000  N
  C8       1.0000 0.41380  0.43663  0.25590  Biso   1.000  C
  H9       1.0000 0.40720  0.44730  0.21320  Biso   1.000  H
  C9       1.0000 0.59370  0.52672  0.25700  Biso   1.000  C
  H10      1.0000 0.59040  0.51260  0.21770  Biso   1.000  H
  C10      1.0000 0.63450  0.54810  0.26160  Biso   1.000  C
  H11      1.0000 0.65880  0.54720  0.22730  Biso   1.000  H
  C11      1.0000 0.63920  0.57080  0.31680  Biso   1.000  C
  H12      1.0000 0.66590  0.58600  0.31970  Biso   1.000  H
  C12      1.0000 0.56430  0.54687  0.36110  Biso   1.000  C
  H13      1.0000 0.54080  0.54610  0.39650  Biso   1.000  H
  C13      1.0000 0.60340  0.57051  0.36780  Biso   1.000  C
  C14      1.0000 0.63040  0.62007  0.43860  Biso   1.000  C
  C15      1.0000 0.61390  0.64068  0.50420  Biso   1.000  C
  H14      1.0000 0.58300  0.65260  0.49450  Biso   1.000  H
  H15      1.0000 0.60820  0.62450  0.54260  Biso   1.000  H
  C16      1.0000 0.67470  0.68991  0.48730  Biso   1.000  C
  H16      1.0000 0.67170  0.69340  0.43940  Biso   1.000  H
  O3       1.0000 0.09220  0.61692  0.64720  Biso   1.000  O
  N13      1.0000 0.05354  0.55292  0.80210  Biso   1.000  N
  C17      1.0000 0.18570  0.69934  0.58010  Biso   1.000  C
  H17      1.0000 0.21400  0.69880  0.60780  Biso   1.000  H
  O4       1.0000 0.83449  0.37078  0.90410  Biso   1.000  O
  C18      1.0000 0.14700  0.67750  0.59870  Biso   1.000  C
  N14      1.0000 0.05600  0.57627  0.85630  Biso   1.000  N
  N15      1.0000 0.08880  0.59979  0.84300  Biso   1.000  N
  C19      1.0000 0.14390  0.72142  0.48690  Biso   1.000  C
  H18      1.0000 0.14230  0.73650  0.44890  Biso   1.000  H
  N16      1.0000 0.10830  0.59204  0.78070  Biso   1.000  N
  C20      1.0000 0.10350  0.70036  0.50120  Biso   1.000  C
  H19      1.0000 0.07560  0.70140  0.47300  Biso   1.000  H
  N17      1.0000 0.15390  0.65683  0.65900  Biso   1.000  N
  H20      1.0000 0.17820  0.66250  0.68570  Biso   1.000  H
  N18      1.0000 0.18550  0.72089  0.52620  Biso   1.000  N
  N19      1.0000 0.94110  0.47481  0.80620  Biso   1.000  N
  N20      1.0000 0.89920  0.40742  0.92640  Biso   1.000  N
  H21      1.0000 0.92170  0.41190  0.95700  Biso   1.000  H
  N21      1.0000 0.84932  0.33406  0.02440  Biso   1.000  N
  C21      1.0000 0.10500  0.67800  0.55720  Biso   1.000  C
  H22      1.0000 0.07840  0.66350  0.56720  Biso   1.000  H
  N22      1.0000 0.83580  0.33079  0.09250  Biso   1.000  N
  C22      1.0000 0.12690  0.62942  0.67910  Biso   1.000  C
  N23      1.0000 0.80353  0.30544  0.09490  Biso   1.000  N
  C23      1.0000 0.14600  0.61443  0.74800  Biso   1.000  C
  H23      1.0000 0.17560  0.60090  0.73930  Biso   1.000  H
  H24      1.0000 0.15450  0.63340  0.77950  Biso   1.000  H
  N24      1.0000 0.79649  0.29210  0.03010  Biso   1.000  N
  C24      1.0000 0.08620  0.56337  0.75590  Biso   1.000  C
  H25      1.0000 0.09280  0.55270  0.71320  Biso   1.000  H
  C25      1.0000 0.90630  0.47328  0.75700  Biso   1.000  C
  H26      1.0000 0.90960  0.48740  0.71770  Biso   1.000  H
  C26      1.0000 0.86550  0.45190  0.76160  Biso   1.000  C
  H27      1.0000 0.84120  0.45280  0.72730  Biso   1.000  H
  C27      1.0000 0.86080  0.42920  0.81680  Biso   1.000  C
  H28      1.0000 0.83410  0.41400  0.81970  Biso   1.000  H
  C28      1.0000 0.93570  0.45313  0.86110  Biso   1.000  C
  H29      1.0000 0.95920  0.45390  0.89650  Biso   1.000  H
  C29      1.0000 0.89660  0.42949  0.86780  Biso   1.000  C
  C30      1.0000 0.86960  0.37993  0.93860  Biso   1.000  C
  C31      1.0000 0.88610  0.35932  0.00420  Biso   1.000  C
  H30      1.0000 0.91700  0.34740  0.99450  Biso   1.000  H
  H31      1.0000 0.89180  0.37550  0.04260  Biso   1.000  H
  C32      1.0000 0.82530  0.31009  0.98730  Biso   1.000  C
  H32      1.0000 0.82830  0.30660  0.93940  Biso   1.000  H
  O5       1.0000 0.59220  0.88308  0.35280  Biso   1.000  O
  N25      1.0000 0.55354  0.94708  0.19790  Biso   1.000  N
  C33      1.0000 0.68570  0.80066  0.41990  Biso   1.000  C
  H33      1.0000 0.71400  0.80120  0.39220  Biso   1.000  H
  O6       1.0000 0.33449  0.12922  0.09590  Biso   1.000  O
  C34      1.0000 0.64700  0.82250  0.40130  Biso   1.000  C
  N26      1.0000 0.55600  0.92373  0.14370  Biso   1.000  N
  N27      1.0000 0.58880  0.90021  0.15700  Biso   1.000  N
  C35      1.0000 0.64390  0.77858  0.51310  Biso   1.000  C
  H34      1.0000 0.64230  0.76350  0.55110  Biso   1.000  H
  N28      1.0000 0.60830  0.90796  0.21930  Biso   1.000  N
  C36      1.0000 0.60350  0.79964  0.49880  Biso   1.000  C
  H35      1.0000 0.57560  0.79860  0.52700  Biso   1.000  H
  N29      1.0000 0.65390  0.84317  0.34100  Biso   1.000  N
  H36      1.0000 0.67820  0.83750  0.31430  Biso   1.000  H
  N30      1.0000 0.68550  0.77911  0.47380  Biso   1.000  N
  N31      1.0000 0.44110  0.02519  0.19380  Biso   1.000  N
  N32      1.0000 0.39920  0.09258  0.07360  Biso   1.000  N
  H37      1.0000 0.42170  0.08810  0.04300  Biso   1.000  H
  N33      1.0000 0.34932  0.16594  0.97560  Biso   1.000  N
  C37      1.0000 0.60500  0.82200  0.44280  Biso   1.000  C
  H38      1.0000 0.57840  0.83650  0.43280  Biso   1.000  H
  N34      1.0000 0.33580  0.16921  0.90750  Biso   1.000  N
  C38      1.0000 0.62690  0.87058  0.32090  Biso   1.000  C
  N35      1.0000 0.30353  0.19456  0.90510  Biso   1.000  N
  C39      1.0000 0.64600  0.88557  0.25200  Biso   1.000  C
  H39      1.0000 0.67560  0.89910  0.26070  Biso   1.000  H
  H40      1.0000 0.65450  0.86660  0.22050  Biso   1.000  H
  N36      1.0000 0.29649  0.20790  0.96990  Biso   1.000  N
  C40      1.0000 0.58620  0.93663  0.24410  Biso   1.000  C
  H41      1.0000 0.59280  0.94730  0.28680  Biso   1.000  H
  C41      1.0000 0.40630  0.02672  0.24300  Biso   1.000  C
  H42      1.0000 0.40960  0.01260  0.28230  Biso   1.000  H
  C42      1.0000 0.36550  0.04810  0.23840  Biso   1.000  C
  H43      1.0000 0.34120  0.04720  0.27270  Biso   1.000  H
  C43      1.0000 0.36080  0.07080  0.18320  Biso   1.000  C
  H44      1.0000 0.33410  0.08600  0.18030  Biso   1.000  H
  C44      1.0000 0.43570  0.04687  0.13890  Biso   1.000  C
  H45      1.0000 0.45920  0.04610  0.10350  Biso   1.000  H
  C45      1.0000 0.39660  0.07051  0.13220  Biso   1.000  C
  C46      1.0000 0.36960  0.12007  0.06140  Biso   1.000  C
  C47      1.0000 0.38610  0.14068  0.99580  Biso   1.000  C
  H46      1.0000 0.41700  0.15260  0.00550  Biso   1.000  H
  H47      1.0000 0.39180  0.12450  0.95740  Biso   1.000  H
  C48      1.0000 0.32530  0.18991  0.01270  Biso   1.000  C
  H48      1.0000 0.32830  0.19340  0.06060  Biso   1.000  H
  O7       1.0000 0.90780  0.11692  0.85280  Biso   1.000  O
  N37      1.0000 0.94646  0.05292  0.69790  Biso   1.000  N
  C49      1.0000 0.81430  0.19934  0.91990  Biso   1.000  C
  H49      1.0000 0.78600  0.19880  0.89220  Biso   1.000  H
  O8       1.0000 0.16551  0.87078  0.59590  Biso   1.000  O
  C50      1.0000 0.85300  0.17750  0.90130  Biso   1.000  C
  N38      1.0000 0.94400  0.07627  0.64370  Biso   1.000  N
  N39      1.0000 0.91120  0.09979  0.65700  Biso   1.000  N
  C51      1.0000 0.85610  0.22142  0.01310  Biso   1.000  C
  H50      1.0000 0.85770  0.23650  0.05110  Biso   1.000  H
  N40      1.0000 0.89170  0.09204  0.71930  Biso   1.000  N
  C52      1.0000 0.89650  0.20036  0.99880  Biso   1.000  C
  H51      1.0000 0.92440  0.20140  0.02700  Biso   1.000  H
  N41      1.0000 0.84610  0.15683  0.84100  Biso   1.000  N
  H52      1.0000 0.82180  0.16250  0.81430  Biso   1.000  H
  N42      1.0000 0.81450  0.22089  0.97380  Biso   1.000  N
  N43      1.0000 0.05890  0.97481  0.69380  Biso   1.000  N
  N44      1.0000 0.10080  0.90742  0.57360  Biso   1.000  N
  H53      1.0000 0.07830  0.91190  0.54300  Biso   1.000  H
  N45      1.0000 0.15068  0.83406  0.47560  Biso   1.000  N
  C53      1.0000 0.89500  0.17800  0.94280  Biso   1.000  C
  H54      1.0000 0.92160  0.16350  0.93280  Biso   1.000  H
  N46      1.0000 0.16420  0.83079  0.40750  Biso   1.000  N
  C54      1.0000 0.87310  0.12942  0.82090  Biso   1.000  C
  N47      1.0000 0.19647  0.80544  0.40510  Biso   1.000  N
  C55      1.0000 0.85400  0.11443  0.75200  Biso   1.000  C
  H55      1.0000 0.82440  0.10090  0.76070  Biso   1.000  H
  H56      1.0000 0.84550  0.13340  0.72050  Biso   1.000  H
  N48      1.0000 0.20351  0.79210  0.46990  Biso   1.000  N
  C56      1.0000 0.91380  0.06337  0.74410  Biso   1.000  C
  H57      1.0000 0.90720  0.05270  0.78680  Biso   1.000  H
  C57      1.0000 0.09370  0.97328  0.74300  Biso   1.000  C
  H58      1.0000 0.09040  0.98740  0.78230  Biso   1.000  H
  C58      1.0000 0.13450  0.95190  0.73840  Biso   1.000  C
  H59      1.0000 0.15880  0.95280  0.77270  Biso   1.000  H
  C59      1.0000 0.13920  0.92920  0.68320  Biso   1.000  C
  H60      1.0000 0.16590  0.91400  0.68030  Biso   1.000  H
  C60      1.0000 0.06430  0.95313  0.63890  Biso   1.000  C
  H61      1.0000 0.04080  0.95390  0.60350  Biso   1.000  H
  C61      1.0000 0.10340  0.92949  0.63220  Biso   1.000  C
  C62      1.0000 0.13040  0.87993  0.56140  Biso   1.000  C
  C63      1.0000 0.11390  0.85932  0.49580  Biso   1.000  C
  H62      1.0000 0.08300  0.84740  0.50550  Biso   1.000  H
  H63      1.0000 0.10820  0.87550  0.45740  Biso   1.000  H
  C64      1.0000 0.17470  0.81009  0.51270  Biso   1.000  C
  H64      1.0000 0.17170  0.80660  0.56060  Biso   1.000  H
  O9       1.0000 0.09220  0.11692  0.85280  Biso   1.000  O
  N49      1.0000 0.05354  0.05292  0.69790  Biso   1.000  N
  C65      1.0000 0.18570  0.19934  0.91990  Biso   1.000  C
  H65      1.0000 0.21400  0.19880  0.89220  Biso   1.000  H
  O10      1.0000 0.83449  0.87078  0.59590  Biso   1.000  O
  C66      1.0000 0.14700  0.17750  0.90130  Biso   1.000  C
  N50      1.0000 0.05600  0.07627  0.64370  Biso   1.000  N
  N51      1.0000 0.08880  0.09979  0.65700  Biso   1.000  N
  C67      1.0000 0.14390  0.22142  0.01310  Biso   1.000  C
  H66      1.0000 0.14230  0.23650  0.05110  Biso   1.000  H
  N52      1.0000 0.10830  0.09204  0.71930  Biso   1.000  N
  C68      1.0000 0.10350  0.20036  0.99880  Biso   1.000  C
  H67      1.0000 0.07560  0.20140  0.02700  Biso   1.000  H
  N53      1.0000 0.15390  0.15683  0.84100  Biso   1.000  N
  H68      1.0000 0.17820  0.16250  0.81430  Biso   1.000  H
  N54      1.0000 0.18550  0.22089  0.97380  Biso   1.000  N
  N55      1.0000 0.94110  0.97481  0.69380  Biso   1.000  N
  N56      1.0000 0.89920  0.90742  0.57360  Biso   1.000  N
  H69      1.0000 0.92170  0.91190  0.54300  Biso   1.000  H
  N57      1.0000 0.84932  0.83406  0.47560  Biso   1.000  N
  C69      1.0000 0.10500  0.17800  0.94280  Biso   1.000  C
  H70      1.0000 0.07840  0.16350  0.93280  Biso   1.000  H
  N58      1.0000 0.83580  0.83079  0.40750  Biso   1.000  N
  C70      1.0000 0.12690  0.12942  0.82090  Biso   1.000  C
  N59      1.0000 0.80353  0.80544  0.40510  Biso   1.000  N
  C71      1.0000 0.14600  0.11443  0.75200  Biso   1.000  C
  H71      1.0000 0.17560  0.10090  0.76070  Biso   1.000  H
  H72      1.0000 0.15450  0.13340  0.72050  Biso   1.000  H
  N60      1.0000 0.79649  0.79210  0.46990  Biso   1.000  N
  C72      1.0000 0.08620  0.06337  0.74410  Biso   1.000  C
  H73      1.0000 0.09280  0.05270  0.78680  Biso   1.000  H
  C73      1.0000 0.90630  0.97328  0.74300  Biso   1.000  C
  H74      1.0000 0.90960  0.98740  0.78230  Biso   1.000  H
  C74      1.0000 0.86550  0.95190  0.73840  Biso   1.000  C
  H75      1.0000 0.84120  0.95280  0.77270  Biso   1.000  H
  C75      1.0000 0.86080  0.92920  0.68320  Biso   1.000  C
  H76      1.0000 0.83410  0.91400  0.68030  Biso   1.000  H
  C76      1.0000 0.93570  0.95313  0.63890  Biso   1.000  C
  H77      1.0000 0.95920  0.95390  0.60350  Biso   1.000  H
  C77      1.0000 0.89660  0.92949  0.63220  Biso   1.000  C
  C78      1.0000 0.86960  0.87993  0.56140  Biso   1.000  C
  C79      1.0000 0.88610  0.85932  0.49580  Biso   1.000  C
  H78      1.0000 0.91700  0.84740  0.50550  Biso   1.000  H
  H79      1.0000 0.89180  0.87550  0.45740  Biso   1.000  H
  C80      1.0000 0.82530  0.81009  0.51270  Biso   1.000  C
  H80      1.0000 0.82830  0.80660  0.56060  Biso   1.000  H
  O11      1.0000 0.40780  0.88308  0.35280  Biso   1.000  O
  N61      1.0000 0.44646  0.94708  0.19790  Biso   1.000  N
  C81      1.0000 0.31430  0.80066  0.41990  Biso   1.000  C
  H81      1.0000 0.28600  0.80120  0.39220  Biso   1.000  H
  O12      1.0000 0.66551  0.12922  0.09590  Biso   1.000  O
  C82      1.0000 0.35300  0.82250  0.40130  Biso   1.000  C
  N62      1.0000 0.44400  0.92373  0.14370  Biso   1.000  N
  N63      1.0000 0.41120  0.90021  0.15700  Biso   1.000  N
  C83      1.0000 0.35610  0.77858  0.51310  Biso   1.000  C
  H82      1.0000 0.35770  0.76350  0.55110  Biso   1.000  H
  N64      1.0000 0.39170  0.90796  0.21930  Biso   1.000  N
  C84      1.0000 0.39650  0.79964  0.49880  Biso   1.000  C
  H83      1.0000 0.42440  0.79860  0.52700  Biso   1.000  H
  N65      1.0000 0.34610  0.84317  0.34100  Biso   1.000  N
  H84      1.0000 0.32180  0.83750  0.31430  Biso   1.000  H
  N66      1.0000 0.31450  0.77911  0.47380  Biso   1.000  N
  N67      1.0000 0.55890  0.02519  0.19380  Biso   1.000  N
  N68      1.0000 0.60080  0.09258  0.07360  Biso   1.000  N
  H85      1.0000 0.57830  0.08810  0.04300  Biso   1.000  H
  N69      1.0000 0.65068  0.16594  0.97560  Biso   1.000  N
  C85      1.0000 0.39500  0.82200  0.44280  Biso   1.000  C
  H86      1.0000 0.42160  0.83650  0.43280  Biso   1.000  H
  N70      1.0000 0.66420  0.16921  0.90750  Biso   1.000  N
  C86      1.0000 0.37310  0.87058  0.32090  Biso   1.000  C
  N71      1.0000 0.69647  0.19456  0.90510  Biso   1.000  N
  C87      1.0000 0.35400  0.88557  0.25200  Biso   1.000  C
  H87      1.0000 0.32440  0.89910  0.26070  Biso   1.000  H
  H88      1.0000 0.34550  0.86660  0.22050  Biso   1.000  H
  N72      1.0000 0.70351  0.20790  0.96990  Biso   1.000  N
  C88      1.0000 0.41380  0.93663  0.24410  Biso   1.000  C
  H89      1.0000 0.40720  0.94730  0.28680  Biso   1.000  H
  C89      1.0000 0.59370  0.02672  0.24300  Biso   1.000  C
  H90      1.0000 0.59040  0.01260  0.28230  Biso   1.000  H
  C90      1.0000 0.63450  0.04810  0.23840  Biso   1.000  C
  H91      1.0000 0.65880  0.04720  0.27270  Biso   1.000  H
  C91      1.0000 0.63920  0.07080  0.18320  Biso   1.000  C
  H92      1.0000 0.66590  0.08600  0.18030  Biso   1.000  H
  C92      1.0000 0.56430  0.04687  0.13890  Biso   1.000  C
  H93      1.0000 0.54080  0.04610  0.10350  Biso   1.000  H
  C93      1.0000 0.60340  0.07051  0.13220  Biso   1.000  C
  C94      1.0000 0.63040  0.12007  0.06140  Biso   1.000  C
  C95      1.0000 0.61390  0.14068  0.99580  Biso   1.000  C
  H94      1.0000 0.58300  0.15260  0.00550  Biso   1.000  H
  H95      1.0000 0.60820  0.12450  0.95740  Biso   1.000  H
  C96      1.0000 0.67470  0.18991  0.01270  Biso   1.000  C
  H96      1.0000 0.67170  0.19340  0.06060  Biso   1.000  H
  O13      1.0000 0.90780  0.61692  0.64720  Biso   1.000  O
  N73      1.0000 0.94646  0.55292  0.80210  Biso   1.000  N
  C97      1.0000 0.81430  0.69934  0.58010  Biso   1.000  C
  H97      1.0000 0.78600  0.69880  0.60780  Biso   1.000  H
  O14      1.0000 0.16551  0.37078  0.90410  Biso   1.000  O
  C98      1.0000 0.85300  0.67750  0.59870  Biso   1.000  C
  N74      1.0000 0.94400  0.57627  0.85630  Biso   1.000  N
  N75      1.0000 0.91120  0.59979  0.84300  Biso   1.000  N
  C99      1.0000 0.85610  0.72142  0.48690  Biso   1.000  C
  H98      1.0000 0.85770  0.73650  0.44890  Biso   1.000  H
  N76      1.0000 0.89170  0.59204  0.78070  Biso   1.000  N
  C100     1.0000 0.89650  0.70036  0.50120  Biso   1.000  C
  H99      1.0000 0.92440  0.70140  0.47300  Biso   1.000  H
  N77      1.0000 0.84610  0.65683  0.65900  Biso   1.000  N
  H100     1.0000 0.82180  0.66250  0.68570  Biso   1.000  H
  N78      1.0000 0.81450  0.72089  0.52620  Biso   1.000  N
  N79      1.0000 0.05890  0.47481  0.80620  Biso   1.000  N
  N80      1.0000 0.10080  0.40742  0.92640  Biso   1.000  N
  H101     1.0000 0.07830  0.41190  0.95700  Biso   1.000  H
  N81      1.0000 0.15068  0.33406  0.02440  Biso   1.000  N
  C101     1.0000 0.89500  0.67800  0.55720  Biso   1.000  C
  H102     1.0000 0.92160  0.66350  0.56720  Biso   1.000  H
  N82      1.0000 0.16420  0.33079  0.09250  Biso   1.000  N
  C102     1.0000 0.87310  0.62942  0.67910  Biso   1.000  C
  N83      1.0000 0.19647  0.30544  0.09490  Biso   1.000  N
  C103     1.0000 0.85400  0.61443  0.74800  Biso   1.000  C
  H103     1.0000 0.82440  0.60090  0.73930  Biso   1.000  H
  H104     1.0000 0.84550  0.63340  0.77950  Biso   1.000  H
  N84      1.0000 0.20351  0.29210  0.03010  Biso   1.000  N
  C104     1.0000 0.91380  0.56337  0.75590  Biso   1.000  C
  H105     1.0000 0.90720  0.55270  0.71320  Biso   1.000  H
  C105     1.0000 0.09370  0.47328  0.75700  Biso   1.000  C
  H106     1.0000 0.09040  0.48740  0.71770  Biso   1.000  H
  C106     1.0000 0.13450  0.45190  0.76160  Biso   1.000  C
  H107     1.0000 0.15880  0.45280  0.72730  Biso   1.000  H
  C107     1.0000 0.13920  0.42920  0.81680  Biso   1.000  C
  H108     1.0000 0.16590  0.41400  0.81970  Biso   1.000  H
  C108     1.0000 0.06430  0.45313  0.86110  Biso   1.000  C
  H109     1.0000 0.04080  0.45390  0.89650  Biso   1.000  H
  C109     1.0000 0.10340  0.42949  0.86780  Biso   1.000  C
  C110     1.0000 0.13040  0.37993  0.93860  Biso   1.000  C
  C111     1.0000 0.11390  0.35932  0.00420  Biso   1.000  C
  H110     1.0000 0.08300  0.34740  0.99450  Biso   1.000  H
  H111     1.0000 0.10820  0.37550  0.04260  Biso   1.000  H
  C112     1.0000 0.17470  0.31009  0.98730  Biso   1.000  C
  H112     1.0000 0.17170  0.30660  0.93940  Biso   1.000  H
  O15      1.0000 0.59220  0.38308  0.14720  Biso   1.000  O
  N85      1.0000 0.55354  0.44708  0.30210  Biso   1.000  N
  C113     1.0000 0.68570  0.30066  0.08010  Biso   1.000  C
  H113     1.0000 0.71400  0.30120  0.10780  Biso   1.000  H
  O16      1.0000 0.33449  0.62922  0.40410  Biso   1.000  O
  C114     1.0000 0.64700  0.32250  0.09870  Biso   1.000  C
  N86      1.0000 0.55600  0.42373  0.35630  Biso   1.000  N
  N87      1.0000 0.58880  0.40021  0.34300  Biso   1.000  N
  C115     1.0000 0.64390  0.27858  0.98690  Biso   1.000  C
  H114     1.0000 0.64230  0.26350  0.94890  Biso   1.000  H
  N88      1.0000 0.60830  0.40796  0.28070  Biso   1.000  N
  C116     1.0000 0.60350  0.29964  0.00120  Biso   1.000  C
  H115     1.0000 0.57560  0.29860  0.97300  Biso   1.000  H
  N89      1.0000 0.65390  0.34317  0.15900  Biso   1.000  N
  H116     1.0000 0.67820  0.33750  0.18570  Biso   1.000  H
  N90      1.0000 0.68550  0.27911  0.02620  Biso   1.000  N
  N91      1.0000 0.44110  0.52519  0.30620  Biso   1.000  N
  N92      1.0000 0.39920  0.59258  0.42640  Biso   1.000  N
  H117     1.0000 0.42170  0.58810  0.45700  Biso   1.000  H
  N93      1.0000 0.34932  0.66594  0.52440  Biso   1.000  N
  C117     1.0000 0.60500  0.32200  0.05720  Biso   1.000  C
  H118     1.0000 0.57840  0.33650  0.06720  Biso   1.000  H
  N94      1.0000 0.33580  0.66921  0.59250  Biso   1.000  N
  C118     1.0000 0.62690  0.37058  0.17910  Biso   1.000  C
  N95      1.0000 0.30353  0.69456  0.59490  Biso   1.000  N
  C119     1.0000 0.64600  0.38557  0.24800  Biso   1.000  C
  H119     1.0000 0.67560  0.39910  0.23930  Biso   1.000  H
  H120     1.0000 0.65450  0.36660  0.27950  Biso   1.000  H
  N96      1.0000 0.29649  0.70790  0.53010  Biso   1.000  N
  C120     1.0000 0.58620  0.43663  0.25590  Biso   1.000  C
  H121     1.0000 0.59280  0.44730  0.21320  Biso   1.000  H
  C121     1.0000 0.40630  0.52672  0.25700  Biso   1.000  C
  H122     1.0000 0.40960  0.51260  0.21770  Biso   1.000  H
  C122     1.0000 0.36550  0.54810  0.26160  Biso   1.000  C
  H123     1.0000 0.34120  0.54720  0.22730  Biso   1.000  H
  C123     1.0000 0.36080  0.57080  0.31680  Biso   1.000  C
  H124     1.0000 0.33410  0.58600  0.31970  Biso   1.000  H
  C124     1.0000 0.43570  0.54687  0.36110  Biso   1.000  C
  H125     1.0000 0.45920  0.54610  0.39650  Biso   1.000  H
  C125     1.0000 0.39660  0.57051  0.36780  Biso   1.000  C
  C126     1.0000 0.36960  0.62007  0.43860  Biso   1.000  C
  C127     1.0000 0.38610  0.64068  0.50420  Biso   1.000  C
  H126     1.0000 0.41700  0.65260  0.49450  Biso   1.000  H
  H127     1.0000 0.39180  0.62450  0.54260  Biso   1.000  H
  C128     1.0000 0.32530  0.68991  0.48730  Biso   1.000  C
  H128     1.0000 0.32830  0.69340  0.43940  Biso   1.000  H
  Co1      1.0000 0.50000  0.48789  0.30238  Biso   1.000  Co
  Co2      1.0000 0.00000  0.51211  0.80238  Biso   1.000  Co
  Co3      1.0000 0.50000  0.98789  0.19762  Biso   1.000  Co
  Co4      1.0000 0.00000  0.01211  0.69762  Biso   1.000  Co
  Co5      1.0000 0.75000  0.75000  0.50000  Biso   1.000  Co
  Co6      1.0000 0.25000  0.25000  0.00000  Biso   1.000  Co
  Co7      1.0000 0.75000  0.25000  0.00000  Biso   1.000  Co
  Co8      1.0000 0.25000  0.75000  0.50000  Biso   1.000  Co
  O17      1.0000 0.90780  0.88308  0.14720  Biso   1.000  O
  N97      1.0000 0.94646  0.94708  0.30210  Biso   1.000  N
  C129     1.0000 0.81430  0.80066  0.08010  Biso   1.000  C
  H129     1.0000 0.78600  0.80120  0.10780  Biso   1.000  H
  O18      1.0000 0.16551  0.12922  0.40410  Biso   1.000  O
  C130     1.0000 0.85300  0.82250  0.09870  Biso   1.000  C
  N98      1.0000 0.94400  0.92373  0.35630  Biso   1.000  N
  N99      1.0000 0.91120  0.90021  0.34300  Biso   1.000  N
  C131     1.0000 0.85610  0.77858  0.98690  Biso   1.000  C
  H130     1.0000 0.85770  0.76350  0.94890  Biso   1.000  H
  N100     1.0000 0.89170  0.90796  0.28070  Biso   1.000  N
  C132     1.0000 0.89650  0.79964  0.00120  Biso   1.000  C
  H131     1.0000 0.92440  0.79860  0.97300  Biso   1.000  H
  N101     1.0000 0.84610  0.84317  0.15900  Biso   1.000  N
  H132     1.0000 0.82180  0.83750  0.18570  Biso   1.000  H
  N102     1.0000 0.81450  0.77911  0.02620  Biso   1.000  N
  N103     1.0000 0.05890  0.02519  0.30620  Biso   1.000  N
  N104     1.0000 0.10080  0.09258  0.42640  Biso   1.000  N
  H133     1.0000 0.07830  0.08810  0.45700  Biso   1.000  H
  N105     1.0000 0.15068  0.16594  0.52440  Biso   1.000  N
  C133     1.0000 0.89500  0.82200  0.05720  Biso   1.000  C
  H134     1.0000 0.92160  0.83650  0.06720  Biso   1.000  H
  N106     1.0000 0.16420  0.16921  0.59250  Biso   1.000  N
  C134     1.0000 0.87310  0.87058  0.17910  Biso   1.000  C
  N107     1.0000 0.19647  0.19456  0.59490  Biso   1.000  N
  C135     1.0000 0.85400  0.88557  0.24800  Biso   1.000  C
  H135     1.0000 0.82440  0.89910  0.23930  Biso   1.000  H
  H136     1.0000 0.84550  0.86660  0.27950  Biso   1.000  H
  N108     1.0000 0.20351  0.20790  0.53010  Biso   1.000  N
  C136     1.0000 0.91380  0.93663  0.25590  Biso   1.000  C
  H137     1.0000 0.90720  0.94730  0.21320  Biso   1.000  H
  C137     1.0000 0.09370  0.02672  0.25700  Biso   1.000  C
  H138     1.0000 0.09040  0.01260  0.21770  Biso   1.000  H
  C138     1.0000 0.13450  0.04810  0.26160  Biso   1.000  C
  H139     1.0000 0.15880  0.04720  0.22730  Biso   1.000  H
  C139     1.0000 0.13920  0.07080  0.31680  Biso   1.000  C
  H140     1.0000 0.16590  0.08600  0.31970  Biso   1.000  H
  C140     1.0000 0.06430  0.04687  0.36110  Biso   1.000  C
  H141     1.0000 0.04080  0.04610  0.39650  Biso   1.000  H
  C141     1.0000 0.10340  0.07051  0.36780  Biso   1.000  C
  C142     1.0000 0.13040  0.12007  0.43860  Biso   1.000  C
  C143     1.0000 0.11390  0.14068  0.50420  Biso   1.000  C
  H142     1.0000 0.08300  0.15260  0.49450  Biso   1.000  H
  H143     1.0000 0.10820  0.12450  0.54260  Biso   1.000  H
  C144     1.0000 0.17470  0.18991  0.48730  Biso   1.000  C
  H144     1.0000 0.17170  0.19340  0.43940  Biso   1.000  H
  O19      1.0000 0.59220  0.11692  0.64720  Biso   1.000  O
  N109     1.0000 0.55354  0.05292  0.80210  Biso   1.000  N
  C145     1.0000 0.68570  0.19934  0.58010  Biso   1.000  C
  H145     1.0000 0.71400  0.19880  0.60780  Biso   1.000  H
  O20      1.0000 0.33449  0.87078  0.90410  Biso   1.000  O
  C146     1.0000 0.64700  0.17750  0.59870  Biso   1.000  C
  N110     1.0000 0.55600  0.07627  0.85630  Biso   1.000  N
  N111     1.0000 0.58880  0.09979  0.84300  Biso   1.000  N
  C147     1.0000 0.64390  0.22142  0.48690  Biso   1.000  C
  H146     1.0000 0.64230  0.23650  0.44890  Biso   1.000  H
  N112     1.0000 0.60830  0.09204  0.78070  Biso   1.000  N
  C148     1.0000 0.60350  0.20036  0.50120  Biso   1.000  C
  H147     1.0000 0.57560  0.20140  0.47300  Biso   1.000  H
  N113     1.0000 0.65390  0.15683  0.65900  Biso   1.000  N
  H148     1.0000 0.67820  0.16250  0.68570  Biso   1.000  H
  N114     1.0000 0.68550  0.22089  0.52620  Biso   1.000  N
  N115     1.0000 0.44110  0.97481  0.80620  Biso   1.000  N
  N116     1.0000 0.39920  0.90742  0.92640  Biso   1.000  N
  H149     1.0000 0.42170  0.91190  0.95700  Biso   1.000  H
  N117     1.0000 0.34932  0.83406  0.02440  Biso   1.000  N
  C149     1.0000 0.60500  0.17800  0.55720  Biso   1.000  C
  H150     1.0000 0.57840  0.16350  0.56720  Biso   1.000  H
  N118     1.0000 0.33580  0.83079  0.09250  Biso   1.000  N
  C150     1.0000 0.62690  0.12942  0.67910  Biso   1.000  C
  N119     1.0000 0.30353  0.80544  0.09490  Biso   1.000  N
  C151     1.0000 0.64600  0.11443  0.74800  Biso   1.000  C
  H151     1.0000 0.67560  0.10090  0.73930  Biso   1.000  H
  H152     1.0000 0.65450  0.13340  0.77950  Biso   1.000  H
  N120     1.0000 0.29649  0.79210  0.03010  Biso   1.000  N
  C152     1.0000 0.58620  0.06337  0.75590  Biso   1.000  C
  H153     1.0000 0.59280  0.05270  0.71320  Biso   1.000  H
  C153     1.0000 0.40630  0.97328  0.75700  Biso   1.000  C
  H154     1.0000 0.40960  0.98740  0.71770  Biso   1.000  H
  C154     1.0000 0.36550  0.95190  0.76160  Biso   1.000  C
  H155     1.0000 0.34120  0.95280  0.72730  Biso   1.000  H
  C155     1.0000 0.36080  0.92920  0.81680  Biso   1.000  C
  H156     1.0000 0.33410  0.91400  0.81970  Biso   1.000  H
  C156     1.0000 0.43570  0.95313  0.86110  Biso   1.000  C
  H157     1.0000 0.45920  0.95390  0.89650  Biso   1.000  H
  C157     1.0000 0.39660  0.92949  0.86780  Biso   1.000  C
  C158     1.0000 0.36960  0.87993  0.93860  Biso   1.000  C
  C159     1.0000 0.38610  0.85932  0.00420  Biso   1.000  C
  H158     1.0000 0.41700  0.84740  0.99450  Biso   1.000  H
  H159     1.0000 0.39180  0.87550  0.04260  Biso   1.000  H
  C160     1.0000 0.32530  0.81009  0.98730  Biso   1.000  C
  H160     1.0000 0.32830  0.80660  0.93940  Biso   1.000  H
  O21      1.0000 0.09220  0.38308  0.35280  Biso   1.000  O
  N121     1.0000 0.05354  0.44708  0.19790  Biso   1.000  N
  C161     1.0000 0.18570  0.30066  0.41990  Biso   1.000  C
  H161     1.0000 0.21400  0.30120  0.39220  Biso   1.000  H
  O22      1.0000 0.83449  0.62922  0.09590  Biso   1.000  O
  C162     1.0000 0.14700  0.32250  0.40130  Biso   1.000  C
  N122     1.0000 0.05600  0.42373  0.14370  Biso   1.000  N
  N123     1.0000 0.08880  0.40021  0.15700  Biso   1.000  N
  C163     1.0000 0.14390  0.27858  0.51310  Biso   1.000  C
  H162     1.0000 0.14230  0.26350  0.55110  Biso   1.000  H
  N124     1.0000 0.10830  0.40796  0.21930  Biso   1.000  N
  C164     1.0000 0.10350  0.29964  0.49880  Biso   1.000  C
  H163     1.0000 0.07560  0.29860  0.52700  Biso   1.000  H
  N125     1.0000 0.15390  0.34317  0.34100  Biso   1.000  N
  H164     1.0000 0.17820  0.33750  0.31430  Biso   1.000  H
  N126     1.0000 0.18550  0.27911  0.47380  Biso   1.000  N
  N127     1.0000 0.94110  0.52519  0.19380  Biso   1.000  N
  N128     1.0000 0.89920  0.59258  0.07360  Biso   1.000  N
  H165     1.0000 0.92170  0.58810  0.04300  Biso   1.000  H
  N129     1.0000 0.84932  0.66594  0.97560  Biso   1.000  N
  C165     1.0000 0.10500  0.32200  0.44280  Biso   1.000  C
  H166     1.0000 0.07840  0.33650  0.43280  Biso   1.000  H
  N130     1.0000 0.83580  0.66921  0.90750  Biso   1.000  N
  C166     1.0000 0.12690  0.37058  0.32090  Biso   1.000  C
  N131     1.0000 0.80353  0.69456  0.90510  Biso   1.000  N
  C167     1.0000 0.14600  0.38557  0.25200  Biso   1.000  C
  H167     1.0000 0.17560  0.39910  0.26070  Biso   1.000  H
  H168     1.0000 0.15450  0.36660  0.22050  Biso   1.000  H
  N132     1.0000 0.79649  0.70790  0.96990  Biso   1.000  N
  C168     1.0000 0.08620  0.43663  0.24410  Biso   1.000  C
  H169     1.0000 0.09280  0.44730  0.28680  Biso   1.000  H
  C169     1.0000 0.90630  0.52672  0.24300  Biso   1.000  C
  H170     1.0000 0.90960  0.51260  0.28230  Biso   1.000  H
  C170     1.0000 0.86550  0.54810  0.23840  Biso   1.000  C
  H171     1.0000 0.84120  0.54720  0.27270  Biso   1.000  H
  C171     1.0000 0.86080  0.57080  0.18320  Biso   1.000  C
  H172     1.0000 0.83410  0.58600  0.18030  Biso   1.000  H
  C172     1.0000 0.93570  0.54687  0.13890  Biso   1.000  C
  H173     1.0000 0.95920  0.54610  0.10350  Biso   1.000  H
  C173     1.0000 0.89660  0.57051  0.13220  Biso   1.000  C
  C174     1.0000 0.86960  0.62007  0.06140  Biso   1.000  C
  C175     1.0000 0.88610  0.64068  0.99580  Biso   1.000  C
  H174     1.0000 0.91700  0.65260  0.00550  Biso   1.000  H
  H175     1.0000 0.89180  0.62450  0.95740  Biso   1.000  H
  C176     1.0000 0.82530  0.68991  0.01270  Biso   1.000  C
  H176     1.0000 0.82830  0.69340  0.06060  Biso   1.000  H
  O23      1.0000 0.40780  0.61692  0.85280  Biso   1.000  O
  N133     1.0000 0.44646  0.55292  0.69790  Biso   1.000  N
  C177     1.0000 0.31430  0.69934  0.91990  Biso   1.000  C
  H177     1.0000 0.28600  0.69880  0.89220  Biso   1.000  H
  O24      1.0000 0.66551  0.37078  0.59590  Biso   1.000  O
  C178     1.0000 0.35300  0.67750  0.90130  Biso   1.000  C
  N134     1.0000 0.44400  0.57627  0.64370  Biso   1.000  N
  N135     1.0000 0.41120  0.59979  0.65700  Biso   1.000  N
  C179     1.0000 0.35610  0.72142  0.01310  Biso   1.000  C
  H178     1.0000 0.35770  0.73650  0.05110  Biso   1.000  H
  N136     1.0000 0.39170  0.59204  0.71930  Biso   1.000  N
  C180     1.0000 0.39650  0.70036  0.99880  Biso   1.000  C
  H179     1.0000 0.42440  0.70140  0.02700  Biso   1.000  H
  N137     1.0000 0.34610  0.65683  0.84100  Biso   1.000  N
  H180     1.0000 0.32180  0.66250  0.81430  Biso   1.000  H
  N138     1.0000 0.31450  0.72089  0.97380  Biso   1.000  N
  N139     1.0000 0.55890  0.47481  0.69380  Biso   1.000  N
  N140     1.0000 0.60080  0.40742  0.57360  Biso   1.000  N
  H181     1.0000 0.57830  0.41190  0.54300  Biso   1.000  H
  N141     1.0000 0.65068  0.33406  0.47560  Biso   1.000  N
  C181     1.0000 0.39500  0.67800  0.94280  Biso   1.000  C
  H182     1.0000 0.42160  0.66350  0.93280  Biso   1.000  H
  N142     1.0000 0.66420  0.33079  0.40750  Biso   1.000  N
  C182     1.0000 0.37310  0.62942  0.82090  Biso   1.000  C
  N143     1.0000 0.69647  0.30544  0.40510  Biso   1.000  N
  C183     1.0000 0.35400  0.61443  0.75200  Biso   1.000  C
  H183     1.0000 0.32440  0.60090  0.76070  Biso   1.000  H
  H184     1.0000 0.34550  0.63340  0.72050  Biso   1.000  H
  N144     1.0000 0.70351  0.29210  0.46990  Biso   1.000  N
  C184     1.0000 0.41380  0.56337  0.74410  Biso   1.000  C
  H185     1.0000 0.40720  0.55270  0.78680  Biso   1.000  H
  C185     1.0000 0.59370  0.47328  0.74300  Biso   1.000  C
  H186     1.0000 0.59040  0.48740  0.78230  Biso   1.000  H
  C186     1.0000 0.63450  0.45190  0.73840  Biso   1.000  C
  H187     1.0000 0.65880  0.45280  0.77270  Biso   1.000  H
  C187     1.0000 0.63920  0.42920  0.68320  Biso   1.000  C
  H188     1.0000 0.66590  0.41400  0.68030  Biso   1.000  H
  C188     1.0000 0.56430  0.45313  0.63890  Biso   1.000  C
  H189     1.0000 0.54080  0.45390  0.60350  Biso   1.000  H
  C189     1.0000 0.60340  0.42949  0.63220  Biso   1.000  C
  C190     1.0000 0.63040  0.37993  0.56140  Biso   1.000  C
  C191     1.0000 0.61390  0.35932  0.49580  Biso   1.000  C
  H190     1.0000 0.58300  0.34740  0.50550  Biso   1.000  H
  H191     1.0000 0.60820  0.37550  0.45740  Biso   1.000  H
  C192     1.0000 0.67470  0.31009  0.51270  Biso   1.000  C
  H192     1.0000 0.67170  0.30660  0.56060  Biso   1.000  H
  O25      1.0000 0.59220  0.61692  0.85280  Biso   1.000  O
  N145     1.0000 0.55354  0.55292  0.69790  Biso   1.000  N
  C193     1.0000 0.68570  0.69934  0.91990  Biso   1.000  C
  H193     1.0000 0.71400  0.69880  0.89220  Biso   1.000  H
  O26      1.0000 0.33449  0.37078  0.59590  Biso   1.000  O
  C194     1.0000 0.64700  0.67750  0.90130  Biso   1.000  C
  N146     1.0000 0.55600  0.57627  0.64370  Biso   1.000  N
  N147     1.0000 0.58880  0.59979  0.65700  Biso   1.000  N
  C195     1.0000 0.64390  0.72142  0.01310  Biso   1.000  C
  H194     1.0000 0.64230  0.73650  0.05110  Biso   1.000  H
  N148     1.0000 0.60830  0.59204  0.71930  Biso   1.000  N
  C196     1.0000 0.60350  0.70036  0.99880  Biso   1.000  C
  H195     1.0000 0.57560  0.70140  0.02700  Biso   1.000  H
  N149     1.0000 0.65390  0.65683  0.84100  Biso   1.000  N
  H196     1.0000 0.67820  0.66250  0.81430  Biso   1.000  H
  N150     1.0000 0.68550  0.72089  0.97380  Biso   1.000  N
  N151     1.0000 0.44110  0.47481  0.69380  Biso   1.000  N
  N152     1.0000 0.39920  0.40742  0.57360  Biso   1.000  N
  H197     1.0000 0.42170  0.41190  0.54300  Biso   1.000  H
  N153     1.0000 0.34932  0.33406  0.47560  Biso   1.000  N
  C197     1.0000 0.60500  0.67800  0.94280  Biso   1.000  C
  H198     1.0000 0.57840  0.66350  0.93280  Biso   1.000  H
  N154     1.0000 0.33580  0.33079  0.40750  Biso   1.000  N
  C198     1.0000 0.62690  0.62942  0.82090  Biso   1.000  C
  N155     1.0000 0.30353  0.30544  0.40510  Biso   1.000  N
  C199     1.0000 0.64600  0.61443  0.75200  Biso   1.000  C
  H199     1.0000 0.67560  0.60090  0.76070  Biso   1.000  H
  H200     1.0000 0.65450  0.63340  0.72050  Biso   1.000  H
  N156     1.0000 0.29649  0.29210  0.46990  Biso   1.000  N
  C200     1.0000 0.58620  0.56337  0.74410  Biso   1.000  C
  H201     1.0000 0.59280  0.55270  0.78680  Biso   1.000  H
  C201     1.0000 0.40630  0.47328  0.74300  Biso   1.000  C
  H202     1.0000 0.40960  0.48740  0.78230  Biso   1.000  H
  C202     1.0000 0.36550  0.45190  0.73840  Biso   1.000  C
  H203     1.0000 0.34120  0.45280  0.77270  Biso   1.000  H
  C203     1.0000 0.36080  0.42920  0.68320  Biso   1.000  C
  H204     1.0000 0.33410  0.41400  0.68030  Biso   1.000  H
  C204     1.0000 0.43570  0.45313  0.63890  Biso   1.000  C
  H205     1.0000 0.45920  0.45390  0.60350  Biso   1.000  H
  C205     1.0000 0.39660  0.42949  0.63220  Biso   1.000  C
  C206     1.0000 0.36960  0.37993  0.56140  Biso   1.000  C
  C207     1.0000 0.38610  0.35932  0.49580  Biso   1.000  C
  H206     1.0000 0.41700  0.34740  0.50550  Biso   1.000  H
  H207     1.0000 0.39180  0.37550  0.45740  Biso   1.000  H
  C208     1.0000 0.32530  0.31009  0.51270  Biso   1.000  C
  H208     1.0000 0.32830  0.30660  0.56060  Biso   1.000  H
  O27      1.0000 0.90780  0.38308  0.35280  Biso   1.000  O
  N157     1.0000 0.94646  0.44708  0.19790  Biso   1.000  N
  C209     1.0000 0.81430  0.30066  0.41990  Biso   1.000  C
  H209     1.0000 0.78600  0.30120  0.39220  Biso   1.000  H
  O28      1.0000 0.16551  0.62922  0.09590  Biso   1.000  O
  C210     1.0000 0.85300  0.32250  0.40130  Biso   1.000  C
  N158     1.0000 0.94400  0.42373  0.14370  Biso   1.000  N
  N159     1.0000 0.91120  0.40021  0.15700  Biso   1.000  N
  C211     1.0000 0.85610  0.27858  0.51310  Biso   1.000  C
  H210     1.0000 0.85770  0.26350  0.55110  Biso   1.000  H
  N160     1.0000 0.89170  0.40796  0.21930  Biso   1.000  N
  C212     1.0000 0.89650  0.29964  0.49880  Biso   1.000  C
  H211     1.0000 0.92440  0.29860  0.52700  Biso   1.000  H
  N161     1.0000 0.84610  0.34317  0.34100  Biso   1.000  N
  H212     1.0000 0.82180  0.33750  0.31430  Biso   1.000  H
  N162     1.0000 0.81450  0.27911  0.47380  Biso   1.000  N
  N163     1.0000 0.05890  0.52519  0.19380  Biso   1.000  N
  N164     1.0000 0.10080  0.59258  0.07360  Biso   1.000  N
  H213     1.0000 0.07830  0.58810  0.04300  Biso   1.000  H
  N165     1.0000 0.15068  0.66594  0.97560  Biso   1.000  N
  C213     1.0000 0.89500  0.32200  0.44280  Biso   1.000  C
  H214     1.0000 0.92160  0.33650  0.43280  Biso   1.000  H
  N166     1.0000 0.16420  0.66921  0.90750  Biso   1.000  N
  C214     1.0000 0.87310  0.37058  0.32090  Biso   1.000  C
  N167     1.0000 0.19647  0.69456  0.90510  Biso   1.000  N
  C215     1.0000 0.85400  0.38557  0.25200  Biso   1.000  C
  H215     1.0000 0.82440  0.39910  0.26070  Biso   1.000  H
  H216     1.0000 0.84550  0.36660  0.22050  Biso   1.000  H
  N168     1.0000 0.20351  0.70790  0.96990  Biso   1.000  N
  C216     1.0000 0.91380  0.43663  0.24410  Biso   1.000  C
  H217     1.0000 0.90720  0.44730  0.28680  Biso   1.000  H
  C217     1.0000 0.09370  0.52672  0.24300  Biso   1.000  C
  H218     1.0000 0.09040  0.51260  0.28230  Biso   1.000  H
  C218     1.0000 0.13450  0.54810  0.23840  Biso   1.000  C
  H219     1.0000 0.15880  0.54720  0.27270  Biso   1.000  H
  C219     1.0000 0.13920  0.57080  0.18320  Biso   1.000  C
  H220     1.0000 0.16590  0.58600  0.18030  Biso   1.000  H
  C220     1.0000 0.06430  0.54687  0.13890  Biso   1.000  C
  H221     1.0000 0.04080  0.54610  0.10350  Biso   1.000  H
  C221     1.0000 0.10340  0.57051  0.13220  Biso   1.000  C
  C222     1.0000 0.13040  0.62007  0.06140  Biso   1.000  C
  C223     1.0000 0.11390  0.64068  0.99580  Biso   1.000  C
  H222     1.0000 0.08300  0.65260  0.00550  Biso   1.000  H
  H223     1.0000 0.10820  0.62450  0.95740  Biso   1.000  H
  C224     1.0000 0.17470  0.68991  0.01270  Biso   1.000  C
  H224     1.0000 0.17170  0.69340  0.06060  Biso   1.000  H
  O29      1.0000 0.40780  0.11692  0.64720  Biso   1.000  O
  N169     1.0000 0.44646  0.05292  0.80210  Biso   1.000  N
  C225     1.0000 0.31430  0.19934  0.58010  Biso   1.000  C
  H225     1.0000 0.28600  0.19880  0.60780  Biso   1.000  H
  O30      1.0000 0.66551  0.87078  0.90410  Biso   1.000  O
  C226     1.0000 0.35300  0.17750  0.59870  Biso   1.000  C
  N170     1.0000 0.44400  0.07627  0.85630  Biso   1.000  N
  N171     1.0000 0.41120  0.09979  0.84300  Biso   1.000  N
  C227     1.0000 0.35610  0.22142  0.48690  Biso   1.000  C
  H226     1.0000 0.35770  0.23650  0.44890  Biso   1.000  H
  N172     1.0000 0.39170  0.09204  0.78070  Biso   1.000  N
  C228     1.0000 0.39650  0.20036  0.50120  Biso   1.000  C
  H227     1.0000 0.42440  0.20140  0.47300  Biso   1.000  H
  N173     1.0000 0.34610  0.15683  0.65900  Biso   1.000  N
  H228     1.0000 0.32180  0.16250  0.68570  Biso   1.000  H
  N174     1.0000 0.31450  0.22089  0.52620  Biso   1.000  N
  N175     1.0000 0.55890  0.97481  0.80620  Biso   1.000  N
  N176     1.0000 0.60080  0.90742  0.92640  Biso   1.000  N
  H229     1.0000 0.57830  0.91190  0.95700  Biso   1.000  H
  N177     1.0000 0.65068  0.83406  0.02440  Biso   1.000  N
  C229     1.0000 0.39500  0.17800  0.55720  Biso   1.000  C
  H230     1.0000 0.42160  0.16350  0.56720  Biso   1.000  H
  N178     1.0000 0.66420  0.83079  0.09250  Biso   1.000  N
  C230     1.0000 0.37310  0.12942  0.67910  Biso   1.000  C
  N179     1.0000 0.69647  0.80544  0.09490  Biso   1.000  N
  C231     1.0000 0.35400  0.11443  0.74800  Biso   1.000  C
  H231     1.0000 0.32440  0.10090  0.73930  Biso   1.000  H
  H232     1.0000 0.34550  0.13340  0.77950  Biso   1.000  H
  N180     1.0000 0.70351  0.79210  0.03010  Biso   1.000  N
  C232     1.0000 0.41380  0.06337  0.75590  Biso   1.000  C
  H233     1.0000 0.40720  0.05270  0.71320  Biso   1.000  H
  C233     1.0000 0.59370  0.97328  0.75700  Biso   1.000  C
  H234     1.0000 0.59040  0.98740  0.71770  Biso   1.000  H
  C234     1.0000 0.63450  0.95190  0.76160  Biso   1.000  C
  H235     1.0000 0.65880  0.95280  0.72730  Biso   1.000  H
  C235     1.0000 0.63920  0.92920  0.81680  Biso   1.000  C
  H236     1.0000 0.66590  0.91400  0.81970  Biso   1.000  H
  C236     1.0000 0.56430  0.95313  0.86110  Biso   1.000  C
  H237     1.0000 0.54080  0.95390  0.89650  Biso   1.000  H
  C237     1.0000 0.60340  0.92949  0.86780  Biso   1.000  C
  C238     1.0000 0.63040  0.87993  0.93860  Biso   1.000  C
  C239     1.0000 0.61390  0.85932  0.00420  Biso   1.000  C
  H238     1.0000 0.58300  0.84740  0.99450  Biso   1.000  H
  H239     1.0000 0.60820  0.87550  0.04260  Biso   1.000  H
  C240     1.0000 0.67470  0.81009  0.98730  Biso   1.000  C
  H240     1.0000 0.67170  0.80660  0.93940  Biso   1.000  H
  O31      1.0000 0.09220  0.88308  0.14720  Biso   1.000  O
  N181     1.0000 0.05354  0.94708  0.30210  Biso   1.000  N
  C241     1.0000 0.18570  0.80066  0.08010  Biso   1.000  C
  H241     1.0000 0.21400  0.80120  0.10780  Biso   1.000  H
  O32      1.0000 0.83449  0.12922  0.40410  Biso   1.000  O
  C242     1.0000 0.14700  0.82250  0.09870  Biso   1.000  C
  N182     1.0000 0.05600  0.92373  0.35630  Biso   1.000  N
  N183     1.0000 0.08880  0.90021  0.34300  Biso   1.000  N
  C243     1.0000 0.14390  0.77858  0.98690  Biso   1.000  C
  H242     1.0000 0.14230  0.76350  0.94890  Biso   1.000  H
  N184     1.0000 0.10830  0.90796  0.28070  Biso   1.000  N
  C244     1.0000 0.10350  0.79964  0.00120  Biso   1.000  C
  H243     1.0000 0.07560  0.79860  0.97300  Biso   1.000  H
  N185     1.0000 0.15390  0.84317  0.15900  Biso   1.000  N
  H244     1.0000 0.17820  0.83750  0.18570  Biso   1.000  H
  N186     1.0000 0.18550  0.77911  0.02620  Biso   1.000  N
  N187     1.0000 0.94110  0.02519  0.30620  Biso   1.000  N
  N188     1.0000 0.89920  0.09258  0.42640  Biso   1.000  N
  H245     1.0000 0.92170  0.08810  0.45700  Biso   1.000  H
  N189     1.0000 0.84932  0.16594  0.52440  Biso   1.000  N
  C245     1.0000 0.10500  0.82200  0.05720  Biso   1.000  C
  H246     1.0000 0.07840  0.83650  0.06720  Biso   1.000  H
  N190     1.0000 0.83580  0.16921  0.59250  Biso   1.000  N
  C246     1.0000 0.12690  0.87058  0.17910  Biso   1.000  C
  N191     1.0000 0.80353  0.19456  0.59490  Biso   1.000  N
  C247     1.0000 0.14600  0.88557  0.24800  Biso   1.000  C
  H247     1.0000 0.17560  0.89910  0.23930  Biso   1.000  H
  H248     1.0000 0.15450  0.86660  0.27950  Biso   1.000  H
  N192     1.0000 0.79649  0.20790  0.53010  Biso   1.000  N
  C248     1.0000 0.08620  0.93663  0.25590  Biso   1.000  C
  H249     1.0000 0.09280  0.94730  0.21320  Biso   1.000  H
  C249     1.0000 0.90630  0.02672  0.25700  Biso   1.000  C
  H250     1.0000 0.90960  0.01260  0.21770  Biso   1.000  H
  C250     1.0000 0.86550  0.04810  0.26160  Biso   1.000  C
  H251     1.0000 0.84120  0.04720  0.22730  Biso   1.000  H
  C251     1.0000 0.86080  0.07080  0.31680  Biso   1.000  C
  H252     1.0000 0.83410  0.08600  0.31970  Biso   1.000  H
  C252     1.0000 0.93570  0.04687  0.36110  Biso   1.000  C
  H253     1.0000 0.95920  0.04610  0.39650  Biso   1.000  H
  C253     1.0000 0.89660  0.07051  0.36780  Biso   1.000  C
  C254     1.0000 0.86960  0.12007  0.43860  Biso   1.000  C
  C255     1.0000 0.88610  0.14068  0.50420  Biso   1.000  C
  H254     1.0000 0.91700  0.15260  0.49450  Biso   1.000  H
  H255     1.0000 0.89180  0.12450  0.54260  Biso   1.000  H
  C256     1.0000 0.82530  0.18991  0.48730  Biso   1.000  C
  H256     1.0000 0.82830  0.19340  0.43940  Biso   1.000  H
  Co9      1.0000 0.00000  0.98789  0.30238  Biso   1.000  Co
  Co10     1.0000 0.50000  0.01211  0.80238  Biso   1.000  Co
  Co11     1.0000 0.00000  0.48789  0.19762  Biso   1.000  Co
  Co12     1.0000 0.50000  0.51211  0.69762  Biso   1.000  Co
  Co13     1.0000 0.25000  0.75000  0.00000  Biso   1.000  Co
  Co14     1.0000 0.75000  0.25000  0.50000  Biso   1.000  Co
  Co15     1.0000 0.25000  0.25000  0.50000  Biso   1.000  Co
  Co16     1.0000 0.75000  0.75000  0.00000  Biso   1.000  Co
