data_image0
_cell_length_a       26.9829
_cell_length_b       37.6059
_cell_length_c       19.3314
_cell_angle_alpha    90
_cell_angle_beta     90
_cell_angle_gamma    90

_symmetry_space_group_name_H-M    "P 1"
_symmetry_int_tables_number       1

loop_
  _symmetry_equiv_pos_as_xyz
  'x, y, z'

loop_
  _atom_site_label
  _atom_site_occupancy
  _atom_site_fract_x
  _atom_site_fract_y
  _atom_site_fract_z
  _atom_site_thermal_displace_type
  _atom_site_B_iso_or_equiv
  _atom_site_type_symbol
  C1       1.0000 0.31140  0.29916  0.58290  Biso   1.000  C
  H1       1.0000 0.28300  0.29980  0.61020  Biso   1.000  H
  N1       1.0000 0.31240  0.27791  0.52730  Biso   1.000  N
  O1       1.0000 0.66640  0.62715  0.90110  Biso   1.000  O
  C2       1.0000 0.35270  0.27782  0.48860  Biso   1.000  C
  H2       1.0000 0.35350  0.26310  0.45000  Biso   1.000  H
  N2       1.0000 0.55520  0.52302  0.80670  Biso   1.000  N
  O2       1.0000 0.40710  0.38188  0.64890  Biso   1.000  O
  C3       1.0000 0.39380  0.29870  0.50310  Biso   1.000  C
  H3       1.0000 0.42150  0.29800  0.47440  Biso   1.000  H
  N3       1.0000 0.44790  0.44699  0.80300  Biso   1.000  N
  C4       1.0000 0.39320  0.32070  0.56060  Biso   1.000  C
  H4       1.0000 0.42000  0.33520  0.57130  Biso   1.000  H
  N4       1.0000 0.34540  0.34075  0.66200  Biso   1.000  N
  H5       1.0000 0.32180  0.33440  0.68920  Biso   1.000  H
  N5       1.0000 0.39250  0.40752  0.78110  Biso   1.000  N
  C5       1.0000 0.35170  0.32038  0.60090  Biso   1.000  C
  C6       1.0000 0.37300  0.36943  0.68210  Biso   1.000  C
  N6       1.0000 0.41010  0.40051  0.84490  Biso   1.000  N
  N7       1.0000 0.44380  0.42391  0.85760  Biso   1.000  N
  C7       1.0000 0.35350  0.38540  0.74930  Biso   1.000  C
  H6       1.0000 0.32440  0.39980  0.73990  Biso   1.000  H
  H7       1.0000 0.34400  0.36650  0.78090  Biso   1.000  H
  N8       1.0000 0.60160  0.59027  0.92570  Biso   1.000  N
  H8       1.0000 0.58060  0.58530  0.95770  Biso   1.000  H
  C8       1.0000 0.41600  0.43647  0.75630  Biso   1.000  C
  H9       1.0000 0.41040  0.44710  0.71360  Biso   1.000  H
  N9       1.0000 0.65240  0.66588  0.02010  Biso   1.000  N
  C9       1.0000 0.56300  0.54420  0.86200  Biso   1.000  C
  H10      1.0000 0.54100  0.54240  0.89890  Biso   1.000  H
  N10      1.0000 0.67690  0.68938  0.98230  Biso   1.000  N
  C10      1.0000 0.58920  0.52490  0.75550  Biso   1.000  C
  H11      1.0000 0.58470  0.51070  0.71650  Biso   1.000  H
  N11      1.0000 0.70540  0.70855  0.02430  Biso   1.000  N
  C11      1.0000 0.63000  0.54670  0.75850  Biso   1.000  C
  H12      1.0000 0.65330  0.54650  0.72300  Biso   1.000  H
  N12      1.0000 0.69520  0.69639  0.09030  Biso   1.000  N
  C12      1.0000 0.63630  0.56910  0.81450  Biso   1.000  C
  H13      1.0000 0.66340  0.58440  0.81680  Biso   1.000  H
  C13      1.0000 0.61520  0.64010  0.00080  Biso   1.000  C
  H14      1.0000 0.58430  0.65230  0.99060  Biso   1.000  H
  H15      1.0000 0.60930  0.62410  0.03930  Biso   1.000  H
  C14      1.0000 0.66370  0.67121  0.08730  Biso   1.000  C
  H16      1.0000 0.65080  0.65870  0.12470  Biso   1.000  H
  C15      1.0000 0.63160  0.61856  0.93700  Biso   1.000  C
  C16      1.0000 0.60150  0.56836  0.86740  Biso   1.000  C
  C17      1.0000 0.18860  0.70084  0.08290  Biso   1.000  C
  H17      1.0000 0.21700  0.70020  0.11020  Biso   1.000  H
  N13      1.0000 0.18760  0.72209  0.02730  Biso   1.000  N
  O3       1.0000 0.83360  0.37285  0.40110  Biso   1.000  O
  C18      1.0000 0.14730  0.72218  0.98860  Biso   1.000  C
  H18      1.0000 0.14650  0.73690  0.95000  Biso   1.000  H
  N14      1.0000 0.94480  0.47698  0.30670  Biso   1.000  N
  O4       1.0000 0.09290  0.61812  0.14890  Biso   1.000  O
  C19      1.0000 0.10620  0.70130  0.00310  Biso   1.000  C
  H19      1.0000 0.07850  0.70200  0.97440  Biso   1.000  H
  N15      1.0000 0.05210  0.55301  0.30300  Biso   1.000  N
  C20      1.0000 0.10680  0.67930  0.06060  Biso   1.000  C
  H20      1.0000 0.08000  0.66480  0.07130  Biso   1.000  H
  N16      1.0000 0.15460  0.65925  0.16200  Biso   1.000  N
  H21      1.0000 0.17820  0.66560  0.18920  Biso   1.000  H
  N17      1.0000 0.10750  0.59248  0.28110  Biso   1.000  N
  C21      1.0000 0.14830  0.67962  0.10090  Biso   1.000  C
  C22      1.0000 0.12700  0.63057  0.18210  Biso   1.000  C
  N18      1.0000 0.08990  0.59949  0.34490  Biso   1.000  N
  N19      1.0000 0.05620  0.57609  0.35760  Biso   1.000  N
  C23      1.0000 0.14650  0.61460  0.24930  Biso   1.000  C
  H22      1.0000 0.17560  0.60020  0.23990  Biso   1.000  H
  H23      1.0000 0.15600  0.63350  0.28090  Biso   1.000  H
  N20      1.0000 0.89840  0.40973  0.42570  Biso   1.000  N
  H24      1.0000 0.91940  0.41470  0.45770  Biso   1.000  H
  C24      1.0000 0.08400  0.56353  0.25630  Biso   1.000  C
  H25      1.0000 0.08960  0.55290  0.21360  Biso   1.000  H
  N21      1.0000 0.84760  0.33412  0.52010  Biso   1.000  N
  C25      1.0000 0.93700  0.45580  0.36200  Biso   1.000  C
  H26      1.0000 0.95900  0.45760  0.39890  Biso   1.000  H
  N22      1.0000 0.82310  0.31062  0.48230  Biso   1.000  N
  C26      1.0000 0.91080  0.47510  0.25550  Biso   1.000  C
  H27      1.0000 0.91530  0.48930  0.21650  Biso   1.000  H
  N23      1.0000 0.79460  0.29145  0.52430  Biso   1.000  N
  C27      1.0000 0.87000  0.45330  0.25850  Biso   1.000  C
  H28      1.0000 0.84670  0.45350  0.22300  Biso   1.000  H
  N24      1.0000 0.80480  0.30361  0.59030  Biso   1.000  N
  C28      1.0000 0.86370  0.43090  0.31450  Biso   1.000  C
  H29      1.0000 0.83660  0.41560  0.31680  Biso   1.000  H
  C29      1.0000 0.88480  0.35990  0.50080  Biso   1.000  C
  H30      1.0000 0.91570  0.34770  0.49060  Biso   1.000  H
  H31      1.0000 0.89070  0.37590  0.53930  Biso   1.000  H
  C30      1.0000 0.83630  0.32879  0.58730  Biso   1.000  C
  H32      1.0000 0.84920  0.34130  0.62470  Biso   1.000  H
  C31      1.0000 0.86840  0.38144  0.43700  Biso   1.000  C
  C32      1.0000 0.89850  0.43164  0.36740  Biso   1.000  C
  C33      1.0000 0.68860  0.79916  0.91710  Biso   1.000  C
  H33      1.0000 0.71700  0.79980  0.88980  Biso   1.000  H
  N25      1.0000 0.68760  0.77791  0.97270  Biso   1.000  N
  O5       1.0000 0.33360  0.12715  0.59890  Biso   1.000  O
  C34      1.0000 0.64730  0.77782  0.01140  Biso   1.000  C
  H34      1.0000 0.64650  0.76310  0.05000  Biso   1.000  H
  N26      1.0000 0.44480  0.02302  0.69330  Biso   1.000  N
  O6       1.0000 0.59290  0.88188  0.85110  Biso   1.000  O
  C35      1.0000 0.60620  0.79870  0.99690  Biso   1.000  C
  H35      1.0000 0.57850  0.79800  0.02560  Biso   1.000  H
  N27      1.0000 0.55210  0.94699  0.69700  Biso   1.000  N
  C36      1.0000 0.60680  0.82070  0.93940  Biso   1.000  C
  H36      1.0000 0.58000  0.83520  0.92870  Biso   1.000  H
  N28      1.0000 0.65460  0.84075  0.83800  Biso   1.000  N
  H37      1.0000 0.67820  0.83440  0.81080  Biso   1.000  H
  N29      1.0000 0.60750  0.90752  0.71890  Biso   1.000  N
  C37      1.0000 0.64830  0.82038  0.89910  Biso   1.000  C
  C38      1.0000 0.62700  0.86943  0.81790  Biso   1.000  C
  N30      1.0000 0.58990  0.90051  0.65510  Biso   1.000  N
  N31      1.0000 0.55620  0.92391  0.64240  Biso   1.000  N
  C39      1.0000 0.64650  0.88540  0.75070  Biso   1.000  C
  H38      1.0000 0.67560  0.89980  0.76010  Biso   1.000  H
  H39      1.0000 0.65600  0.86650  0.71910  Biso   1.000  H
  N32      1.0000 0.39840  0.09027  0.57430  Biso   1.000  N
  H40      1.0000 0.41940  0.08530  0.54230  Biso   1.000  H
  C40      1.0000 0.58400  0.93647  0.74370  Biso   1.000  C
  H41      1.0000 0.58960  0.94710  0.78640  Biso   1.000  H
  N33      1.0000 0.34760  0.16588  0.47990  Biso   1.000  N
  C41      1.0000 0.43700  0.04420  0.63800  Biso   1.000  C
  H42      1.0000 0.45900  0.04240  0.60110  Biso   1.000  H
  N34      1.0000 0.32310  0.18938  0.51770  Biso   1.000  N
  C42      1.0000 0.41080  0.02490  0.74450  Biso   1.000  C
  H43      1.0000 0.41530  0.01070  0.78350  Biso   1.000  H
  N35      1.0000 0.29460  0.20855  0.47570  Biso   1.000  N
  C43      1.0000 0.37000  0.04670  0.74150  Biso   1.000  C
  H44      1.0000 0.34670  0.04650  0.77700  Biso   1.000  H
  N36      1.0000 0.30480  0.19639  0.40970  Biso   1.000  N
  C44      1.0000 0.36370  0.06910  0.68550  Biso   1.000  C
  H45      1.0000 0.33660  0.08440  0.68320  Biso   1.000  H
  C45      1.0000 0.38480  0.14010  0.49920  Biso   1.000  C
  H46      1.0000 0.41570  0.15230  0.50940  Biso   1.000  H
  H47      1.0000 0.39070  0.12410  0.46070  Biso   1.000  H
  C46      1.0000 0.33630  0.17121  0.41270  Biso   1.000  C
  H48      1.0000 0.34920  0.15870  0.37530  Biso   1.000  H
  C47      1.0000 0.36840  0.11856  0.56300  Biso   1.000  C
  C48      1.0000 0.39850  0.06836  0.63260  Biso   1.000  C
  C49      1.0000 0.81140  0.20084  0.41710  Biso   1.000  C
  H49      1.0000 0.78300  0.20020  0.38980  Biso   1.000  H
  N37      1.0000 0.81240  0.22209  0.47270  Biso   1.000  N
  O7       1.0000 0.16640  0.87285  0.09890  Biso   1.000  O
  C50      1.0000 0.85270  0.22218  0.51140  Biso   1.000  C
  H50      1.0000 0.85350  0.23690  0.55000  Biso   1.000  H
  N38      1.0000 0.05520  0.97698  0.19330  Biso   1.000  N
  O8       1.0000 0.90710  0.11812  0.35110  Biso   1.000  O
  C51      1.0000 0.89380  0.20130  0.49690  Biso   1.000  C
  H51      1.0000 0.92150  0.20200  0.52560  Biso   1.000  H
  N39      1.0000 0.94790  0.05301  0.19700  Biso   1.000  N
  C52      1.0000 0.89320  0.17930  0.43940  Biso   1.000  C
  H52      1.0000 0.92000  0.16480  0.42870  Biso   1.000  H
  N40      1.0000 0.84540  0.15925  0.33800  Biso   1.000  N
  H53      1.0000 0.82180  0.16560  0.31080  Biso   1.000  H
  N41      1.0000 0.89250  0.09248  0.21890  Biso   1.000  N
  C53      1.0000 0.85170  0.17962  0.39910  Biso   1.000  C
  C54      1.0000 0.87300  0.13057  0.31790  Biso   1.000  C
  N42      1.0000 0.91010  0.09949  0.15510  Biso   1.000  N
  N43      1.0000 0.94380  0.07609  0.14240  Biso   1.000  N
  C55      1.0000 0.85350  0.11460  0.25070  Biso   1.000  C
  H54      1.0000 0.82440  0.10020  0.26010  Biso   1.000  H
  H55      1.0000 0.84400  0.13350  0.21910  Biso   1.000  H
  N44      1.0000 0.10160  0.90973  0.07430  Biso   1.000  N
  H56      1.0000 0.08060  0.91470  0.04230  Biso   1.000  H
  C56      1.0000 0.91600  0.06353  0.24370  Biso   1.000  C
  H57      1.0000 0.91040  0.05290  0.28640  Biso   1.000  H
  N45      1.0000 0.15240  0.83412  0.97990  Biso   1.000  N
  C57      1.0000 0.06300  0.95580  0.13800  Biso   1.000  C
  H58      1.0000 0.04100  0.95760  0.10110  Biso   1.000  H
  N46      1.0000 0.17690  0.81062  0.01770  Biso   1.000  N
  C58      1.0000 0.08920  0.97510  0.24450  Biso   1.000  C
  H59      1.0000 0.08470  0.98930  0.28350  Biso   1.000  H
  N47      1.0000 0.20540  0.79145  0.97570  Biso   1.000  N
  C59      1.0000 0.13000  0.95330  0.24150  Biso   1.000  C
  H60      1.0000 0.15330  0.95350  0.27700  Biso   1.000  H
  N48      1.0000 0.19520  0.80361  0.90970  Biso   1.000  N
  C60      1.0000 0.13630  0.93090  0.18550  Biso   1.000  C
  H61      1.0000 0.16340  0.91560  0.18320  Biso   1.000  H
  C61      1.0000 0.11520  0.85990  0.99920  Biso   1.000  C
  H62      1.0000 0.08430  0.84770  0.00940  Biso   1.000  H
  H63      1.0000 0.10930  0.87590  0.96070  Biso   1.000  H
  C62      1.0000 0.16370  0.82879  0.91270  Biso   1.000  C
  H64      1.0000 0.15080  0.84130  0.87530  Biso   1.000  H
  C63      1.0000 0.13160  0.88144  0.06300  Biso   1.000  C
  C64      1.0000 0.10150  0.93164  0.13260  Biso   1.000  C
  C65      1.0000 0.18860  0.20084  0.41710  Biso   1.000  C
  H65      1.0000 0.21700  0.20020  0.38980  Biso   1.000  H
  N49      1.0000 0.18760  0.22209  0.47270  Biso   1.000  N
  O9       1.0000 0.83360  0.87285  0.09890  Biso   1.000  O
  C66      1.0000 0.14730  0.22218  0.51140  Biso   1.000  C
  H66      1.0000 0.14650  0.23690  0.55000  Biso   1.000  H
  N50      1.0000 0.94480  0.97698  0.19330  Biso   1.000  N
  O10      1.0000 0.09290  0.11812  0.35110  Biso   1.000  O
  C67      1.0000 0.10620  0.20130  0.49690  Biso   1.000  C
  H67      1.0000 0.07850  0.20200  0.52560  Biso   1.000  H
  N51      1.0000 0.05210  0.05301  0.19700  Biso   1.000  N
  C68      1.0000 0.10680  0.17930  0.43940  Biso   1.000  C
  H68      1.0000 0.08000  0.16480  0.42870  Biso   1.000  H
  N52      1.0000 0.15460  0.15925  0.33800  Biso   1.000  N
  H69      1.0000 0.17820  0.16560  0.31080  Biso   1.000  H
  N53      1.0000 0.10750  0.09248  0.21890  Biso   1.000  N
  C69      1.0000 0.14830  0.17962  0.39910  Biso   1.000  C
  C70      1.0000 0.12700  0.13057  0.31790  Biso   1.000  C
  N54      1.0000 0.08990  0.09949  0.15510  Biso   1.000  N
  N55      1.0000 0.05620  0.07609  0.14240  Biso   1.000  N
  C71      1.0000 0.14650  0.11460  0.25070  Biso   1.000  C
  H70      1.0000 0.17560  0.10020  0.26010  Biso   1.000  H
  H71      1.0000 0.15600  0.13350  0.21910  Biso   1.000  H
  N56      1.0000 0.89840  0.90973  0.07430  Biso   1.000  N
  H72      1.0000 0.91940  0.91470  0.04230  Biso   1.000  H
  C72      1.0000 0.08400  0.06353  0.24370  Biso   1.000  C
  H73      1.0000 0.08960  0.05290  0.28640  Biso   1.000  H
  N57      1.0000 0.84760  0.83412  0.97990  Biso   1.000  N
  C73      1.0000 0.93700  0.95580  0.13800  Biso   1.000  C
  H74      1.0000 0.95900  0.95760  0.10110  Biso   1.000  H
  N58      1.0000 0.82310  0.81062  0.01770  Biso   1.000  N
  C74      1.0000 0.91080  0.97510  0.24450  Biso   1.000  C
  H75      1.0000 0.91530  0.98930  0.28350  Biso   1.000  H
  N59      1.0000 0.79460  0.79145  0.97570  Biso   1.000  N
  C75      1.0000 0.87000  0.95330  0.24150  Biso   1.000  C
  H76      1.0000 0.84670  0.95350  0.27700  Biso   1.000  H
  N60      1.0000 0.80480  0.80361  0.90970  Biso   1.000  N
  C76      1.0000 0.86370  0.93090  0.18550  Biso   1.000  C
  H77      1.0000 0.83660  0.91560  0.18320  Biso   1.000  H
  C77      1.0000 0.88480  0.85990  0.99920  Biso   1.000  C
  H78      1.0000 0.91570  0.84770  0.00940  Biso   1.000  H
  H79      1.0000 0.89070  0.87590  0.96070  Biso   1.000  H
  C78      1.0000 0.83630  0.82879  0.91270  Biso   1.000  C
  H80      1.0000 0.84920  0.84130  0.87530  Biso   1.000  H
  C79      1.0000 0.86840  0.88144  0.06300  Biso   1.000  C
  C80      1.0000 0.89850  0.93164  0.13260  Biso   1.000  C
  C81      1.0000 0.31140  0.79916  0.91710  Biso   1.000  C
  H81      1.0000 0.28300  0.79980  0.88980  Biso   1.000  H
  N61      1.0000 0.31240  0.77791  0.97270  Biso   1.000  N
  O11      1.0000 0.66640  0.12715  0.59890  Biso   1.000  O
  C82      1.0000 0.35270  0.77782  0.01140  Biso   1.000  C
  H82      1.0000 0.35350  0.76310  0.05000  Biso   1.000  H
  N62      1.0000 0.55520  0.02302  0.69330  Biso   1.000  N
  O12      1.0000 0.40710  0.88188  0.85110  Biso   1.000  O
  C83      1.0000 0.39380  0.79870  0.99690  Biso   1.000  C
  H83      1.0000 0.42150  0.79800  0.02560  Biso   1.000  H
  N63      1.0000 0.44790  0.94699  0.69700  Biso   1.000  N
  C84      1.0000 0.39320  0.82070  0.93940  Biso   1.000  C
  H84      1.0000 0.42000  0.83520  0.92870  Biso   1.000  H
  N64      1.0000 0.34540  0.84075  0.83800  Biso   1.000  N
  H85      1.0000 0.32180  0.83440  0.81080  Biso   1.000  H
  N65      1.0000 0.39250  0.90752  0.71890  Biso   1.000  N
  C85      1.0000 0.35170  0.82038  0.89910  Biso   1.000  C
  C86      1.0000 0.37300  0.86943  0.81790  Biso   1.000  C
  N66      1.0000 0.41010  0.90051  0.65510  Biso   1.000  N
  N67      1.0000 0.44380  0.92391  0.64240  Biso   1.000  N
  C87      1.0000 0.35350  0.88540  0.75070  Biso   1.000  C
  H86      1.0000 0.32440  0.89980  0.76010  Biso   1.000  H
  H87      1.0000 0.34400  0.86650  0.71910  Biso   1.000  H
  N68      1.0000 0.60160  0.09027  0.57430  Biso   1.000  N
  H88      1.0000 0.58060  0.08530  0.54230  Biso   1.000  H
  C88      1.0000 0.41600  0.93647  0.74370  Biso   1.000  C
  H89      1.0000 0.41040  0.94710  0.78640  Biso   1.000  H
  N69      1.0000 0.65240  0.16588  0.47990  Biso   1.000  N
  C89      1.0000 0.56300  0.04420  0.63800  Biso   1.000  C
  H90      1.0000 0.54100  0.04240  0.60110  Biso   1.000  H
  N70      1.0000 0.67690  0.18938  0.51770  Biso   1.000  N
  C90      1.0000 0.58920  0.02490  0.74450  Biso   1.000  C
  H91      1.0000 0.58470  0.01070  0.78350  Biso   1.000  H
  N71      1.0000 0.70540  0.20855  0.47570  Biso   1.000  N
  C91      1.0000 0.63000  0.04670  0.74150  Biso   1.000  C
  H92      1.0000 0.65330  0.04650  0.77700  Biso   1.000  H
  N72      1.0000 0.69520  0.19639  0.40970  Biso   1.000  N
  C92      1.0000 0.63630  0.06910  0.68550  Biso   1.000  C
  H93      1.0000 0.66340  0.08440  0.68320  Biso   1.000  H
  C93      1.0000 0.61520  0.14010  0.49920  Biso   1.000  C
  H94      1.0000 0.58430  0.15230  0.50940  Biso   1.000  H
  H95      1.0000 0.60930  0.12410  0.46070  Biso   1.000  H
  C94      1.0000 0.66370  0.17121  0.41270  Biso   1.000  C
  H96      1.0000 0.65080  0.15870  0.37530  Biso   1.000  H
  C95      1.0000 0.63160  0.11856  0.56300  Biso   1.000  C
  C96      1.0000 0.60150  0.06836  0.63260  Biso   1.000  C
  C97      1.0000 0.81140  0.70084  0.08290  Biso   1.000  C
  H97      1.0000 0.78300  0.70020  0.11020  Biso   1.000  H
  N73      1.0000 0.81240  0.72209  0.02730  Biso   1.000  N
  O13      1.0000 0.16640  0.37285  0.40110  Biso   1.000  O
  C98      1.0000 0.85270  0.72218  0.98860  Biso   1.000  C
  H98      1.0000 0.85350  0.73690  0.95000  Biso   1.000  H
  N74      1.0000 0.05520  0.47698  0.30670  Biso   1.000  N
  O14      1.0000 0.90710  0.61812  0.14890  Biso   1.000  O
  C99      1.0000 0.89380  0.70130  0.00310  Biso   1.000  C
  H99      1.0000 0.92150  0.70200  0.97440  Biso   1.000  H
  N75      1.0000 0.94790  0.55301  0.30300  Biso   1.000  N
  C100     1.0000 0.89320  0.67930  0.06060  Biso   1.000  C
  H100     1.0000 0.92000  0.66480  0.07130  Biso   1.000  H
  N76      1.0000 0.84540  0.65925  0.16200  Biso   1.000  N
  H101     1.0000 0.82180  0.66560  0.18920  Biso   1.000  H
  N77      1.0000 0.89250  0.59248  0.28110  Biso   1.000  N
  C101     1.0000 0.85170  0.67962  0.10090  Biso   1.000  C
  C102     1.0000 0.87300  0.63057  0.18210  Biso   1.000  C
  N78      1.0000 0.91010  0.59949  0.34490  Biso   1.000  N
  N79      1.0000 0.94380  0.57609  0.35760  Biso   1.000  N
  C103     1.0000 0.85350  0.61460  0.24930  Biso   1.000  C
  H102     1.0000 0.82440  0.60020  0.23990  Biso   1.000  H
  H103     1.0000 0.84400  0.63350  0.28090  Biso   1.000  H
  N80      1.0000 0.10160  0.40973  0.42570  Biso   1.000  N
  H104     1.0000 0.08060  0.41470  0.45770  Biso   1.000  H
  C104     1.0000 0.91600  0.56353  0.25630  Biso   1.000  C
  H105     1.0000 0.91040  0.55290  0.21360  Biso   1.000  H
  N81      1.0000 0.15240  0.33412  0.52010  Biso   1.000  N
  C105     1.0000 0.06300  0.45580  0.36200  Biso   1.000  C
  H106     1.0000 0.04100  0.45760  0.39890  Biso   1.000  H
  N82      1.0000 0.17690  0.31062  0.48230  Biso   1.000  N
  C106     1.0000 0.08920  0.47510  0.25550  Biso   1.000  C
  H107     1.0000 0.08470  0.48930  0.21650  Biso   1.000  H
  N83      1.0000 0.20540  0.29145  0.52430  Biso   1.000  N
  C107     1.0000 0.13000  0.45330  0.25850  Biso   1.000  C
  H108     1.0000 0.15330  0.45350  0.22300  Biso   1.000  H
  N84      1.0000 0.19520  0.30361  0.59030  Biso   1.000  N
  C108     1.0000 0.13630  0.43090  0.31450  Biso   1.000  C
  H109     1.0000 0.16340  0.41560  0.31680  Biso   1.000  H
  C109     1.0000 0.11520  0.35990  0.50080  Biso   1.000  C
  H110     1.0000 0.08430  0.34770  0.49060  Biso   1.000  H
  H111     1.0000 0.10930  0.37590  0.53930  Biso   1.000  H
  C110     1.0000 0.16370  0.32879  0.58730  Biso   1.000  C
  H112     1.0000 0.15080  0.34130  0.62470  Biso   1.000  H
  C111     1.0000 0.13160  0.38144  0.43700  Biso   1.000  C
  C112     1.0000 0.10150  0.43164  0.36740  Biso   1.000  C
  C113     1.0000 0.68860  0.29916  0.58290  Biso   1.000  C
  H113     1.0000 0.71700  0.29980  0.61020  Biso   1.000  H
  N85      1.0000 0.68760  0.27791  0.52730  Biso   1.000  N
  O15      1.0000 0.33360  0.62715  0.90110  Biso   1.000  O
  C114     1.0000 0.64730  0.27782  0.48860  Biso   1.000  C
  H114     1.0000 0.64650  0.26310  0.45000  Biso   1.000  H
  N86      1.0000 0.44480  0.52302  0.80670  Biso   1.000  N
  O16      1.0000 0.59290  0.38188  0.64890  Biso   1.000  O
  C115     1.0000 0.60620  0.29870  0.50310  Biso   1.000  C
  H115     1.0000 0.57850  0.29800  0.47440  Biso   1.000  H
  N87      1.0000 0.55210  0.44699  0.80300  Biso   1.000  N
  C116     1.0000 0.60680  0.32070  0.56060  Biso   1.000  C
  H116     1.0000 0.58000  0.33520  0.57130  Biso   1.000  H
  N88      1.0000 0.65460  0.34075  0.66200  Biso   1.000  N
  H117     1.0000 0.67820  0.33440  0.68920  Biso   1.000  H
  N89      1.0000 0.60750  0.40752  0.78110  Biso   1.000  N
  C117     1.0000 0.64830  0.32038  0.60090  Biso   1.000  C
  C118     1.0000 0.62700  0.36943  0.68210  Biso   1.000  C
  N90      1.0000 0.58990  0.40051  0.84490  Biso   1.000  N
  N91      1.0000 0.55620  0.42391  0.85760  Biso   1.000  N
  C119     1.0000 0.64650  0.38540  0.74930  Biso   1.000  C
  H118     1.0000 0.67560  0.39980  0.73990  Biso   1.000  H
  H119     1.0000 0.65600  0.36650  0.78090  Biso   1.000  H
  N92      1.0000 0.39840  0.59027  0.92570  Biso   1.000  N
  H120     1.0000 0.41940  0.58530  0.95770  Biso   1.000  H
  C120     1.0000 0.58400  0.43647  0.75630  Biso   1.000  C
  H121     1.0000 0.58960  0.44710  0.71360  Biso   1.000  H
  N93      1.0000 0.34760  0.66588  0.02010  Biso   1.000  N
  C121     1.0000 0.43700  0.54420  0.86200  Biso   1.000  C
  H122     1.0000 0.45900  0.54240  0.89890  Biso   1.000  H
  N94      1.0000 0.32310  0.68938  0.98230  Biso   1.000  N
  C122     1.0000 0.41080  0.52490  0.75550  Biso   1.000  C
  H123     1.0000 0.41530  0.51070  0.71650  Biso   1.000  H
  N95      1.0000 0.29460  0.70855  0.02430  Biso   1.000  N
  C123     1.0000 0.37000  0.54670  0.75850  Biso   1.000  C
  H124     1.0000 0.34670  0.54650  0.72300  Biso   1.000  H
  N96      1.0000 0.30480  0.69639  0.09030  Biso   1.000  N
  C124     1.0000 0.36370  0.56910  0.81450  Biso   1.000  C
  H125     1.0000 0.33660  0.58440  0.81680  Biso   1.000  H
  C125     1.0000 0.38480  0.64010  0.00080  Biso   1.000  C
  H126     1.0000 0.41570  0.65230  0.99060  Biso   1.000  H
  H127     1.0000 0.39070  0.62410  0.03930  Biso   1.000  H
  C126     1.0000 0.33630  0.67121  0.08730  Biso   1.000  C
  H128     1.0000 0.34920  0.65870  0.12470  Biso   1.000  H
  C127     1.0000 0.36840  0.61856  0.93700  Biso   1.000  C
  C128     1.0000 0.39850  0.56836  0.86740  Biso   1.000  C
  Cu1      1.0000 0.50000  0.48616  0.80491  Biso   1.000  Cu
  Cu2      1.0000 0.00000  0.51384  0.30491  Biso   1.000  Cu
  Cu3      1.0000 0.50000  0.98616  0.69509  Biso   1.000  Cu
  Cu4      1.0000 0.00000  0.01384  0.19509  Biso   1.000  Cu
  Cu5      1.0000 0.25000  0.25000  0.50000  Biso   1.000  Cu
  Cu6      1.0000 0.75000  0.75000  0.00000  Biso   1.000  Cu
  Cu7      1.0000 0.25000  0.75000  0.00000  Biso   1.000  Cu
  Cu8      1.0000 0.75000  0.25000  0.50000  Biso   1.000  Cu
  C129     1.0000 0.81140  0.79916  0.58290  Biso   1.000  C
  H129     1.0000 0.78300  0.79980  0.61020  Biso   1.000  H
  N97      1.0000 0.81240  0.77791  0.52730  Biso   1.000  N
  O17      1.0000 0.16640  0.12715  0.90110  Biso   1.000  O
  C130     1.0000 0.85270  0.77782  0.48860  Biso   1.000  C
  H130     1.0000 0.85350  0.76310  0.45000  Biso   1.000  H
  N98      1.0000 0.05520  0.02302  0.80670  Biso   1.000  N
  O18      1.0000 0.90710  0.88188  0.64890  Biso   1.000  O
  C131     1.0000 0.89380  0.79870  0.50310  Biso   1.000  C
  H131     1.0000 0.92150  0.79800  0.47440  Biso   1.000  H
  N99      1.0000 0.94790  0.94699  0.80300  Biso   1.000  N
  C132     1.0000 0.89320  0.82070  0.56060  Biso   1.000  C
  H132     1.0000 0.92000  0.83520  0.57130  Biso   1.000  H
  N100     1.0000 0.84540  0.84075  0.66200  Biso   1.000  N
  H133     1.0000 0.82180  0.83440  0.68920  Biso   1.000  H
  N101     1.0000 0.89250  0.90752  0.78110  Biso   1.000  N
  C133     1.0000 0.85170  0.82038  0.60090  Biso   1.000  C
  C134     1.0000 0.87300  0.86943  0.68210  Biso   1.000  C
  N102     1.0000 0.91010  0.90051  0.84490  Biso   1.000  N
  N103     1.0000 0.94380  0.92391  0.85760  Biso   1.000  N
  C135     1.0000 0.85350  0.88540  0.74930  Biso   1.000  C
  H134     1.0000 0.82440  0.89980  0.73990  Biso   1.000  H
  H135     1.0000 0.84400  0.86650  0.78090  Biso   1.000  H
  N104     1.0000 0.10160  0.09027  0.92570  Biso   1.000  N
  H136     1.0000 0.08060  0.08530  0.95770  Biso   1.000  H
  C136     1.0000 0.91600  0.93647  0.75630  Biso   1.000  C
  H137     1.0000 0.91040  0.94710  0.71360  Biso   1.000  H
  N105     1.0000 0.15240  0.16588  0.02010  Biso   1.000  N
  C137     1.0000 0.06300  0.04420  0.86200  Biso   1.000  C
  H138     1.0000 0.04100  0.04240  0.89890  Biso   1.000  H
  N106     1.0000 0.17690  0.18938  0.98230  Biso   1.000  N
  C138     1.0000 0.08920  0.02490  0.75550  Biso   1.000  C
  H139     1.0000 0.08470  0.01070  0.71650  Biso   1.000  H
  N107     1.0000 0.20540  0.20855  0.02430  Biso   1.000  N
  C139     1.0000 0.13000  0.04670  0.75850  Biso   1.000  C
  H140     1.0000 0.15330  0.04650  0.72300  Biso   1.000  H
  N108     1.0000 0.19520  0.19639  0.09030  Biso   1.000  N
  C140     1.0000 0.13630  0.06910  0.81450  Biso   1.000  C
  H141     1.0000 0.16340  0.08440  0.81680  Biso   1.000  H
  C141     1.0000 0.11520  0.14010  0.00080  Biso   1.000  C
  H142     1.0000 0.08430  0.15230  0.99060  Biso   1.000  H
  H143     1.0000 0.10930  0.12410  0.03930  Biso   1.000  H
  C142     1.0000 0.16370  0.17121  0.08730  Biso   1.000  C
  H144     1.0000 0.15080  0.15870  0.12470  Biso   1.000  H
  C143     1.0000 0.13160  0.11856  0.93700  Biso   1.000  C
  C144     1.0000 0.10150  0.06836  0.86740  Biso   1.000  C
  C145     1.0000 0.68860  0.20084  0.08290  Biso   1.000  C
  H145     1.0000 0.71700  0.20020  0.11020  Biso   1.000  H
  N109     1.0000 0.68760  0.22209  0.02730  Biso   1.000  N
  O19      1.0000 0.33360  0.87285  0.40110  Biso   1.000  O
  C146     1.0000 0.64730  0.22218  0.98860  Biso   1.000  C
  H146     1.0000 0.64650  0.23690  0.95000  Biso   1.000  H
  N110     1.0000 0.44480  0.97698  0.30670  Biso   1.000  N
  O20      1.0000 0.59290  0.11812  0.14890  Biso   1.000  O
  C147     1.0000 0.60620  0.20130  0.00310  Biso   1.000  C
  H147     1.0000 0.57850  0.20200  0.97440  Biso   1.000  H
  N111     1.0000 0.55210  0.05301  0.30300  Biso   1.000  N
  C148     1.0000 0.60680  0.17930  0.06060  Biso   1.000  C
  H148     1.0000 0.58000  0.16480  0.07130  Biso   1.000  H
  N112     1.0000 0.65460  0.15925  0.16200  Biso   1.000  N
  H149     1.0000 0.67820  0.16560  0.18920  Biso   1.000  H
  N113     1.0000 0.60750  0.09248  0.28110  Biso   1.000  N
  C149     1.0000 0.64830  0.17962  0.10090  Biso   1.000  C
  C150     1.0000 0.62700  0.13057  0.18210  Biso   1.000  C
  N114     1.0000 0.58990  0.09949  0.34490  Biso   1.000  N
  N115     1.0000 0.55620  0.07609  0.35760  Biso   1.000  N
  C151     1.0000 0.64650  0.11460  0.24930  Biso   1.000  C
  H150     1.0000 0.67560  0.10020  0.23990  Biso   1.000  H
  H151     1.0000 0.65600  0.13350  0.28090  Biso   1.000  H
  N116     1.0000 0.39840  0.90973  0.42570  Biso   1.000  N
  H152     1.0000 0.41940  0.91470  0.45770  Biso   1.000  H
  C152     1.0000 0.58400  0.06353  0.25630  Biso   1.000  C
  H153     1.0000 0.58960  0.05290  0.21360  Biso   1.000  H
  N117     1.0000 0.34760  0.83412  0.52010  Biso   1.000  N
  C153     1.0000 0.43700  0.95580  0.36200  Biso   1.000  C
  H154     1.0000 0.45900  0.95760  0.39890  Biso   1.000  H
  N118     1.0000 0.32310  0.81062  0.48230  Biso   1.000  N
  C154     1.0000 0.41080  0.97510  0.25550  Biso   1.000  C
  H155     1.0000 0.41530  0.98930  0.21650  Biso   1.000  H
  N119     1.0000 0.29460  0.79145  0.52430  Biso   1.000  N
  C155     1.0000 0.37000  0.95330  0.25850  Biso   1.000  C
  H156     1.0000 0.34670  0.95350  0.22300  Biso   1.000  H
  N120     1.0000 0.30480  0.80361  0.59030  Biso   1.000  N
  C156     1.0000 0.36370  0.93090  0.31450  Biso   1.000  C
  H157     1.0000 0.33660  0.91560  0.31680  Biso   1.000  H
  C157     1.0000 0.38480  0.85990  0.50080  Biso   1.000  C
  H158     1.0000 0.41570  0.84770  0.49060  Biso   1.000  H
  H159     1.0000 0.39070  0.87590  0.53930  Biso   1.000  H
  C158     1.0000 0.33630  0.82879  0.58730  Biso   1.000  C
  H160     1.0000 0.34920  0.84130  0.62470  Biso   1.000  H
  C159     1.0000 0.36840  0.88144  0.43700  Biso   1.000  C
  C160     1.0000 0.39850  0.93164  0.36740  Biso   1.000  C
  C161     1.0000 0.18860  0.29916  0.91710  Biso   1.000  C
  H161     1.0000 0.21700  0.29980  0.88980  Biso   1.000  H
  N121     1.0000 0.18760  0.27791  0.97270  Biso   1.000  N
  O21      1.0000 0.83360  0.62715  0.59890  Biso   1.000  O
  C162     1.0000 0.14730  0.27782  0.01140  Biso   1.000  C
  H162     1.0000 0.14650  0.26310  0.05000  Biso   1.000  H
  N122     1.0000 0.94480  0.52302  0.69330  Biso   1.000  N
  O22      1.0000 0.09290  0.38188  0.85110  Biso   1.000  O
  C163     1.0000 0.10620  0.29870  0.99690  Biso   1.000  C
  H163     1.0000 0.07850  0.29800  0.02560  Biso   1.000  H
  N123     1.0000 0.05210  0.44699  0.69700  Biso   1.000  N
  C164     1.0000 0.10680  0.32070  0.93940  Biso   1.000  C
  H164     1.0000 0.08000  0.33520  0.92870  Biso   1.000  H
  N124     1.0000 0.15460  0.34075  0.83800  Biso   1.000  N
  H165     1.0000 0.17820  0.33440  0.81080  Biso   1.000  H
  N125     1.0000 0.10750  0.40752  0.71890  Biso   1.000  N
  C165     1.0000 0.14830  0.32038  0.89910  Biso   1.000  C
  C166     1.0000 0.12700  0.36943  0.81790  Biso   1.000  C
  N126     1.0000 0.08990  0.40051  0.65510  Biso   1.000  N
  N127     1.0000 0.05620  0.42391  0.64240  Biso   1.000  N
  C167     1.0000 0.14650  0.38540  0.75070  Biso   1.000  C
  H166     1.0000 0.17560  0.39980  0.76010  Biso   1.000  H
  H167     1.0000 0.15600  0.36650  0.71910  Biso   1.000  H
  N128     1.0000 0.89840  0.59027  0.57430  Biso   1.000  N
  H168     1.0000 0.91940  0.58530  0.54230  Biso   1.000  H
  C168     1.0000 0.08400  0.43647  0.74370  Biso   1.000  C
  H169     1.0000 0.08960  0.44710  0.78640  Biso   1.000  H
  N129     1.0000 0.84760  0.66588  0.47990  Biso   1.000  N
  C169     1.0000 0.93700  0.54420  0.63800  Biso   1.000  C
  H170     1.0000 0.95900  0.54240  0.60110  Biso   1.000  H
  N130     1.0000 0.82310  0.68938  0.51770  Biso   1.000  N
  C170     1.0000 0.91080  0.52490  0.74450  Biso   1.000  C
  H171     1.0000 0.91530  0.51070  0.78350  Biso   1.000  H
  N131     1.0000 0.79460  0.70855  0.47570  Biso   1.000  N
  C171     1.0000 0.87000  0.54670  0.74150  Biso   1.000  C
  H172     1.0000 0.84670  0.54650  0.77700  Biso   1.000  H
  N132     1.0000 0.80480  0.69639  0.40970  Biso   1.000  N
  C172     1.0000 0.86370  0.56910  0.68550  Biso   1.000  C
  H173     1.0000 0.83660  0.58440  0.68320  Biso   1.000  H
  C173     1.0000 0.88480  0.64010  0.49920  Biso   1.000  C
  H174     1.0000 0.91570  0.65230  0.50940  Biso   1.000  H
  H175     1.0000 0.89070  0.62410  0.46070  Biso   1.000  H
  C174     1.0000 0.83630  0.67121  0.41270  Biso   1.000  C
  H176     1.0000 0.84920  0.65870  0.37530  Biso   1.000  H
  C175     1.0000 0.86840  0.61856  0.56300  Biso   1.000  C
  C176     1.0000 0.89850  0.56836  0.63260  Biso   1.000  C
  C177     1.0000 0.31140  0.70084  0.41710  Biso   1.000  C
  H177     1.0000 0.28300  0.70020  0.38980  Biso   1.000  H
  N133     1.0000 0.31240  0.72209  0.47270  Biso   1.000  N
  O23      1.0000 0.66640  0.37285  0.09890  Biso   1.000  O
  C178     1.0000 0.35270  0.72218  0.51140  Biso   1.000  C
  H178     1.0000 0.35350  0.73690  0.55000  Biso   1.000  H
  N134     1.0000 0.55520  0.47698  0.19330  Biso   1.000  N
  O24      1.0000 0.40710  0.61812  0.35110  Biso   1.000  O
  C179     1.0000 0.39380  0.70130  0.49690  Biso   1.000  C
  H179     1.0000 0.42150  0.70200  0.52560  Biso   1.000  H
  N135     1.0000 0.44790  0.55301  0.19700  Biso   1.000  N
  C180     1.0000 0.39320  0.67930  0.43940  Biso   1.000  C
  H180     1.0000 0.42000  0.66480  0.42870  Biso   1.000  H
  N136     1.0000 0.34540  0.65925  0.33800  Biso   1.000  N
  H181     1.0000 0.32180  0.66560  0.31080  Biso   1.000  H
  N137     1.0000 0.39250  0.59248  0.21890  Biso   1.000  N
  C181     1.0000 0.35170  0.67962  0.39910  Biso   1.000  C
  C182     1.0000 0.37300  0.63057  0.31790  Biso   1.000  C
  N138     1.0000 0.41010  0.59949  0.15510  Biso   1.000  N
  N139     1.0000 0.44380  0.57609  0.14240  Biso   1.000  N
  C183     1.0000 0.35350  0.61460  0.25070  Biso   1.000  C
  H182     1.0000 0.32440  0.60020  0.26010  Biso   1.000  H
  H183     1.0000 0.34400  0.63350  0.21910  Biso   1.000  H
  N140     1.0000 0.60160  0.40973  0.07430  Biso   1.000  N
  H184     1.0000 0.58060  0.41470  0.04230  Biso   1.000  H
  C184     1.0000 0.41600  0.56353  0.24370  Biso   1.000  C
  H185     1.0000 0.41040  0.55290  0.28640  Biso   1.000  H
  N141     1.0000 0.65240  0.33412  0.97990  Biso   1.000  N
  C185     1.0000 0.56300  0.45580  0.13800  Biso   1.000  C
  H186     1.0000 0.54100  0.45760  0.10110  Biso   1.000  H
  N142     1.0000 0.67690  0.31062  0.01770  Biso   1.000  N
  C186     1.0000 0.58920  0.47510  0.24450  Biso   1.000  C
  H187     1.0000 0.58470  0.48930  0.28350  Biso   1.000  H
  N143     1.0000 0.70540  0.29145  0.97570  Biso   1.000  N
  C187     1.0000 0.63000  0.45330  0.24150  Biso   1.000  C
  H188     1.0000 0.65330  0.45350  0.27700  Biso   1.000  H
  N144     1.0000 0.69520  0.30361  0.90970  Biso   1.000  N
  C188     1.0000 0.63630  0.43090  0.18550  Biso   1.000  C
  H189     1.0000 0.66340  0.41560  0.18320  Biso   1.000  H
  C189     1.0000 0.61520  0.35990  0.99920  Biso   1.000  C
  H190     1.0000 0.58430  0.34770  0.00940  Biso   1.000  H
  H191     1.0000 0.60930  0.37590  0.96070  Biso   1.000  H
  C190     1.0000 0.66370  0.32879  0.91270  Biso   1.000  C
  H192     1.0000 0.65080  0.34130  0.87530  Biso   1.000  H
  C191     1.0000 0.63160  0.38144  0.06300  Biso   1.000  C
  C192     1.0000 0.60150  0.43164  0.13260  Biso   1.000  C
  C193     1.0000 0.68860  0.70084  0.41710  Biso   1.000  C
  H193     1.0000 0.71700  0.70020  0.38980  Biso   1.000  H
  N145     1.0000 0.68760  0.72209  0.47270  Biso   1.000  N
  O25      1.0000 0.33360  0.37285  0.09890  Biso   1.000  O
  C194     1.0000 0.64730  0.72218  0.51140  Biso   1.000  C
  H194     1.0000 0.64650  0.73690  0.55000  Biso   1.000  H
  N146     1.0000 0.44480  0.47698  0.19330  Biso   1.000  N
  O26      1.0000 0.59290  0.61812  0.35110  Biso   1.000  O
  C195     1.0000 0.60620  0.70130  0.49690  Biso   1.000  C
  H195     1.0000 0.57850  0.70200  0.52560  Biso   1.000  H
  N147     1.0000 0.55210  0.55301  0.19700  Biso   1.000  N
  C196     1.0000 0.60680  0.67930  0.43940  Biso   1.000  C
  H196     1.0000 0.58000  0.66480  0.42870  Biso   1.000  H
  N148     1.0000 0.65460  0.65925  0.33800  Biso   1.000  N
  H197     1.0000 0.67820  0.66560  0.31080  Biso   1.000  H
  N149     1.0000 0.60750  0.59248  0.21890  Biso   1.000  N
  C197     1.0000 0.64830  0.67962  0.39910  Biso   1.000  C
  C198     1.0000 0.62700  0.63057  0.31790  Biso   1.000  C
  N150     1.0000 0.58990  0.59949  0.15510  Biso   1.000  N
  N151     1.0000 0.55620  0.57609  0.14240  Biso   1.000  N
  C199     1.0000 0.64650  0.61460  0.25070  Biso   1.000  C
  H198     1.0000 0.67560  0.60020  0.26010  Biso   1.000  H
  H199     1.0000 0.65600  0.63350  0.21910  Biso   1.000  H
  N152     1.0000 0.39840  0.40973  0.07430  Biso   1.000  N
  H200     1.0000 0.41940  0.41470  0.04230  Biso   1.000  H
  C200     1.0000 0.58400  0.56353  0.24370  Biso   1.000  C
  H201     1.0000 0.58960  0.55290  0.28640  Biso   1.000  H
  N153     1.0000 0.34760  0.33412  0.97990  Biso   1.000  N
  C201     1.0000 0.43700  0.45580  0.13800  Biso   1.000  C
  H202     1.0000 0.45900  0.45760  0.10110  Biso   1.000  H
  N154     1.0000 0.32310  0.31062  0.01770  Biso   1.000  N
  C202     1.0000 0.41080  0.47510  0.24450  Biso   1.000  C
  H203     1.0000 0.41530  0.48930  0.28350  Biso   1.000  H
  N155     1.0000 0.29460  0.29145  0.97570  Biso   1.000  N
  C203     1.0000 0.37000  0.45330  0.24150  Biso   1.000  C
  H204     1.0000 0.34670  0.45350  0.27700  Biso   1.000  H
  N156     1.0000 0.30480  0.30361  0.90970  Biso   1.000  N
  C204     1.0000 0.36370  0.43090  0.18550  Biso   1.000  C
  H205     1.0000 0.33660  0.41560  0.18320  Biso   1.000  H
  C205     1.0000 0.38480  0.35990  0.99920  Biso   1.000  C
  H206     1.0000 0.41570  0.34770  0.00940  Biso   1.000  H
  H207     1.0000 0.39070  0.37590  0.96070  Biso   1.000  H
  C206     1.0000 0.33630  0.32879  0.91270  Biso   1.000  C
  H208     1.0000 0.34920  0.34130  0.87530  Biso   1.000  H
  C207     1.0000 0.36840  0.38144  0.06300  Biso   1.000  C
  C208     1.0000 0.39850  0.43164  0.13260  Biso   1.000  C
  C209     1.0000 0.81140  0.29916  0.91710  Biso   1.000  C
  H209     1.0000 0.78300  0.29980  0.88980  Biso   1.000  H
  N157     1.0000 0.81240  0.27791  0.97270  Biso   1.000  N
  O27      1.0000 0.16640  0.62715  0.59890  Biso   1.000  O
  C210     1.0000 0.85270  0.27782  0.01140  Biso   1.000  C
  H210     1.0000 0.85350  0.26310  0.05000  Biso   1.000  H
  N158     1.0000 0.05520  0.52302  0.69330  Biso   1.000  N
  O28      1.0000 0.90710  0.38188  0.85110  Biso   1.000  O
  C211     1.0000 0.89380  0.29870  0.99690  Biso   1.000  C
  H211     1.0000 0.92150  0.29800  0.02560  Biso   1.000  H
  N159     1.0000 0.94790  0.44699  0.69700  Biso   1.000  N
  C212     1.0000 0.89320  0.32070  0.93940  Biso   1.000  C
  H212     1.0000 0.92000  0.33520  0.92870  Biso   1.000  H
  N160     1.0000 0.84540  0.34075  0.83800  Biso   1.000  N
  H213     1.0000 0.82180  0.33440  0.81080  Biso   1.000  H
  N161     1.0000 0.89250  0.40752  0.71890  Biso   1.000  N
  C213     1.0000 0.85170  0.32038  0.89910  Biso   1.000  C
  C214     1.0000 0.87300  0.36943  0.81790  Biso   1.000  C
  N162     1.0000 0.91010  0.40051  0.65510  Biso   1.000  N
  N163     1.0000 0.94380  0.42391  0.64240  Biso   1.000  N
  C215     1.0000 0.85350  0.38540  0.75070  Biso   1.000  C
  H214     1.0000 0.82440  0.39980  0.76010  Biso   1.000  H
  H215     1.0000 0.84400  0.36650  0.71910  Biso   1.000  H
  N164     1.0000 0.10160  0.59027  0.57430  Biso   1.000  N
  H216     1.0000 0.08060  0.58530  0.54230  Biso   1.000  H
  C216     1.0000 0.91600  0.43647  0.74370  Biso   1.000  C
  H217     1.0000 0.91040  0.44710  0.78640  Biso   1.000  H
  N165     1.0000 0.15240  0.66588  0.47990  Biso   1.000  N
  C217     1.0000 0.06300  0.54420  0.63800  Biso   1.000  C
  H218     1.0000 0.04100  0.54240  0.60110  Biso   1.000  H
  N166     1.0000 0.17690  0.68938  0.51770  Biso   1.000  N
  C218     1.0000 0.08920  0.52490  0.74450  Biso   1.000  C
  H219     1.0000 0.08470  0.51070  0.78350  Biso   1.000  H
  N167     1.0000 0.20540  0.70855  0.47570  Biso   1.000  N
  C219     1.0000 0.13000  0.54670  0.74150  Biso   1.000  C
  H220     1.0000 0.15330  0.54650  0.77700  Biso   1.000  H
  N168     1.0000 0.19520  0.69639  0.40970  Biso   1.000  N
  C220     1.0000 0.13630  0.56910  0.68550  Biso   1.000  C
  H221     1.0000 0.16340  0.58440  0.68320  Biso   1.000  H
  C221     1.0000 0.11520  0.64010  0.49920  Biso   1.000  C
  H222     1.0000 0.08430  0.65230  0.50940  Biso   1.000  H
  H223     1.0000 0.10930  0.62410  0.46070  Biso   1.000  H
  C222     1.0000 0.16370  0.67121  0.41270  Biso   1.000  C
  H224     1.0000 0.15080  0.65870  0.37530  Biso   1.000  H
  C223     1.0000 0.13160  0.61856  0.56300  Biso   1.000  C
  C224     1.0000 0.10150  0.56836  0.63260  Biso   1.000  C
  C225     1.0000 0.31140  0.20084  0.08290  Biso   1.000  C
  H225     1.0000 0.28300  0.20020  0.11020  Biso   1.000  H
  N169     1.0000 0.31240  0.22209  0.02730  Biso   1.000  N
  O29      1.0000 0.66640  0.87285  0.40110  Biso   1.000  O
  C226     1.0000 0.35270  0.22218  0.98860  Biso   1.000  C
  H226     1.0000 0.35350  0.23690  0.95000  Biso   1.000  H
  N170     1.0000 0.55520  0.97698  0.30670  Biso   1.000  N
  O30      1.0000 0.40710  0.11812  0.14890  Biso   1.000  O
  C227     1.0000 0.39380  0.20130  0.00310  Biso   1.000  C
  H227     1.0000 0.42150  0.20200  0.97440  Biso   1.000  H
  N171     1.0000 0.44790  0.05301  0.30300  Biso   1.000  N
  C228     1.0000 0.39320  0.17930  0.06060  Biso   1.000  C
  H228     1.0000 0.42000  0.16480  0.07130  Biso   1.000  H
  N172     1.0000 0.34540  0.15925  0.16200  Biso   1.000  N
  H229     1.0000 0.32180  0.16560  0.18920  Biso   1.000  H
  N173     1.0000 0.39250  0.09248  0.28110  Biso   1.000  N
  C229     1.0000 0.35170  0.17962  0.10090  Biso   1.000  C
  C230     1.0000 0.37300  0.13057  0.18210  Biso   1.000  C
  N174     1.0000 0.41010  0.09949  0.34490  Biso   1.000  N
  N175     1.0000 0.44380  0.07609  0.35760  Biso   1.000  N
  C231     1.0000 0.35350  0.11460  0.24930  Biso   1.000  C
  H230     1.0000 0.32440  0.10020  0.23990  Biso   1.000  H
  H231     1.0000 0.34400  0.13350  0.28090  Biso   1.000  H
  N176     1.0000 0.60160  0.90973  0.42570  Biso   1.000  N
  H232     1.0000 0.58060  0.91470  0.45770  Biso   1.000  H
  C232     1.0000 0.41600  0.06353  0.25630  Biso   1.000  C
  H233     1.0000 0.41040  0.05290  0.21360  Biso   1.000  H
  N177     1.0000 0.65240  0.83412  0.52010  Biso   1.000  N
  C233     1.0000 0.56300  0.95580  0.36200  Biso   1.000  C
  H234     1.0000 0.54100  0.95760  0.39890  Biso   1.000  H
  N178     1.0000 0.67690  0.81062  0.48230  Biso   1.000  N
  C234     1.0000 0.58920  0.97510  0.25550  Biso   1.000  C
  H235     1.0000 0.58470  0.98930  0.21650  Biso   1.000  H
  N179     1.0000 0.70540  0.79145  0.52430  Biso   1.000  N
  C235     1.0000 0.63000  0.95330  0.25850  Biso   1.000  C
  H236     1.0000 0.65330  0.95350  0.22300  Biso   1.000  H
  N180     1.0000 0.69520  0.80361  0.59030  Biso   1.000  N
  C236     1.0000 0.63630  0.93090  0.31450  Biso   1.000  C
  H237     1.0000 0.66340  0.91560  0.31680  Biso   1.000  H
  C237     1.0000 0.61520  0.85990  0.50080  Biso   1.000  C
  H238     1.0000 0.58430  0.84770  0.49060  Biso   1.000  H
  H239     1.0000 0.60930  0.87590  0.53930  Biso   1.000  H
  C238     1.0000 0.66370  0.82879  0.58730  Biso   1.000  C
  H240     1.0000 0.65080  0.84130  0.62470  Biso   1.000  H
  C239     1.0000 0.63160  0.88144  0.43700  Biso   1.000  C
  C240     1.0000 0.60150  0.93164  0.36740  Biso   1.000  C
  C241     1.0000 0.18860  0.79916  0.58290  Biso   1.000  C
  H241     1.0000 0.21700  0.79980  0.61020  Biso   1.000  H
  N181     1.0000 0.18760  0.77791  0.52730  Biso   1.000  N
  O31      1.0000 0.83360  0.12715  0.90110  Biso   1.000  O
  C242     1.0000 0.14730  0.77782  0.48860  Biso   1.000  C
  H242     1.0000 0.14650  0.76310  0.45000  Biso   1.000  H
  N182     1.0000 0.94480  0.02302  0.80670  Biso   1.000  N
  O32      1.0000 0.09290  0.88188  0.64890  Biso   1.000  O
  C243     1.0000 0.10620  0.79870  0.50310  Biso   1.000  C
  H243     1.0000 0.07850  0.79800  0.47440  Biso   1.000  H
  N183     1.0000 0.05210  0.94699  0.80300  Biso   1.000  N
  C244     1.0000 0.10680  0.82070  0.56060  Biso   1.000  C
  H244     1.0000 0.08000  0.83520  0.57130  Biso   1.000  H
  N184     1.0000 0.15460  0.84075  0.66200  Biso   1.000  N
  H245     1.0000 0.17820  0.83440  0.68920  Biso   1.000  H
  N185     1.0000 0.10750  0.90752  0.78110  Biso   1.000  N
  C245     1.0000 0.14830  0.82038  0.60090  Biso   1.000  C
  C246     1.0000 0.12700  0.86943  0.68210  Biso   1.000  C
  N186     1.0000 0.08990  0.90051  0.84490  Biso   1.000  N
  N187     1.0000 0.05620  0.92391  0.85760  Biso   1.000  N
  C247     1.0000 0.14650  0.88540  0.74930  Biso   1.000  C
  H246     1.0000 0.17560  0.89980  0.73990  Biso   1.000  H
  H247     1.0000 0.15600  0.86650  0.78090  Biso   1.000  H
  N188     1.0000 0.89840  0.09027  0.92570  Biso   1.000  N
  H248     1.0000 0.91940  0.08530  0.95770  Biso   1.000  H
  C248     1.0000 0.08400  0.93647  0.75630  Biso   1.000  C
  H249     1.0000 0.08960  0.94710  0.71360  Biso   1.000  H
  N189     1.0000 0.84760  0.16588  0.02010  Biso   1.000  N
  C249     1.0000 0.93700  0.04420  0.86200  Biso   1.000  C
  H250     1.0000 0.95900  0.04240  0.89890  Biso   1.000  H
  N190     1.0000 0.82310  0.18938  0.98230  Biso   1.000  N
  C250     1.0000 0.91080  0.02490  0.75550  Biso   1.000  C
  H251     1.0000 0.91530  0.01070  0.71650  Biso   1.000  H
  N191     1.0000 0.79460  0.20855  0.02430  Biso   1.000  N
  C251     1.0000 0.87000  0.04670  0.75850  Biso   1.000  C
  H252     1.0000 0.84670  0.04650  0.72300  Biso   1.000  H
  N192     1.0000 0.80480  0.19639  0.09030  Biso   1.000  N
  C252     1.0000 0.86370  0.06910  0.81450  Biso   1.000  C
  H253     1.0000 0.83660  0.08440  0.81680  Biso   1.000  H
  C253     1.0000 0.88480  0.14010  0.00080  Biso   1.000  C
  H254     1.0000 0.91570  0.15230  0.99060  Biso   1.000  H
  H255     1.0000 0.89070  0.12410  0.03930  Biso   1.000  H
  C254     1.0000 0.83630  0.17121  0.08730  Biso   1.000  C
  H256     1.0000 0.84920  0.15870  0.12470  Biso   1.000  H
  C255     1.0000 0.86840  0.11856  0.93700  Biso   1.000  C
  C256     1.0000 0.89850  0.06836  0.86740  Biso   1.000  C
  Cu9      1.0000 0.00000  0.98616  0.80491  Biso   1.000  Cu
  Cu10     1.0000 0.50000  0.01384  0.30491  Biso   1.000  Cu
  Cu11     1.0000 0.00000  0.48616  0.69509  Biso   1.000  Cu
  Cu12     1.0000 0.50000  0.51384  0.19509  Biso   1.000  Cu
  Cu13     1.0000 0.75000  0.25000  0.00000  Biso   1.000  Cu
  Cu14     1.0000 0.25000  0.75000  0.50000  Biso   1.000  Cu
  Cu15     1.0000 0.75000  0.75000  0.50000  Biso   1.000  Cu
  Cu16     1.0000 0.25000  0.25000  0.00000  Biso   1.000  Cu
