data_image0
_cell_length_a       34.5583
_cell_length_b       19.0573
_cell_length_c       23.688
_cell_angle_alpha    90
_cell_angle_beta     128.188
_cell_angle_gamma    90

_symmetry_space_group_name_H-M    "P 1"
_symmetry_int_tables_number       1

loop_
  _symmetry_equiv_pos_as_xyz
  'x, y, z'

loop_
  _atom_site_label
  _atom_site_occupancy
  _atom_site_fract_x
  _atom_site_fract_y
  _atom_site_fract_z
  _atom_site_thermal_displace_type
  _atom_site_B_iso_or_equiv
  _atom_site_type_symbol
  Gd1      1.0000 0.20624  0.09203  0.71776  Biso   1.000  Gd
  O1       1.0000 0.13101  0.11400  0.70610  Biso   1.000  O
  O2       1.0000 0.29728  0.09380  0.80500  Biso   1.000  O
  O3       1.0000 0.23707  0.03850  0.66150  Biso   1.000  O
  O4       1.0000 0.14082  0.06640  0.59445  Biso   1.000  O
  O5       1.0000 0.18453  0.97430  0.70500  Biso   1.000  O
  O6       1.0000 0.20833  0.19490  0.66390  Biso   1.000  O
  O7       1.0000 0.22420  0.07548  0.83620  Biso   1.000  O
  O8       1.0000 0.22782  0.18410  0.80690  Biso   1.000  O
  C1       1.0000 0.09230  0.07930  0.67710  Biso   1.000  C
  C2       1.0000 0.31620  0.03370  0.82420  Biso   1.000  C
  Gd2      1.0000 0.17568  0.04273  0.53520  Biso   1.000  Gd
  Gd3      1.0000 0.24218  0.91392  0.69509  Biso   1.000  Gd
  Gd4      1.0000 0.10515  0.95571  0.58737  Biso   1.000  Gd
  C3       1.0000 0.05320  0.10550  0.68150  Biso   1.000  C
  O9       1.0000 0.08105  0.02460  0.64040  Biso   1.000  O
  C4       1.0000 0.37060  0.02550  0.87770  Biso   1.000  C
  O10      1.0000 0.29071  0.97760  0.80020  Biso   1.000  O
  O11      1.0000 0.23842  0.97610  0.54870  Biso   1.000  O
  O12      1.0000 0.16816  0.93380  0.57807  Biso   1.000  O
  O13      1.0000 0.09424  0.07960  0.44220  Biso   1.000  O
  O14      1.0000 0.18936  0.16460  0.55830  Biso   1.000  O
  O15      1.0000 0.20243  0.82980  0.71520  Biso   1.000  O
  O16      1.0000 0.29328  0.92630  0.65680  Biso   1.000  O
  O17      1.0000 0.12217  0.85310  0.65340  Biso   1.000  O
  O18      1.0000 0.05630  0.00400  0.46550  Biso   1.000  O
  C5       1.0000 0.04570  0.17700  0.68170  Biso   1.000  C
  C6       1.0000 0.01940  0.05890  0.67650  Biso   1.000  C
  C7       1.0000 0.39010  0.96030  0.90700  Biso   1.000  C
  C8       1.0000 0.40140  0.07900  0.89590  Biso   1.000  C
  C9       1.0000 0.27660  0.94220  0.59290  Biso   1.000  C
  C10      1.0000 0.05680  0.04920  0.42630  Biso   1.000  C
  C11      1.0000 0.16110  0.82160  0.70140  Biso   1.000  C
  H1       1.0000 0.06770  0.20910  0.68600  Biso   1.000  H
  C12      1.0000 0.00510  0.20020  0.67520  Biso   1.000  C
  C13      1.0000 0.02820  0.98150  0.68880  Biso   1.000  C
  N1       1.0000 0.97883  0.08170  0.66720  Biso   1.000  N
  H2       1.0000 0.36910  0.92230  0.89380  Biso   1.000  H
  C14      1.0000 0.44050  0.95080  0.95570  Biso   1.000  C
  C15      1.0000 0.45270  0.06940  0.94420  Biso   1.000  C
  H3       1.0000 0.38870  0.12320  0.87650  Biso   1.000  H
  C16      1.0000 0.30640  0.92180  0.56940  Biso   1.000  C
  C17      1.0000 0.00850  0.06810  0.35590  Biso   1.000  C
  C18      1.0000 0.15880  0.76940  0.74640  Biso   1.000  C
  H4       1.0000 0.00010  0.24780  0.67750  Biso   1.000  H
  C19      1.0000 0.97190  0.15000  0.66520  Biso   1.000  C
  N2       1.0000 0.07262  0.96180  0.74850  Biso   1.000  N
  H5       1.0000 0.45290  0.90690  0.97650  Biso   1.000  H
  C20      1.0000 0.47280  0.00530  0.97430  Biso   1.000  C
  H6       1.0000 0.47340  0.10730  0.95570  Biso   1.000  H
  C21      1.0000 0.35440  0.94510  0.60840  Biso   1.000  C
  C22      1.0000 0.28700  0.88280  0.50680  Biso   1.000  C
  C23      1.0000 0.00010  0.13820  0.33560  Biso   1.000  C
  C24      1.0000 0.11800  0.72610  0.71570  Biso   1.000  C
  C25      1.0000 0.19730  0.76060  0.81900  Biso   1.000  C
  H7       1.0000 0.94320  0.16570  0.65670  Biso   1.000  H
  C26      1.0000 0.08030  0.89470  0.76580  Biso   1.000  C
  H8       1.0000 0.36900  0.96860  0.65160  Biso   1.000  H
  C27      1.0000 0.38080  0.93360  0.58320  Biso   1.000  C
  C28      1.0000 0.23810  0.84630  0.46410  Biso   1.000  C
  N3       1.0000 0.31245  0.87060  0.48220  Biso   1.000  N
  C29      1.0000 0.95460  0.15720  0.27310  Biso   1.000  C
  H9       1.0000 0.02450  0.17170  0.36340  Biso   1.000  H
  H10      1.0000 0.09090  0.73180  0.66780  Biso   1.000  H
  C30      1.0000 0.11780  0.67530  0.75590  Biso   1.000  C
  C31      1.0000 0.24040  0.80870  0.86160  Biso   1.000  C
  N4       1.0000 0.19730  0.71130  0.85900  Biso   1.000  N
  H11      1.0000 0.11120  0.88150  0.80670  Biso   1.000  H
  H12      1.0000 0.41300  0.94950  0.60840  Biso   1.000  H
  C32      1.0000 0.35770  0.89760  0.51920  Biso   1.000  C
  C33      1.0000 0.21250  0.83070  0.39140  Biso   1.000  C
  N5       1.0000 0.22174  0.82430  0.50020  Biso   1.000  N
  H13      1.0000 0.94770  0.20360  0.25760  Biso   1.000  H
  H14      1.0000 0.09080  0.64580  0.73600  Biso   1.000  H
  C34      1.0000 0.15840  0.66860  0.82650  Biso   1.000  C
  C35      1.0000 0.28880  0.78220  0.90320  Biso   1.000  C
  N6       1.0000 0.23080  0.87700  0.86240  Biso   1.000  N
  H15      1.0000 0.37470  0.89190  0.50070  Biso   1.000  H
  C36      1.0000 0.17060  0.78860  0.35660  Biso   1.000  C
  C37      1.0000 0.22437  0.85880  0.34460  Biso   1.000  C
  C38      1.0000 0.18020  0.78680  0.46470  Biso   1.000  C
  H16      1.0000 0.15880  0.63230  0.85310  Biso   1.000  H
  C39      1.0000 0.32710  0.82700  0.95090  Biso   1.000  C
  C40      1.0000 0.29750  0.70760  0.89360  Biso   1.000  C
  C41      1.0000 0.26890  0.91830  0.90890  Biso   1.000  C
  C42      1.0000 0.15370  0.76680  0.39340  Biso   1.000  C
  H17      1.0000 0.15420  0.77520  0.30910  Biso   1.000  H
  H18      1.0000 0.16830  0.77330  0.48920  Biso   1.000  H
  C43      1.0000 0.31700  0.89620  0.95440  Biso   1.000  C
  H19      1.0000 0.35940  0.81070  0.98030  Biso   1.000  H
  H20      1.0000 0.26260  0.96540  0.91060  Biso   1.000  H
  H21      1.0000 0.12550  0.73960  0.37120  Biso   1.000  H
  H22      1.0000 0.34210  0.92710  0.98680  Biso   1.000  H
  Gd5      1.0000 0.70624  0.59203  0.71776  Biso   1.000  Gd
  O19      1.0000 0.63101  0.61400  0.70610  Biso   1.000  O
  O20      1.0000 0.79728  0.59380  0.80500  Biso   1.000  O
  O21      1.0000 0.73707  0.53850  0.66150  Biso   1.000  O
  O22      1.0000 0.64082  0.56640  0.59445  Biso   1.000  O
  O23      1.0000 0.68453  0.47430  0.70500  Biso   1.000  O
  O24      1.0000 0.70833  0.69490  0.66390  Biso   1.000  O
  O25      1.0000 0.72420  0.57548  0.83620  Biso   1.000  O
  O26      1.0000 0.72782  0.68410  0.80690  Biso   1.000  O
  C44      1.0000 0.59230  0.57930  0.67710  Biso   1.000  C
  C45      1.0000 0.81620  0.53370  0.82420  Biso   1.000  C
  Gd6      1.0000 0.67568  0.54273  0.53520  Biso   1.000  Gd
  Gd7      1.0000 0.74218  0.41392  0.69509  Biso   1.000  Gd
  Gd8      1.0000 0.60515  0.45571  0.58737  Biso   1.000  Gd
  C46      1.0000 0.55320  0.60550  0.68150  Biso   1.000  C
  O27      1.0000 0.58105  0.52460  0.64040  Biso   1.000  O
  C47      1.0000 0.87060  0.52550  0.87770  Biso   1.000  C
  O28      1.0000 0.79071  0.47760  0.80020  Biso   1.000  O
  O29      1.0000 0.73842  0.47610  0.54870  Biso   1.000  O
  O30      1.0000 0.66816  0.43380  0.57807  Biso   1.000  O
  O31      1.0000 0.59424  0.57960  0.44220  Biso   1.000  O
  O32      1.0000 0.68936  0.66460  0.55830  Biso   1.000  O
  O33      1.0000 0.70243  0.32980  0.71520  Biso   1.000  O
  O34      1.0000 0.79328  0.42630  0.65680  Biso   1.000  O
  O35      1.0000 0.62217  0.35310  0.65340  Biso   1.000  O
  O36      1.0000 0.55630  0.50400  0.46550  Biso   1.000  O
  C48      1.0000 0.54570  0.67700  0.68170  Biso   1.000  C
  C49      1.0000 0.51940  0.55890  0.67650  Biso   1.000  C
  C50      1.0000 0.89010  0.46030  0.90700  Biso   1.000  C
  C51      1.0000 0.90140  0.57900  0.89590  Biso   1.000  C
  C52      1.0000 0.77660  0.44220  0.59290  Biso   1.000  C
  C53      1.0000 0.55680  0.54920  0.42630  Biso   1.000  C
  C54      1.0000 0.66110  0.32160  0.70140  Biso   1.000  C
  H23      1.0000 0.56770  0.70910  0.68600  Biso   1.000  H
  C55      1.0000 0.50510  0.70020  0.67520  Biso   1.000  C
  C56      1.0000 0.52820  0.48150  0.68880  Biso   1.000  C
  N7       1.0000 0.47883  0.58170  0.66720  Biso   1.000  N
  H24      1.0000 0.86910  0.42230  0.89380  Biso   1.000  H
  C57      1.0000 0.94050  0.45080  0.95570  Biso   1.000  C
  C58      1.0000 0.95270  0.56940  0.94420  Biso   1.000  C
  H25      1.0000 0.88870  0.62320  0.87650  Biso   1.000  H
  C59      1.0000 0.80640  0.42180  0.56940  Biso   1.000  C
  C60      1.0000 0.50850  0.56810  0.35590  Biso   1.000  C
  C61      1.0000 0.65880  0.26940  0.74640  Biso   1.000  C
  H26      1.0000 0.50010  0.74780  0.67750  Biso   1.000  H
  C62      1.0000 0.47190  0.65000  0.66520  Biso   1.000  C
  N8       1.0000 0.57262  0.46180  0.74850  Biso   1.000  N
  H27      1.0000 0.95290  0.40690  0.97650  Biso   1.000  H
  C63      1.0000 0.97280  0.50530  0.97430  Biso   1.000  C
  H28      1.0000 0.97340  0.60730  0.95570  Biso   1.000  H
  C64      1.0000 0.85440  0.44510  0.60840  Biso   1.000  C
  C65      1.0000 0.78700  0.38280  0.50680  Biso   1.000  C
  C66      1.0000 0.50010  0.63820  0.33560  Biso   1.000  C
  C67      1.0000 0.61800  0.22610  0.71570  Biso   1.000  C
  C68      1.0000 0.69730  0.26060  0.81900  Biso   1.000  C
  H29      1.0000 0.44320  0.66570  0.65670  Biso   1.000  H
  C69      1.0000 0.58030  0.39470  0.76580  Biso   1.000  C
  H30      1.0000 0.86900  0.46860  0.65160  Biso   1.000  H
  C70      1.0000 0.88080  0.43360  0.58320  Biso   1.000  C
  C71      1.0000 0.73810  0.34630  0.46410  Biso   1.000  C
  N9       1.0000 0.81245  0.37060  0.48220  Biso   1.000  N
  C72      1.0000 0.45460  0.65720  0.27310  Biso   1.000  C
  H31      1.0000 0.52450  0.67170  0.36340  Biso   1.000  H
  H32      1.0000 0.59090  0.23180  0.66780  Biso   1.000  H
  C73      1.0000 0.61780  0.17530  0.75590  Biso   1.000  C
  C74      1.0000 0.74040  0.30870  0.86160  Biso   1.000  C
  N10      1.0000 0.69730  0.21130  0.85900  Biso   1.000  N
  H33      1.0000 0.61120  0.38150  0.80670  Biso   1.000  H
  H34      1.0000 0.91300  0.44950  0.60840  Biso   1.000  H
  C75      1.0000 0.85770  0.39760  0.51920  Biso   1.000  C
  C76      1.0000 0.71250  0.33070  0.39140  Biso   1.000  C
  N11      1.0000 0.72174  0.32430  0.50020  Biso   1.000  N
  H35      1.0000 0.44770  0.70360  0.25760  Biso   1.000  H
  H36      1.0000 0.59080  0.14580  0.73600  Biso   1.000  H
  C77      1.0000 0.65840  0.16860  0.82650  Biso   1.000  C
  C78      1.0000 0.78880  0.28220  0.90320  Biso   1.000  C
  N12      1.0000 0.73080  0.37700  0.86240  Biso   1.000  N
  H37      1.0000 0.87470  0.39190  0.50070  Biso   1.000  H
  C79      1.0000 0.67060  0.28860  0.35660  Biso   1.000  C
  C80      1.0000 0.72437  0.35880  0.34460  Biso   1.000  C
  C81      1.0000 0.68020  0.28680  0.46470  Biso   1.000  C
  H38      1.0000 0.65880  0.13230  0.85310  Biso   1.000  H
  C82      1.0000 0.82710  0.32700  0.95090  Biso   1.000  C
  C83      1.0000 0.79750  0.20760  0.89360  Biso   1.000  C
  C84      1.0000 0.76890  0.41830  0.90890  Biso   1.000  C
  C85      1.0000 0.65370  0.26680  0.39340  Biso   1.000  C
  H39      1.0000 0.65420  0.27520  0.30910  Biso   1.000  H
  H40      1.0000 0.66830  0.27330  0.48920  Biso   1.000  H
  C86      1.0000 0.81700  0.39620  0.95440  Biso   1.000  C
  H41      1.0000 0.85940  0.31070  0.98030  Biso   1.000  H
  H42      1.0000 0.76260  0.46540  0.91060  Biso   1.000  H
  H43      1.0000 0.62550  0.23960  0.37120  Biso   1.000  H
  H44      1.0000 0.84210  0.42710  0.98680  Biso   1.000  H
  Gd9      1.0000 0.79376  0.09203  0.78224  Biso   1.000  Gd
  O37      1.0000 0.86899  0.11400  0.79390  Biso   1.000  O
  O38      1.0000 0.70272  0.09380  0.69500  Biso   1.000  O
  O39      1.0000 0.76293  0.03850  0.83850  Biso   1.000  O
  O40      1.0000 0.85918  0.06640  0.90555  Biso   1.000  O
  O41      1.0000 0.81547  0.97430  0.79500  Biso   1.000  O
  O42      1.0000 0.79167  0.19490  0.83610  Biso   1.000  O
  O43      1.0000 0.77580  0.07548  0.66380  Biso   1.000  O
  O44      1.0000 0.77218  0.18410  0.69310  Biso   1.000  O
  C87      1.0000 0.90770  0.07930  0.82290  Biso   1.000  C
  C88      1.0000 0.68380  0.03370  0.67580  Biso   1.000  C
  Gd10     1.0000 0.82432  0.04273  0.96480  Biso   1.000  Gd
  Gd11     1.0000 0.75782  0.91392  0.80491  Biso   1.000  Gd
  Gd12     1.0000 0.89485  0.95571  0.91263  Biso   1.000  Gd
  C89      1.0000 0.94680  0.10550  0.81850  Biso   1.000  C
  O45      1.0000 0.91895  0.02460  0.85960  Biso   1.000  O
  C90      1.0000 0.62940  0.02550  0.62230  Biso   1.000  C
  O46      1.0000 0.70929  0.97760  0.69980  Biso   1.000  O
  O47      1.0000 0.76158  0.97610  0.95130  Biso   1.000  O
  O48      1.0000 0.83184  0.93380  0.92193  Biso   1.000  O
  O49      1.0000 0.90576  0.07960  0.05780  Biso   1.000  O
  O50      1.0000 0.81064  0.16460  0.94170  Biso   1.000  O
  O51      1.0000 0.79757  0.82980  0.78480  Biso   1.000  O
  O52      1.0000 0.70672  0.92630  0.84320  Biso   1.000  O
  O53      1.0000 0.87783  0.85310  0.84660  Biso   1.000  O
  O54      1.0000 0.94370  0.00400  0.03450  Biso   1.000  O
  C91      1.0000 0.95430  0.17700  0.81830  Biso   1.000  C
  C92      1.0000 0.98060  0.05890  0.82350  Biso   1.000  C
  C93      1.0000 0.60990  0.96030  0.59300  Biso   1.000  C
  C94      1.0000 0.59860  0.07900  0.60410  Biso   1.000  C
  C95      1.0000 0.72340  0.94220  0.90710  Biso   1.000  C
  C96      1.0000 0.94320  0.04920  0.07370  Biso   1.000  C
  C97      1.0000 0.83890  0.82160  0.79860  Biso   1.000  C
  H45      1.0000 0.93230  0.20910  0.81400  Biso   1.000  H
  C98      1.0000 0.99490  0.20020  0.82480  Biso   1.000  C
  C99      1.0000 0.97180  0.98150  0.81120  Biso   1.000  C
  N13      1.0000 0.02117  0.08170  0.83280  Biso   1.000  N
  H46      1.0000 0.63090  0.92230  0.60620  Biso   1.000  H
  C100     1.0000 0.55950  0.95080  0.54430  Biso   1.000  C
  C101     1.0000 0.54730  0.06940  0.55580  Biso   1.000  C
  H47      1.0000 0.61130  0.12320  0.62350  Biso   1.000  H
  C102     1.0000 0.69360  0.92180  0.93060  Biso   1.000  C
  C103     1.0000 0.99150  0.06810  0.14410  Biso   1.000  C
  C104     1.0000 0.84120  0.76940  0.75360  Biso   1.000  C
  H48      1.0000 0.99990  0.24780  0.82250  Biso   1.000  H
  C105     1.0000 0.02810  0.15000  0.83480  Biso   1.000  C
  N14      1.0000 0.92738  0.96180  0.75150  Biso   1.000  N
  H49      1.0000 0.54710  0.90690  0.52350  Biso   1.000  H
  C106     1.0000 0.52720  0.00530  0.52570  Biso   1.000  C
  H50      1.0000 0.52660  0.10730  0.54430  Biso   1.000  H
  C107     1.0000 0.64560  0.94510  0.89160  Biso   1.000  C
  C108     1.0000 0.71300  0.88280  0.99320  Biso   1.000  C
  C109     1.0000 0.99990  0.13820  0.16440  Biso   1.000  C
  C110     1.0000 0.88200  0.72610  0.78430  Biso   1.000  C
  C111     1.0000 0.80270  0.76060  0.68100  Biso   1.000  C
  H51      1.0000 0.05680  0.16570  0.84330  Biso   1.000  H
  C112     1.0000 0.91970  0.89470  0.73420  Biso   1.000  C
  H52      1.0000 0.63100  0.96860  0.84840  Biso   1.000  H
  C113     1.0000 0.61920  0.93360  0.91680  Biso   1.000  C
  C114     1.0000 0.76190  0.84630  0.03590  Biso   1.000  C
  N15      1.0000 0.68755  0.87060  0.01780  Biso   1.000  N
  C115     1.0000 0.04540  0.15720  0.22690  Biso   1.000  C
  H53      1.0000 0.97550  0.17170  0.13660  Biso   1.000  H
  H54      1.0000 0.90910  0.73180  0.83220  Biso   1.000  H
  C116     1.0000 0.88220  0.67530  0.74410  Biso   1.000  C
  C117     1.0000 0.75960  0.80870  0.63840  Biso   1.000  C
  N16      1.0000 0.80270  0.71130  0.64100  Biso   1.000  N
  H55      1.0000 0.88880  0.88150  0.69330  Biso   1.000  H
  H56      1.0000 0.58700  0.94950  0.89160  Biso   1.000  H
  C118     1.0000 0.64230  0.89760  0.98080  Biso   1.000  C
  C119     1.0000 0.78750  0.83070  0.10860  Biso   1.000  C
  N17      1.0000 0.77826  0.82430  0.99980  Biso   1.000  N
  H57      1.0000 0.05230  0.20360  0.24240  Biso   1.000  H
  H58      1.0000 0.90920  0.64580  0.76400  Biso   1.000  H
  C120     1.0000 0.84160  0.66860  0.67350  Biso   1.000  C
  C121     1.0000 0.71120  0.78220  0.59680  Biso   1.000  C
  N18      1.0000 0.76920  0.87700  0.63760  Biso   1.000  N
  H59      1.0000 0.62530  0.89190  0.99930  Biso   1.000  H
  C122     1.0000 0.82940  0.78860  0.14340  Biso   1.000  C
  C123     1.0000 0.77563  0.85880  0.15540  Biso   1.000  C
  C124     1.0000 0.81980  0.78680  0.03530  Biso   1.000  C
  H60      1.0000 0.84120  0.63230  0.64690  Biso   1.000  H
  C125     1.0000 0.67290  0.82700  0.54910  Biso   1.000  C
  C126     1.0000 0.70250  0.70760  0.60640  Biso   1.000  C
  C127     1.0000 0.73110  0.91830  0.59110  Biso   1.000  C
  C128     1.0000 0.84630  0.76680  0.10660  Biso   1.000  C
  H61      1.0000 0.84580  0.77520  0.19090  Biso   1.000  H
  H62      1.0000 0.83170  0.77330  0.01080  Biso   1.000  H
  C129     1.0000 0.68300  0.89620  0.54560  Biso   1.000  C
  H63      1.0000 0.64060  0.81070  0.51970  Biso   1.000  H
  H64      1.0000 0.73740  0.96540  0.58940  Biso   1.000  H
  H65      1.0000 0.87450  0.73960  0.12880  Biso   1.000  H
  H66      1.0000 0.65790  0.92710  0.51320  Biso   1.000  H
  Gd13     1.0000 0.29376  0.59203  0.78224  Biso   1.000  Gd
  O55      1.0000 0.36899  0.61400  0.79390  Biso   1.000  O
  O56      1.0000 0.20272  0.59380  0.69500  Biso   1.000  O
  O57      1.0000 0.26293  0.53850  0.83850  Biso   1.000  O
  O58      1.0000 0.35918  0.56640  0.90555  Biso   1.000  O
  O59      1.0000 0.31547  0.47430  0.79500  Biso   1.000  O
  O60      1.0000 0.29167  0.69490  0.83610  Biso   1.000  O
  O61      1.0000 0.27580  0.57548  0.66380  Biso   1.000  O
  O62      1.0000 0.27218  0.68410  0.69310  Biso   1.000  O
  C130     1.0000 0.40770  0.57930  0.82290  Biso   1.000  C
  C131     1.0000 0.18380  0.53370  0.67580  Biso   1.000  C
  Gd14     1.0000 0.32432  0.54273  0.96480  Biso   1.000  Gd
  Gd15     1.0000 0.25782  0.41392  0.80491  Biso   1.000  Gd
  Gd16     1.0000 0.39485  0.45571  0.91263  Biso   1.000  Gd
  C132     1.0000 0.44680  0.60550  0.81850  Biso   1.000  C
  O63      1.0000 0.41895  0.52460  0.85960  Biso   1.000  O
  C133     1.0000 0.12940  0.52550  0.62230  Biso   1.000  C
  O64      1.0000 0.20929  0.47760  0.69980  Biso   1.000  O
  O65      1.0000 0.26158  0.47610  0.95130  Biso   1.000  O
  O66      1.0000 0.33184  0.43380  0.92193  Biso   1.000  O
  O67      1.0000 0.40576  0.57960  0.05780  Biso   1.000  O
  O68      1.0000 0.31064  0.66460  0.94170  Biso   1.000  O
  O69      1.0000 0.29757  0.32980  0.78480  Biso   1.000  O
  O70      1.0000 0.20672  0.42630  0.84320  Biso   1.000  O
  O71      1.0000 0.37783  0.35310  0.84660  Biso   1.000  O
  O72      1.0000 0.44370  0.50400  0.03450  Biso   1.000  O
  C134     1.0000 0.45430  0.67700  0.81830  Biso   1.000  C
  C135     1.0000 0.48060  0.55890  0.82350  Biso   1.000  C
  C136     1.0000 0.10990  0.46030  0.59300  Biso   1.000  C
  C137     1.0000 0.09860  0.57900  0.60410  Biso   1.000  C
  C138     1.0000 0.22340  0.44220  0.90710  Biso   1.000  C
  C139     1.0000 0.44320  0.54920  0.07370  Biso   1.000  C
  C140     1.0000 0.33890  0.32160  0.79860  Biso   1.000  C
  H67      1.0000 0.43230  0.70910  0.81400  Biso   1.000  H
  C141     1.0000 0.49490  0.70020  0.82480  Biso   1.000  C
  C142     1.0000 0.47180  0.48150  0.81120  Biso   1.000  C
  N19      1.0000 0.52117  0.58170  0.83280  Biso   1.000  N
  H68      1.0000 0.13090  0.42230  0.60620  Biso   1.000  H
  C143     1.0000 0.05950  0.45080  0.54430  Biso   1.000  C
  C144     1.0000 0.04730  0.56940  0.55580  Biso   1.000  C
  H69      1.0000 0.11130  0.62320  0.62350  Biso   1.000  H
  C145     1.0000 0.19360  0.42180  0.93060  Biso   1.000  C
  C146     1.0000 0.49150  0.56810  0.14410  Biso   1.000  C
  C147     1.0000 0.34120  0.26940  0.75360  Biso   1.000  C
  H70      1.0000 0.49990  0.74780  0.82250  Biso   1.000  H
  C148     1.0000 0.52810  0.65000  0.83480  Biso   1.000  C
  N20      1.0000 0.42738  0.46180  0.75150  Biso   1.000  N
  H71      1.0000 0.04710  0.40690  0.52350  Biso   1.000  H
  C149     1.0000 0.02720  0.50530  0.52570  Biso   1.000  C
  H72      1.0000 0.02660  0.60730  0.54430  Biso   1.000  H
  C150     1.0000 0.14560  0.44510  0.89160  Biso   1.000  C
  C151     1.0000 0.21300  0.38280  0.99320  Biso   1.000  C
  C152     1.0000 0.49990  0.63820  0.16440  Biso   1.000  C
  C153     1.0000 0.38200  0.22610  0.78430  Biso   1.000  C
  C154     1.0000 0.30270  0.26060  0.68100  Biso   1.000  C
  H73      1.0000 0.55680  0.66570  0.84330  Biso   1.000  H
  C155     1.0000 0.41970  0.39470  0.73420  Biso   1.000  C
  H74      1.0000 0.13100  0.46860  0.84840  Biso   1.000  H
  C156     1.0000 0.11920  0.43360  0.91680  Biso   1.000  C
  C157     1.0000 0.26190  0.34630  0.03590  Biso   1.000  C
  N21      1.0000 0.18755  0.37060  0.01780  Biso   1.000  N
  C158     1.0000 0.54540  0.65720  0.22690  Biso   1.000  C
  H75      1.0000 0.47550  0.67170  0.13660  Biso   1.000  H
  H76      1.0000 0.40910  0.23180  0.83220  Biso   1.000  H
  C159     1.0000 0.38220  0.17530  0.74410  Biso   1.000  C
  C160     1.0000 0.25960  0.30870  0.63840  Biso   1.000  C
  N22      1.0000 0.30270  0.21130  0.64100  Biso   1.000  N
  H77      1.0000 0.38880  0.38150  0.69330  Biso   1.000  H
  H78      1.0000 0.08700  0.44950  0.89160  Biso   1.000  H
  C161     1.0000 0.14230  0.39760  0.98080  Biso   1.000  C
  C162     1.0000 0.28750  0.33070  0.10860  Biso   1.000  C
  N23      1.0000 0.27826  0.32430  0.99980  Biso   1.000  N
  H79      1.0000 0.55230  0.70360  0.24240  Biso   1.000  H
  H80      1.0000 0.40920  0.14580  0.76400  Biso   1.000  H
  C163     1.0000 0.34160  0.16860  0.67350  Biso   1.000  C
  C164     1.0000 0.21120  0.28220  0.59680  Biso   1.000  C
  N24      1.0000 0.26920  0.37700  0.63760  Biso   1.000  N
  H81      1.0000 0.12530  0.39190  0.99930  Biso   1.000  H
  C165     1.0000 0.32940  0.28860  0.14340  Biso   1.000  C
  C166     1.0000 0.27563  0.35880  0.15540  Biso   1.000  C
  C167     1.0000 0.31980  0.28680  0.03530  Biso   1.000  C
  H82      1.0000 0.34120  0.13230  0.64690  Biso   1.000  H
  C168     1.0000 0.17290  0.32700  0.54910  Biso   1.000  C
  C169     1.0000 0.20250  0.20760  0.60640  Biso   1.000  C
  C170     1.0000 0.23110  0.41830  0.59110  Biso   1.000  C
  C171     1.0000 0.34630  0.26680  0.10660  Biso   1.000  C
  H83      1.0000 0.34580  0.27520  0.19090  Biso   1.000  H
  H84      1.0000 0.33170  0.27330  0.01080  Biso   1.000  H
  C172     1.0000 0.18300  0.39620  0.54560  Biso   1.000  C
  H85      1.0000 0.14060  0.31070  0.51970  Biso   1.000  H
  H86      1.0000 0.23740  0.46540  0.58940  Biso   1.000  H
  H87      1.0000 0.37450  0.23960  0.12880  Biso   1.000  H
  H88      1.0000 0.15790  0.42710  0.51320  Biso   1.000  H
  Gd17     1.0000 0.79376  0.90797  0.28224  Biso   1.000  Gd
  O73      1.0000 0.86899  0.88600  0.29390  Biso   1.000  O
  O74      1.0000 0.70272  0.90620  0.19500  Biso   1.000  O
  O75      1.0000 0.76293  0.96150  0.33850  Biso   1.000  O
  O76      1.0000 0.85918  0.93360  0.40555  Biso   1.000  O
  O77      1.0000 0.81547  0.02570  0.29500  Biso   1.000  O
  O78      1.0000 0.79167  0.80510  0.33610  Biso   1.000  O
  O79      1.0000 0.77580  0.92452  0.16380  Biso   1.000  O
  O80      1.0000 0.77218  0.81590  0.19310  Biso   1.000  O
  C173     1.0000 0.90770  0.92070  0.32290  Biso   1.000  C
  C174     1.0000 0.68380  0.96630  0.17580  Biso   1.000  C
  Gd18     1.0000 0.82432  0.95727  0.46480  Biso   1.000  Gd
  Gd19     1.0000 0.75782  0.08608  0.30491  Biso   1.000  Gd
  Gd20     1.0000 0.89485  0.04429  0.41263  Biso   1.000  Gd
  C175     1.0000 0.94680  0.89450  0.31850  Biso   1.000  C
  O81      1.0000 0.91895  0.97540  0.35960  Biso   1.000  O
  C176     1.0000 0.62940  0.97450  0.12230  Biso   1.000  C
  O82      1.0000 0.70929  0.02240  0.19980  Biso   1.000  O
  O83      1.0000 0.76158  0.02390  0.45130  Biso   1.000  O
  O84      1.0000 0.83184  0.06620  0.42193  Biso   1.000  O
  O85      1.0000 0.90576  0.92040  0.55780  Biso   1.000  O
  O86      1.0000 0.81064  0.83540  0.44170  Biso   1.000  O
  O87      1.0000 0.79757  0.17020  0.28480  Biso   1.000  O
  O88      1.0000 0.70672  0.07370  0.34320  Biso   1.000  O
  O89      1.0000 0.87783  0.14690  0.34660  Biso   1.000  O
  O90      1.0000 0.94370  0.99600  0.53450  Biso   1.000  O
  C177     1.0000 0.95430  0.82300  0.31830  Biso   1.000  C
  C178     1.0000 0.98060  0.94110  0.32350  Biso   1.000  C
  C179     1.0000 0.60990  0.03970  0.09300  Biso   1.000  C
  C180     1.0000 0.59860  0.92100  0.10410  Biso   1.000  C
  C181     1.0000 0.72340  0.05780  0.40710  Biso   1.000  C
  C182     1.0000 0.94320  0.95080  0.57370  Biso   1.000  C
  C183     1.0000 0.83890  0.17840  0.29860  Biso   1.000  C
  H89      1.0000 0.93230  0.79090  0.31400  Biso   1.000  H
  C184     1.0000 0.99490  0.79980  0.32480  Biso   1.000  C
  C185     1.0000 0.97180  0.01850  0.31120  Biso   1.000  C
  N25      1.0000 0.02117  0.91830  0.33280  Biso   1.000  N
  H90      1.0000 0.63090  0.07770  0.10620  Biso   1.000  H
  C186     1.0000 0.55950  0.04920  0.04430  Biso   1.000  C
  C187     1.0000 0.54730  0.93060  0.05580  Biso   1.000  C
  H91      1.0000 0.61130  0.87680  0.12350  Biso   1.000  H
  C188     1.0000 0.69360  0.07820  0.43060  Biso   1.000  C
  C189     1.0000 0.99150  0.93190  0.64410  Biso   1.000  C
  C190     1.0000 0.84120  0.23060  0.25360  Biso   1.000  C
  H92      1.0000 0.99990  0.75220  0.32250  Biso   1.000  H
  C191     1.0000 0.02810  0.85000  0.33480  Biso   1.000  C
  N26      1.0000 0.92738  0.03820  0.25150  Biso   1.000  N
  H93      1.0000 0.54710  0.09310  0.02350  Biso   1.000  H
  C192     1.0000 0.52720  0.99470  0.02570  Biso   1.000  C
  H94      1.0000 0.52660  0.89270  0.04430  Biso   1.000  H
  C193     1.0000 0.64560  0.05490  0.39160  Biso   1.000  C
  C194     1.0000 0.71300  0.11720  0.49320  Biso   1.000  C
  C195     1.0000 0.99990  0.86180  0.66440  Biso   1.000  C
  C196     1.0000 0.88200  0.27390  0.28430  Biso   1.000  C
  C197     1.0000 0.80270  0.23940  0.18100  Biso   1.000  C
  H95      1.0000 0.05680  0.83430  0.34330  Biso   1.000  H
  C198     1.0000 0.91970  0.10530  0.23420  Biso   1.000  C
  H96      1.0000 0.63100  0.03140  0.34840  Biso   1.000  H
  C199     1.0000 0.61920  0.06640  0.41680  Biso   1.000  C
  C200     1.0000 0.76190  0.15370  0.53590  Biso   1.000  C
  N27      1.0000 0.68755  0.12940  0.51780  Biso   1.000  N
  C201     1.0000 0.04540  0.84280  0.72690  Biso   1.000  C
  H97      1.0000 0.97550  0.82830  0.63660  Biso   1.000  H
  H98      1.0000 0.90910  0.26820  0.33220  Biso   1.000  H
  C202     1.0000 0.88220  0.32470  0.24410  Biso   1.000  C
  C203     1.0000 0.75960  0.19130  0.13840  Biso   1.000  C
  N28      1.0000 0.80270  0.28870  0.14100  Biso   1.000  N
  H99      1.0000 0.88880  0.11850  0.19330  Biso   1.000  H
  H100     1.0000 0.58700  0.05050  0.39160  Biso   1.000  H
  C204     1.0000 0.64230  0.10240  0.48080  Biso   1.000  C
  C205     1.0000 0.78750  0.16930  0.60860  Biso   1.000  C
  N29      1.0000 0.77826  0.17570  0.49980  Biso   1.000  N
  H101     1.0000 0.05230  0.79640  0.74240  Biso   1.000  H
  H102     1.0000 0.90920  0.35420  0.26400  Biso   1.000  H
  C206     1.0000 0.84160  0.33140  0.17350  Biso   1.000  C
  C207     1.0000 0.71120  0.21780  0.09680  Biso   1.000  C
  N30      1.0000 0.76920  0.12300  0.13760  Biso   1.000  N
  H103     1.0000 0.62530  0.10810  0.49930  Biso   1.000  H
  C208     1.0000 0.82940  0.21140  0.64340  Biso   1.000  C
  C209     1.0000 0.77563  0.14120  0.65540  Biso   1.000  C
  C210     1.0000 0.81980  0.21320  0.53530  Biso   1.000  C
  H104     1.0000 0.84120  0.36770  0.14690  Biso   1.000  H
  C211     1.0000 0.67290  0.17300  0.04910  Biso   1.000  C
  C212     1.0000 0.70250  0.29240  0.10640  Biso   1.000  C
  C213     1.0000 0.73110  0.08170  0.09110  Biso   1.000  C
  C214     1.0000 0.84630  0.23320  0.60660  Biso   1.000  C
  H105     1.0000 0.84580  0.22480  0.69090  Biso   1.000  H
  H106     1.0000 0.83170  0.22670  0.51080  Biso   1.000  H
  C215     1.0000 0.68300  0.10380  0.04560  Biso   1.000  C
  H107     1.0000 0.64060  0.18930  0.01970  Biso   1.000  H
  H108     1.0000 0.73740  0.03460  0.08940  Biso   1.000  H
  H109     1.0000 0.87450  0.26040  0.62880  Biso   1.000  H
  H110     1.0000 0.65790  0.07290  0.01320  Biso   1.000  H
  Gd21     1.0000 0.29376  0.40797  0.28224  Biso   1.000  Gd
  O91      1.0000 0.36899  0.38600  0.29390  Biso   1.000  O
  O92      1.0000 0.20272  0.40620  0.19500  Biso   1.000  O
  O93      1.0000 0.26293  0.46150  0.33850  Biso   1.000  O
  O94      1.0000 0.35918  0.43360  0.40555  Biso   1.000  O
  O95      1.0000 0.31547  0.52570  0.29500  Biso   1.000  O
  O96      1.0000 0.29167  0.30510  0.33610  Biso   1.000  O
  O97      1.0000 0.27580  0.42452  0.16380  Biso   1.000  O
  O98      1.0000 0.27218  0.31590  0.19310  Biso   1.000  O
  C216     1.0000 0.40770  0.42070  0.32290  Biso   1.000  C
  C217     1.0000 0.18380  0.46630  0.17580  Biso   1.000  C
  Gd22     1.0000 0.32432  0.45727  0.46480  Biso   1.000  Gd
  Gd23     1.0000 0.25782  0.58608  0.30491  Biso   1.000  Gd
  Gd24     1.0000 0.39485  0.54429  0.41263  Biso   1.000  Gd
  C218     1.0000 0.44680  0.39450  0.31850  Biso   1.000  C
  O99      1.0000 0.41895  0.47540  0.35960  Biso   1.000  O
  C219     1.0000 0.12940  0.47450  0.12230  Biso   1.000  C
  O100     1.0000 0.20929  0.52240  0.19980  Biso   1.000  O
  O101     1.0000 0.26158  0.52390  0.45130  Biso   1.000  O
  O102     1.0000 0.33184  0.56620  0.42193  Biso   1.000  O
  O103     1.0000 0.40576  0.42040  0.55780  Biso   1.000  O
  O104     1.0000 0.31064  0.33540  0.44170  Biso   1.000  O
  O105     1.0000 0.29757  0.67020  0.28480  Biso   1.000  O
  O106     1.0000 0.20672  0.57370  0.34320  Biso   1.000  O
  O107     1.0000 0.37783  0.64690  0.34660  Biso   1.000  O
  O108     1.0000 0.44370  0.49600  0.53450  Biso   1.000  O
  C220     1.0000 0.45430  0.32300  0.31830  Biso   1.000  C
  C221     1.0000 0.48060  0.44110  0.32350  Biso   1.000  C
  C222     1.0000 0.10990  0.53970  0.09300  Biso   1.000  C
  C223     1.0000 0.09860  0.42100  0.10410  Biso   1.000  C
  C224     1.0000 0.22340  0.55780  0.40710  Biso   1.000  C
  C225     1.0000 0.44320  0.45080  0.57370  Biso   1.000  C
  C226     1.0000 0.33890  0.67840  0.29860  Biso   1.000  C
  H111     1.0000 0.43230  0.29090  0.31400  Biso   1.000  H
  C227     1.0000 0.49490  0.29980  0.32480  Biso   1.000  C
  C228     1.0000 0.47180  0.51850  0.31120  Biso   1.000  C
  N31      1.0000 0.52117  0.41830  0.33280  Biso   1.000  N
  H112     1.0000 0.13090  0.57770  0.10620  Biso   1.000  H
  C229     1.0000 0.05950  0.54920  0.04430  Biso   1.000  C
  C230     1.0000 0.04730  0.43060  0.05580  Biso   1.000  C
  H113     1.0000 0.11130  0.37680  0.12350  Biso   1.000  H
  C231     1.0000 0.19360  0.57820  0.43060  Biso   1.000  C
  C232     1.0000 0.49150  0.43190  0.64410  Biso   1.000  C
  C233     1.0000 0.34120  0.73060  0.25360  Biso   1.000  C
  H114     1.0000 0.49990  0.25220  0.32250  Biso   1.000  H
  C234     1.0000 0.52810  0.35000  0.33480  Biso   1.000  C
  N32      1.0000 0.42738  0.53820  0.25150  Biso   1.000  N
  H115     1.0000 0.04710  0.59310  0.02350  Biso   1.000  H
  C235     1.0000 0.02720  0.49470  0.02570  Biso   1.000  C
  H116     1.0000 0.02660  0.39270  0.04430  Biso   1.000  H
  C236     1.0000 0.14560  0.55490  0.39160  Biso   1.000  C
  C237     1.0000 0.21300  0.61720  0.49320  Biso   1.000  C
  C238     1.0000 0.49990  0.36180  0.66440  Biso   1.000  C
  C239     1.0000 0.38200  0.77390  0.28430  Biso   1.000  C
  C240     1.0000 0.30270  0.73940  0.18100  Biso   1.000  C
  H117     1.0000 0.55680  0.33430  0.34330  Biso   1.000  H
  C241     1.0000 0.41970  0.60530  0.23420  Biso   1.000  C
  H118     1.0000 0.13100  0.53140  0.34840  Biso   1.000  H
  C242     1.0000 0.11920  0.56640  0.41680  Biso   1.000  C
  C243     1.0000 0.26190  0.65370  0.53590  Biso   1.000  C
  N33      1.0000 0.18755  0.62940  0.51780  Biso   1.000  N
  C244     1.0000 0.54540  0.34280  0.72690  Biso   1.000  C
  H119     1.0000 0.47550  0.32830  0.63660  Biso   1.000  H
  H120     1.0000 0.40910  0.76820  0.33220  Biso   1.000  H
  C245     1.0000 0.38220  0.82470  0.24410  Biso   1.000  C
  C246     1.0000 0.25960  0.69130  0.13840  Biso   1.000  C
  N34      1.0000 0.30270  0.78870  0.14100  Biso   1.000  N
  H121     1.0000 0.38880  0.61850  0.19330  Biso   1.000  H
  H122     1.0000 0.08700  0.55050  0.39160  Biso   1.000  H
  C247     1.0000 0.14230  0.60240  0.48080  Biso   1.000  C
  C248     1.0000 0.28750  0.66930  0.60860  Biso   1.000  C
  N35      1.0000 0.27826  0.67570  0.49980  Biso   1.000  N
  H123     1.0000 0.55230  0.29640  0.74240  Biso   1.000  H
  H124     1.0000 0.40920  0.85420  0.26400  Biso   1.000  H
  C249     1.0000 0.34160  0.83140  0.17350  Biso   1.000  C
  C250     1.0000 0.21120  0.71780  0.09680  Biso   1.000  C
  N36      1.0000 0.26920  0.62300  0.13760  Biso   1.000  N
  H125     1.0000 0.12530  0.60810  0.49930  Biso   1.000  H
  C251     1.0000 0.32940  0.71140  0.64340  Biso   1.000  C
  C252     1.0000 0.27563  0.64120  0.65540  Biso   1.000  C
  C253     1.0000 0.31980  0.71320  0.53530  Biso   1.000  C
  H126     1.0000 0.34120  0.86770  0.14690  Biso   1.000  H
  C254     1.0000 0.17290  0.67300  0.04910  Biso   1.000  C
  C255     1.0000 0.20250  0.79240  0.10640  Biso   1.000  C
  C256     1.0000 0.23110  0.58170  0.09110  Biso   1.000  C
  C257     1.0000 0.34630  0.73320  0.60660  Biso   1.000  C
  H127     1.0000 0.34580  0.72480  0.69090  Biso   1.000  H
  H128     1.0000 0.33170  0.72670  0.51080  Biso   1.000  H
  C258     1.0000 0.18300  0.60380  0.04560  Biso   1.000  C
  H129     1.0000 0.14060  0.68930  0.01970  Biso   1.000  H
  H130     1.0000 0.23740  0.53460  0.08940  Biso   1.000  H
  H131     1.0000 0.37450  0.76040  0.62880  Biso   1.000  H
  H132     1.0000 0.15790  0.57290  0.01320  Biso   1.000  H
  Gd25     1.0000 0.20624  0.90797  0.21776  Biso   1.000  Gd
  O109     1.0000 0.13101  0.88600  0.20610  Biso   1.000  O
  O110     1.0000 0.29728  0.90620  0.30500  Biso   1.000  O
  O111     1.0000 0.23707  0.96150  0.16150  Biso   1.000  O
  O112     1.0000 0.14082  0.93360  0.09445  Biso   1.000  O
  O113     1.0000 0.18453  0.02570  0.20500  Biso   1.000  O
  O114     1.0000 0.20833  0.80510  0.16390  Biso   1.000  O
  O115     1.0000 0.22420  0.92452  0.33620  Biso   1.000  O
  O116     1.0000 0.22782  0.81590  0.30690  Biso   1.000  O
  C259     1.0000 0.09230  0.92070  0.17710  Biso   1.000  C
  C260     1.0000 0.31620  0.96630  0.32420  Biso   1.000  C
  Gd26     1.0000 0.17568  0.95727  0.03520  Biso   1.000  Gd
  Gd27     1.0000 0.24218  0.08608  0.19509  Biso   1.000  Gd
  Gd28     1.0000 0.10515  0.04429  0.08737  Biso   1.000  Gd
  C261     1.0000 0.05320  0.89450  0.18150  Biso   1.000  C
  O117     1.0000 0.08105  0.97540  0.14040  Biso   1.000  O
  C262     1.0000 0.37060  0.97450  0.37770  Biso   1.000  C
  O118     1.0000 0.29071  0.02240  0.30020  Biso   1.000  O
  O119     1.0000 0.23842  0.02390  0.04870  Biso   1.000  O
  O120     1.0000 0.16816  0.06620  0.07807  Biso   1.000  O
  O121     1.0000 0.09424  0.92040  0.94220  Biso   1.000  O
  O122     1.0000 0.18936  0.83540  0.05830  Biso   1.000  O
  O123     1.0000 0.20243  0.17020  0.21520  Biso   1.000  O
  O124     1.0000 0.29328  0.07370  0.15680  Biso   1.000  O
  O125     1.0000 0.12217  0.14690  0.15340  Biso   1.000  O
  O126     1.0000 0.05630  0.99600  0.96550  Biso   1.000  O
  C263     1.0000 0.04570  0.82300  0.18170  Biso   1.000  C
  C264     1.0000 0.01940  0.94110  0.17650  Biso   1.000  C
  C265     1.0000 0.39010  0.03970  0.40700  Biso   1.000  C
  C266     1.0000 0.40140  0.92100  0.39590  Biso   1.000  C
  C267     1.0000 0.27660  0.05780  0.09290  Biso   1.000  C
  C268     1.0000 0.05680  0.95080  0.92630  Biso   1.000  C
  C269     1.0000 0.16110  0.17840  0.20140  Biso   1.000  C
  H133     1.0000 0.06770  0.79090  0.18600  Biso   1.000  H
  C270     1.0000 0.00510  0.79980  0.17520  Biso   1.000  C
  C271     1.0000 0.02820  0.01850  0.18880  Biso   1.000  C
  N37      1.0000 0.97883  0.91830  0.16720  Biso   1.000  N
  H134     1.0000 0.36910  0.07770  0.39380  Biso   1.000  H
  C272     1.0000 0.44050  0.04920  0.45570  Biso   1.000  C
  C273     1.0000 0.45270  0.93060  0.44420  Biso   1.000  C
  H135     1.0000 0.38870  0.87680  0.37650  Biso   1.000  H
  C274     1.0000 0.30640  0.07820  0.06940  Biso   1.000  C
  C275     1.0000 0.00850  0.93190  0.85590  Biso   1.000  C
  C276     1.0000 0.15880  0.23060  0.24640  Biso   1.000  C
  H136     1.0000 0.00010  0.75220  0.17750  Biso   1.000  H
  C277     1.0000 0.97190  0.85000  0.16520  Biso   1.000  C
  N38      1.0000 0.07262  0.03820  0.24850  Biso   1.000  N
  H137     1.0000 0.45290  0.09310  0.47650  Biso   1.000  H
  C278     1.0000 0.47280  0.99470  0.47430  Biso   1.000  C
  H138     1.0000 0.47340  0.89270  0.45570  Biso   1.000  H
  C279     1.0000 0.35440  0.05490  0.10840  Biso   1.000  C
  C280     1.0000 0.28700  0.11720  0.00680  Biso   1.000  C
  C281     1.0000 0.00010  0.86180  0.83560  Biso   1.000  C
  C282     1.0000 0.11800  0.27390  0.21570  Biso   1.000  C
  C283     1.0000 0.19730  0.23940  0.31900  Biso   1.000  C
  H139     1.0000 0.94320  0.83430  0.15670  Biso   1.000  H
  C284     1.0000 0.08030  0.10530  0.26580  Biso   1.000  C
  H140     1.0000 0.36900  0.03140  0.15160  Biso   1.000  H
  C285     1.0000 0.38080  0.06640  0.08320  Biso   1.000  C
  C286     1.0000 0.23810  0.15370  0.96410  Biso   1.000  C
  N39      1.0000 0.31245  0.12940  0.98220  Biso   1.000  N
  C287     1.0000 0.95460  0.84280  0.77310  Biso   1.000  C
  H141     1.0000 0.02450  0.82830  0.86340  Biso   1.000  H
  H142     1.0000 0.09090  0.26820  0.16780  Biso   1.000  H
  C288     1.0000 0.11780  0.32470  0.25590  Biso   1.000  C
  C289     1.0000 0.24040  0.19130  0.36160  Biso   1.000  C
  N40      1.0000 0.19730  0.28870  0.35900  Biso   1.000  N
  H143     1.0000 0.11120  0.11850  0.30670  Biso   1.000  H
  H144     1.0000 0.41300  0.05050  0.10840  Biso   1.000  H
  C290     1.0000 0.35770  0.10240  0.01920  Biso   1.000  C
  C291     1.0000 0.21250  0.16930  0.89140  Biso   1.000  C
  N41      1.0000 0.22174  0.17570  0.00020  Biso   1.000  N
  H145     1.0000 0.94770  0.79640  0.75760  Biso   1.000  H
  H146     1.0000 0.09080  0.35420  0.23600  Biso   1.000  H
  C292     1.0000 0.15840  0.33140  0.32650  Biso   1.000  C
  C293     1.0000 0.28880  0.21780  0.40320  Biso   1.000  C
  N42      1.0000 0.23080  0.12300  0.36240  Biso   1.000  N
  H147     1.0000 0.37470  0.10810  0.00070  Biso   1.000  H
  C294     1.0000 0.17060  0.21140  0.85660  Biso   1.000  C
  C295     1.0000 0.22437  0.14120  0.84460  Biso   1.000  C
  C296     1.0000 0.18020  0.21320  0.96470  Biso   1.000  C
  H148     1.0000 0.15880  0.36770  0.35310  Biso   1.000  H
  C297     1.0000 0.32710  0.17300  0.45090  Biso   1.000  C
  C298     1.0000 0.29750  0.29240  0.39360  Biso   1.000  C
  C299     1.0000 0.26890  0.08170  0.40890  Biso   1.000  C
  C300     1.0000 0.15370  0.23320  0.89340  Biso   1.000  C
  H149     1.0000 0.15420  0.22480  0.80910  Biso   1.000  H
  H150     1.0000 0.16830  0.22670  0.98920  Biso   1.000  H
  C301     1.0000 0.31700  0.10380  0.45440  Biso   1.000  C
  H151     1.0000 0.35940  0.18930  0.48030  Biso   1.000  H
  H152     1.0000 0.26260  0.03460  0.41060  Biso   1.000  H
  H153     1.0000 0.12550  0.26040  0.87120  Biso   1.000  H
  H154     1.0000 0.34210  0.07290  0.48680  Biso   1.000  H
  Gd29     1.0000 0.70624  0.40797  0.21776  Biso   1.000  Gd
  O127     1.0000 0.63101  0.38600  0.20610  Biso   1.000  O
  O128     1.0000 0.79728  0.40620  0.30500  Biso   1.000  O
  O129     1.0000 0.73707  0.46150  0.16150  Biso   1.000  O
  O130     1.0000 0.64082  0.43360  0.09445  Biso   1.000  O
  O131     1.0000 0.68453  0.52570  0.20500  Biso   1.000  O
  O132     1.0000 0.70833  0.30510  0.16390  Biso   1.000  O
  O133     1.0000 0.72420  0.42452  0.33620  Biso   1.000  O
  O134     1.0000 0.72782  0.31590  0.30690  Biso   1.000  O
  C302     1.0000 0.59230  0.42070  0.17710  Biso   1.000  C
  C303     1.0000 0.81620  0.46630  0.32420  Biso   1.000  C
  Gd30     1.0000 0.67568  0.45727  0.03520  Biso   1.000  Gd
  Gd31     1.0000 0.74218  0.58608  0.19509  Biso   1.000  Gd
  Gd32     1.0000 0.60515  0.54429  0.08737  Biso   1.000  Gd
  C304     1.0000 0.55320  0.39450  0.18150  Biso   1.000  C
  O135     1.0000 0.58105  0.47540  0.14040  Biso   1.000  O
  C305     1.0000 0.87060  0.47450  0.37770  Biso   1.000  C
  O136     1.0000 0.79071  0.52240  0.30020  Biso   1.000  O
  O137     1.0000 0.73842  0.52390  0.04870  Biso   1.000  O
  O138     1.0000 0.66816  0.56620  0.07807  Biso   1.000  O
  O139     1.0000 0.59424  0.42040  0.94220  Biso   1.000  O
  O140     1.0000 0.68936  0.33540  0.05830  Biso   1.000  O
  O141     1.0000 0.70243  0.67020  0.21520  Biso   1.000  O
  O142     1.0000 0.79328  0.57370  0.15680  Biso   1.000  O
  O143     1.0000 0.62217  0.64690  0.15340  Biso   1.000  O
  O144     1.0000 0.55630  0.49600  0.96550  Biso   1.000  O
  C306     1.0000 0.54570  0.32300  0.18170  Biso   1.000  C
  C307     1.0000 0.51940  0.44110  0.17650  Biso   1.000  C
  C308     1.0000 0.89010  0.53970  0.40700  Biso   1.000  C
  C309     1.0000 0.90140  0.42100  0.39590  Biso   1.000  C
  C310     1.0000 0.77660  0.55780  0.09290  Biso   1.000  C
  C311     1.0000 0.55680  0.45080  0.92630  Biso   1.000  C
  C312     1.0000 0.66110  0.67840  0.20140  Biso   1.000  C
  H155     1.0000 0.56770  0.29090  0.18600  Biso   1.000  H
  C313     1.0000 0.50510  0.29980  0.17520  Biso   1.000  C
  C314     1.0000 0.52820  0.51850  0.18880  Biso   1.000  C
  N43      1.0000 0.47883  0.41830  0.16720  Biso   1.000  N
  H156     1.0000 0.86910  0.57770  0.39380  Biso   1.000  H
  C315     1.0000 0.94050  0.54920  0.45570  Biso   1.000  C
  C316     1.0000 0.95270  0.43060  0.44420  Biso   1.000  C
  H157     1.0000 0.88870  0.37680  0.37650  Biso   1.000  H
  C317     1.0000 0.80640  0.57820  0.06940  Biso   1.000  C
  C318     1.0000 0.50850  0.43190  0.85590  Biso   1.000  C
  C319     1.0000 0.65880  0.73060  0.24640  Biso   1.000  C
  H158     1.0000 0.50010  0.25220  0.17750  Biso   1.000  H
  C320     1.0000 0.47190  0.35000  0.16520  Biso   1.000  C
  N44      1.0000 0.57262  0.53820  0.24850  Biso   1.000  N
  H159     1.0000 0.95290  0.59310  0.47650  Biso   1.000  H
  C321     1.0000 0.97280  0.49470  0.47430  Biso   1.000  C
  H160     1.0000 0.97340  0.39270  0.45570  Biso   1.000  H
  C322     1.0000 0.85440  0.55490  0.10840  Biso   1.000  C
  C323     1.0000 0.78700  0.61720  0.00680  Biso   1.000  C
  C324     1.0000 0.50010  0.36180  0.83560  Biso   1.000  C
  C325     1.0000 0.61800  0.77390  0.21570  Biso   1.000  C
  C326     1.0000 0.69730  0.73940  0.31900  Biso   1.000  C
  H161     1.0000 0.44320  0.33430  0.15670  Biso   1.000  H
  C327     1.0000 0.58030  0.60530  0.26580  Biso   1.000  C
  H162     1.0000 0.86900  0.53140  0.15160  Biso   1.000  H
  C328     1.0000 0.88080  0.56640  0.08320  Biso   1.000  C
  C329     1.0000 0.73810  0.65370  0.96410  Biso   1.000  C
  N45      1.0000 0.81245  0.62940  0.98220  Biso   1.000  N
  C330     1.0000 0.45460  0.34280  0.77310  Biso   1.000  C
  H163     1.0000 0.52450  0.32830  0.86340  Biso   1.000  H
  H164     1.0000 0.59090  0.76820  0.16780  Biso   1.000  H
  C331     1.0000 0.61780  0.82470  0.25590  Biso   1.000  C
  C332     1.0000 0.74040  0.69130  0.36160  Biso   1.000  C
  N46      1.0000 0.69730  0.78870  0.35900  Biso   1.000  N
  H165     1.0000 0.61120  0.61850  0.30670  Biso   1.000  H
  H166     1.0000 0.91300  0.55050  0.10840  Biso   1.000  H
  C333     1.0000 0.85770  0.60240  0.01920  Biso   1.000  C
  C334     1.0000 0.71250  0.66930  0.89140  Biso   1.000  C
  N47      1.0000 0.72174  0.67570  0.00020  Biso   1.000  N
  H167     1.0000 0.44770  0.29640  0.75760  Biso   1.000  H
  H168     1.0000 0.59080  0.85420  0.23600  Biso   1.000  H
  C335     1.0000 0.65840  0.83140  0.32650  Biso   1.000  C
  C336     1.0000 0.78880  0.71780  0.40320  Biso   1.000  C
  N48      1.0000 0.73080  0.62300  0.36240  Biso   1.000  N
  H169     1.0000 0.87470  0.60810  0.00070  Biso   1.000  H
  C337     1.0000 0.67060  0.71140  0.85660  Biso   1.000  C
  C338     1.0000 0.72437  0.64120  0.84460  Biso   1.000  C
  C339     1.0000 0.68020  0.71320  0.96470  Biso   1.000  C
  H170     1.0000 0.65880  0.86770  0.35310  Biso   1.000  H
  C340     1.0000 0.82710  0.67300  0.45090  Biso   1.000  C
  C341     1.0000 0.79750  0.79240  0.39360  Biso   1.000  C
  C342     1.0000 0.76890  0.58170  0.40890  Biso   1.000  C
  C343     1.0000 0.65370  0.73320  0.89340  Biso   1.000  C
  H171     1.0000 0.65420  0.72480  0.80910  Biso   1.000  H
  H172     1.0000 0.66830  0.72670  0.98920  Biso   1.000  H
  C344     1.0000 0.81700  0.60380  0.45440  Biso   1.000  C
  H173     1.0000 0.85940  0.68930  0.48030  Biso   1.000  H
  H174     1.0000 0.76260  0.53460  0.41060  Biso   1.000  H
  H175     1.0000 0.62550  0.76040  0.87120  Biso   1.000  H
  H176     1.0000 0.84210  0.57290  0.48680  Biso   1.000  H
