data_image0
_cell_length_a       34.5079
_cell_length_b       19.159
_cell_length_c       23.9838
_cell_angle_alpha    90
_cell_angle_beta     128.019
_cell_angle_gamma    90

_symmetry_space_group_name_H-M    "P 1"
_symmetry_int_tables_number       1

loop_
  _symmetry_equiv_pos_as_xyz
  'x, y, z'

loop_
  _atom_site_label
  _atom_site_occupancy
  _atom_site_fract_x
  _atom_site_fract_y
  _atom_site_fract_z
  _atom_site_thermal_displace_type
  _atom_site_B_iso_or_equiv
  _atom_site_type_symbol
  C1       1.0000 0.94350  0.45150  0.07130  Biso   1.000  C
  C2       1.0000 0.99080  0.43070  0.14020  Biso   1.000  C
  C3       1.0000 0.99890  0.36100  0.15910  Biso   1.000  C
  H1       1.0000 0.97450  0.32810  0.13070  Biso   1.000  H
  C4       1.0000 0.04300  0.34110  0.21970  Biso   1.000  C
  H2       1.0000 0.04920  0.29460  0.23360  Biso   1.000  H
  C5       1.0000 0.07810  0.39090  0.25980  Biso   1.000  C
  H3       1.0000 0.10870  0.37650  0.30000  Biso   1.000  H
  C6       1.0000 0.02750  0.47850  0.18540  Biso   1.000  C
  C7       1.0000 0.02010  0.55600  0.17510  Biso   1.000  C
  C8       1.0000 0.97450  0.64860  0.16630  Biso   1.000  C
  H4       1.0000 0.94690  0.66530  0.16030  Biso   1.000  H
  C9       1.0000 0.00670  0.69580  0.17400  Biso   1.000  C
  H5       1.0000 0.00190  0.74330  0.17520  Biso   1.000  H
  C10      1.0000 0.04660  0.67190  0.17980  Biso   1.000  C
  H6       1.0000 0.06870  0.70330  0.18390  Biso   1.000  H
  C11      1.0000 0.05350  0.60050  0.17960  Biso   1.000  C
  C12      1.0000 0.09210  0.57460  0.17440  Biso   1.000  C
  C13      1.0000 0.84600  0.68400  0.81260  Biso   1.000  C
  C14      1.0000 0.84940  0.73920  0.77220  Biso   1.000  C
  C15      1.0000 0.88970  0.78190  0.80610  Biso   1.000  C
  H7       1.0000 0.91640  0.77320  0.85300  Biso   1.000  H
  C16      1.0000 0.89050  0.83670  0.77150  Biso   1.000  C
  H8       1.0000 0.91720  0.86700  0.79450  Biso   1.000  H
  C17      1.0000 0.85200  0.84670  0.70320  Biso   1.000  C
  H9       1.0000 0.85270  0.88530  0.68030  Biso   1.000  H
  C18      1.0000 0.81140  0.75090  0.70150  Biso   1.000  C
  C19      1.0000 0.76850  0.70260  0.65610  Biso   1.000  C
  C20      1.0000 0.74230  0.59340  0.61460  Biso   1.000  C
  H10      1.0000 0.74950  0.54630  0.61620  Biso   1.000  H
  C21      1.0000 0.69370  0.61350  0.56540  Biso   1.000  C
  H11      1.0000 0.66930  0.58130  0.53490  Biso   1.000  H
  C22      1.0000 0.68320  0.68220  0.56370  Biso   1.000  C
  H12      1.0000 0.65110  0.69830  0.53160  Biso   1.000  H
  C23      1.0000 0.72110  0.72780  0.61040  Biso   1.000  C
  C24      1.0000 0.70920  0.80290  0.61480  Biso   1.000  C
  C25      1.0000 0.77720  0.36360  0.66120  Biso   1.000  C
  C26      1.0000 0.78920  0.33160  0.61660  Biso   1.000  C
  C27      1.0000 0.83040  0.29010  0.65150  Biso   1.000  C
  H13      1.0000 0.84640  0.27810  0.69860  Biso   1.000  H
  C28      1.0000 0.84790  0.26670  0.61680  Biso   1.000  C
  H14      1.0000 0.87590  0.23900  0.63980  Biso   1.000  H
  C29      1.0000 0.82320  0.28490  0.54840  Biso   1.000  C
  H15      1.0000 0.83600  0.27030  0.52560  Biso   1.000  H
  C30      1.0000 0.76420  0.34560  0.54430  Biso   1.000  C
  C31      1.0000 0.71590  0.38130  0.50070  Biso   1.000  C
  C32      1.0000 0.64400  0.39900  0.48500  Biso   1.000  C
  H16      1.0000 0.62520  0.39320  0.50040  Biso   1.000  H
  C33      1.0000 0.62490  0.43490  0.42470  Biso   1.000  C
  H17      1.0000 0.59330  0.45330  0.39920  Biso   1.000  H
  C34      1.0000 0.65150  0.44420  0.40110  Biso   1.000  C
  H18      1.0000 0.63790  0.46780  0.35890  Biso   1.000  H
  C35      1.0000 0.69860  0.41860  0.44000  Biso   1.000  C
  C36      1.0000 0.72910  0.43700  0.41740  Biso   1.000  C
  C37      1.0000 0.68440  0.48870  0.68050  Biso   1.000  C
  C38      1.0000 0.62980  0.49090  0.62510  Biso   1.000  C
  C39      1.0000 0.60210  0.43180  0.59860  Biso   1.000  C
  H19      1.0000 0.61740  0.38850  0.61420  Biso   1.000  H
  C40      1.0000 0.55170  0.43520  0.54930  Biso   1.000  C
  H20      1.0000 0.53380  0.39400  0.53120  Biso   1.000  H
  C41      1.0000 0.52760  0.49720  0.52620  Biso   1.000  C
  C42      1.0000 0.55610  0.55650  0.54840  Biso   1.000  C
  H21      1.0000 0.54110  0.59950  0.52950  Biso   1.000  H
  C43      1.0000 0.60710  0.55300  0.59890  Biso   1.000  C
  H22      1.0000 0.62570  0.59380  0.61450  Biso   1.000  H
  N1       1.0000 0.07106  0.45880  0.24490  Biso   1.000  N
  N2       1.0000 0.97997  0.57890  0.16680  Biso   1.000  N
  N3       1.0000 0.81240  0.80460  0.66570  Biso   1.000  N
  N4       1.0000 0.77940  0.63530  0.65950  Biso   1.000  N
  N5       1.0000 0.68910  0.37180  0.52300  Biso   1.000  N
  N6       1.0000 0.78200  0.32220  0.51120  Biso   1.000  N
  O1       1.0000 0.90538  0.42060  0.05380  Biso   1.000  O
  O2       1.0000 0.94508  0.49680  0.03451  Biso   1.000  O
  O3       1.0000 0.08081  0.51990  0.13780  Biso   1.000  O
  O4       1.0000 0.13147  0.60730  0.20390  Biso   1.000  O
  O5       1.0000 0.88367  0.64840  0.85540  Biso   1.000  O
  O6       1.0000 0.80546  0.67770  0.80170  Biso   1.000  O
  O7       1.0000 0.71628  0.81930  0.67040  Biso   1.000  O
  O8       1.0000 0.69344  0.84120  0.56250  Biso   1.000  O
  O9       1.0000 0.77213  0.32440  0.69860  Biso   1.000  O
  O10      1.0000 0.77833  0.42870  0.66766  Biso   1.000  O
  O11      1.0000 0.76616  0.47480  0.45940  Biso   1.000  O
  O12      1.0000 0.71504  0.41600  0.35800  Biso   1.000  O
  O13      1.0000 0.76472  0.47150  0.84216  Biso   1.000  O
  O14      1.0000 0.85901  0.43745  0.90551  Biso   1.000  O
  O15      1.0000 0.81595  0.53382  0.79909  Biso   1.000  O
  O16      1.0000 0.83585  0.56850  0.92858  Biso   1.000  O
  O17      1.0000 0.70494  0.54640  0.70840  Biso   1.000  O
  O18      1.0000 0.70654  0.43160  0.69710  Biso   1.000  O
  Tb1      1.0000 0.89633  0.54573  0.91612  Biso   1.000  Tb
  Tb2      1.0000 0.79376  0.41744  0.78387  Biso   1.000  Tb
  Tb3      1.0000 0.82531  0.45937  0.96577  Biso   1.000  Tb
  Tb4      1.0000 0.76244  0.59492  0.81633  Biso   1.000  Tb
  C44      1.0000 0.44350  0.95150  0.07130  Biso   1.000  C
  C45      1.0000 0.49080  0.93070  0.14020  Biso   1.000  C
  C46      1.0000 0.49890  0.86100  0.15910  Biso   1.000  C
  H23      1.0000 0.47450  0.82810  0.13070  Biso   1.000  H
  C47      1.0000 0.54300  0.84110  0.21970  Biso   1.000  C
  H24      1.0000 0.54920  0.79460  0.23360  Biso   1.000  H
  C48      1.0000 0.57810  0.89090  0.25980  Biso   1.000  C
  H25      1.0000 0.60870  0.87650  0.30000  Biso   1.000  H
  C49      1.0000 0.52750  0.97850  0.18540  Biso   1.000  C
  C50      1.0000 0.52010  0.05600  0.17510  Biso   1.000  C
  C51      1.0000 0.47450  0.14860  0.16630  Biso   1.000  C
  H26      1.0000 0.44690  0.16530  0.16030  Biso   1.000  H
  C52      1.0000 0.50670  0.19580  0.17400  Biso   1.000  C
  H27      1.0000 0.50190  0.24330  0.17520  Biso   1.000  H
  C53      1.0000 0.54660  0.17190  0.17980  Biso   1.000  C
  H28      1.0000 0.56870  0.20330  0.18390  Biso   1.000  H
  C54      1.0000 0.55350  0.10050  0.17960  Biso   1.000  C
  C55      1.0000 0.59210  0.07460  0.17440  Biso   1.000  C
  C56      1.0000 0.34600  0.18400  0.81260  Biso   1.000  C
  C57      1.0000 0.34940  0.23920  0.77220  Biso   1.000  C
  C58      1.0000 0.38970  0.28190  0.80610  Biso   1.000  C
  H29      1.0000 0.41640  0.27320  0.85300  Biso   1.000  H
  C59      1.0000 0.39050  0.33670  0.77150  Biso   1.000  C
  H30      1.0000 0.41720  0.36700  0.79450  Biso   1.000  H
  C60      1.0000 0.35200  0.34670  0.70320  Biso   1.000  C
  H31      1.0000 0.35270  0.38530  0.68030  Biso   1.000  H
  C61      1.0000 0.31140  0.25090  0.70150  Biso   1.000  C
  C62      1.0000 0.26850  0.20260  0.65610  Biso   1.000  C
  C63      1.0000 0.24230  0.09340  0.61460  Biso   1.000  C
  H32      1.0000 0.24950  0.04630  0.61620  Biso   1.000  H
  C64      1.0000 0.19370  0.11350  0.56540  Biso   1.000  C
  H33      1.0000 0.16930  0.08130  0.53490  Biso   1.000  H
  C65      1.0000 0.18320  0.18220  0.56370  Biso   1.000  C
  H34      1.0000 0.15110  0.19830  0.53160  Biso   1.000  H
  C66      1.0000 0.22110  0.22780  0.61040  Biso   1.000  C
  C67      1.0000 0.20920  0.30290  0.61480  Biso   1.000  C
  C68      1.0000 0.27720  0.86360  0.66120  Biso   1.000  C
  C69      1.0000 0.28920  0.83160  0.61660  Biso   1.000  C
  C70      1.0000 0.33040  0.79010  0.65150  Biso   1.000  C
  H35      1.0000 0.34640  0.77810  0.69860  Biso   1.000  H
  C71      1.0000 0.34790  0.76670  0.61680  Biso   1.000  C
  H36      1.0000 0.37590  0.73900  0.63980  Biso   1.000  H
  C72      1.0000 0.32320  0.78490  0.54840  Biso   1.000  C
  H37      1.0000 0.33600  0.77030  0.52560  Biso   1.000  H
  C73      1.0000 0.26420  0.84560  0.54430  Biso   1.000  C
  C74      1.0000 0.21590  0.88130  0.50070  Biso   1.000  C
  C75      1.0000 0.14400  0.89900  0.48500  Biso   1.000  C
  H38      1.0000 0.12520  0.89320  0.50040  Biso   1.000  H
  C76      1.0000 0.12490  0.93490  0.42470  Biso   1.000  C
  H39      1.0000 0.09330  0.95330  0.39920  Biso   1.000  H
  C77      1.0000 0.15150  0.94420  0.40110  Biso   1.000  C
  H40      1.0000 0.13790  0.96780  0.35890  Biso   1.000  H
  C78      1.0000 0.19860  0.91860  0.44000  Biso   1.000  C
  C79      1.0000 0.22910  0.93700  0.41740  Biso   1.000  C
  C80      1.0000 0.18440  0.98870  0.68050  Biso   1.000  C
  C81      1.0000 0.12980  0.99090  0.62510  Biso   1.000  C
  C82      1.0000 0.10210  0.93180  0.59860  Biso   1.000  C
  H41      1.0000 0.11740  0.88850  0.61420  Biso   1.000  H
  C83      1.0000 0.05170  0.93520  0.54930  Biso   1.000  C
  H42      1.0000 0.03380  0.89400  0.53120  Biso   1.000  H
  C84      1.0000 0.02760  0.99720  0.52620  Biso   1.000  C
  C85      1.0000 0.05610  0.05650  0.54840  Biso   1.000  C
  H43      1.0000 0.04110  0.09950  0.52950  Biso   1.000  H
  C86      1.0000 0.10710  0.05300  0.59890  Biso   1.000  C
  H44      1.0000 0.12570  0.09380  0.61450  Biso   1.000  H
  N7       1.0000 0.57106  0.95880  0.24490  Biso   1.000  N
  N8       1.0000 0.47997  0.07890  0.16680  Biso   1.000  N
  N9       1.0000 0.31240  0.30460  0.66570  Biso   1.000  N
  N10      1.0000 0.27940  0.13530  0.65950  Biso   1.000  N
  N11      1.0000 0.18910  0.87180  0.52300  Biso   1.000  N
  N12      1.0000 0.28200  0.82220  0.51120  Biso   1.000  N
  O19      1.0000 0.40538  0.92060  0.05380  Biso   1.000  O
  O20      1.0000 0.44508  0.99680  0.03451  Biso   1.000  O
  O21      1.0000 0.58081  0.01990  0.13780  Biso   1.000  O
  O22      1.0000 0.63147  0.10730  0.20390  Biso   1.000  O
  O23      1.0000 0.38367  0.14840  0.85540  Biso   1.000  O
  O24      1.0000 0.30546  0.17770  0.80170  Biso   1.000  O
  O25      1.0000 0.21628  0.31930  0.67040  Biso   1.000  O
  O26      1.0000 0.19344  0.34120  0.56250  Biso   1.000  O
  O27      1.0000 0.27213  0.82440  0.69860  Biso   1.000  O
  O28      1.0000 0.27833  0.92870  0.66766  Biso   1.000  O
  O29      1.0000 0.26616  0.97480  0.45940  Biso   1.000  O
  O30      1.0000 0.21504  0.91600  0.35800  Biso   1.000  O
  O31      1.0000 0.26472  0.97150  0.84216  Biso   1.000  O
  O32      1.0000 0.35901  0.93745  0.90551  Biso   1.000  O
  O33      1.0000 0.31595  0.03382  0.79909  Biso   1.000  O
  O34      1.0000 0.33585  0.06850  0.92858  Biso   1.000  O
  O35      1.0000 0.20494  0.04640  0.70840  Biso   1.000  O
  O36      1.0000 0.20654  0.93160  0.69710  Biso   1.000  O
  Tb5      1.0000 0.39633  0.04573  0.91612  Biso   1.000  Tb
  Tb6      1.0000 0.29376  0.91744  0.78387  Biso   1.000  Tb
  Tb7      1.0000 0.32531  0.95937  0.96577  Biso   1.000  Tb
  Tb8      1.0000 0.26244  0.09492  0.81633  Biso   1.000  Tb
  C87      1.0000 0.05650  0.45150  0.42870  Biso   1.000  C
  C88      1.0000 0.00920  0.43070  0.35980  Biso   1.000  C
  C89      1.0000 0.00110  0.36100  0.34090  Biso   1.000  C
  H45      1.0000 0.02550  0.32810  0.36930  Biso   1.000  H
  C90      1.0000 0.95700  0.34110  0.28030  Biso   1.000  C
  H46      1.0000 0.95080  0.29460  0.26640  Biso   1.000  H
  C91      1.0000 0.92190  0.39090  0.24020  Biso   1.000  C
  H47      1.0000 0.89130  0.37650  0.20000  Biso   1.000  H
  C92      1.0000 0.97250  0.47850  0.31460  Biso   1.000  C
  C93      1.0000 0.97990  0.55600  0.32490  Biso   1.000  C
  C94      1.0000 0.02550  0.64860  0.33370  Biso   1.000  C
  H48      1.0000 0.05310  0.66530  0.33970  Biso   1.000  H
  C95      1.0000 0.99330  0.69580  0.32600  Biso   1.000  C
  H49      1.0000 0.99810  0.74330  0.32480  Biso   1.000  H
  C96      1.0000 0.95340  0.67190  0.32020  Biso   1.000  C
  H50      1.0000 0.93130  0.70330  0.31610  Biso   1.000  H
  C97      1.0000 0.94650  0.60050  0.32040  Biso   1.000  C
  C98      1.0000 0.90790  0.57460  0.32560  Biso   1.000  C
  C99      1.0000 0.15400  0.68400  0.68740  Biso   1.000  C
  C100     1.0000 0.15060  0.73920  0.72780  Biso   1.000  C
  C101     1.0000 0.11030  0.78190  0.69390  Biso   1.000  C
  H51      1.0000 0.08360  0.77320  0.64700  Biso   1.000  H
  C102     1.0000 0.10950  0.83670  0.72850  Biso   1.000  C
  H52      1.0000 0.08280  0.86700  0.70550  Biso   1.000  H
  C103     1.0000 0.14800  0.84670  0.79680  Biso   1.000  C
  H53      1.0000 0.14730  0.88530  0.81970  Biso   1.000  H
  C104     1.0000 0.18860  0.75090  0.79850  Biso   1.000  C
  C105     1.0000 0.23150  0.70260  0.84390  Biso   1.000  C
  C106     1.0000 0.25770  0.59340  0.88540  Biso   1.000  C
  H54      1.0000 0.25050  0.54630  0.88380  Biso   1.000  H
  C107     1.0000 0.30630  0.61350  0.93460  Biso   1.000  C
  H55      1.0000 0.33070  0.58130  0.96510  Biso   1.000  H
  C108     1.0000 0.31680  0.68220  0.93630  Biso   1.000  C
  H56      1.0000 0.34890  0.69830  0.96840  Biso   1.000  H
  C109     1.0000 0.27890  0.72780  0.88960  Biso   1.000  C
  C110     1.0000 0.29080  0.80290  0.88520  Biso   1.000  C
  C111     1.0000 0.22280  0.36360  0.83880  Biso   1.000  C
  C112     1.0000 0.21080  0.33160  0.88340  Biso   1.000  C
  C113     1.0000 0.16960  0.29010  0.84850  Biso   1.000  C
  H57      1.0000 0.15360  0.27810  0.80140  Biso   1.000  H
  C114     1.0000 0.15210  0.26670  0.88320  Biso   1.000  C
  H58      1.0000 0.12410  0.23900  0.86020  Biso   1.000  H
  C115     1.0000 0.17680  0.28490  0.95160  Biso   1.000  C
  H59      1.0000 0.16400  0.27030  0.97440  Biso   1.000  H
  C116     1.0000 0.23580  0.34560  0.95570  Biso   1.000  C
  C117     1.0000 0.28410  0.38130  0.99930  Biso   1.000  C
  C118     1.0000 0.35600  0.39900  0.01500  Biso   1.000  C
  H60      1.0000 0.37480  0.39320  0.99960  Biso   1.000  H
  C119     1.0000 0.37510  0.43490  0.07530  Biso   1.000  C
  H61      1.0000 0.40670  0.45330  0.10080  Biso   1.000  H
  C120     1.0000 0.34850  0.44420  0.09890  Biso   1.000  C
  H62      1.0000 0.36210  0.46780  0.14110  Biso   1.000  H
  C121     1.0000 0.30140  0.41860  0.06000  Biso   1.000  C
  C122     1.0000 0.27090  0.43700  0.08260  Biso   1.000  C
  C123     1.0000 0.31560  0.48870  0.81950  Biso   1.000  C
  C124     1.0000 0.37020  0.49090  0.87490  Biso   1.000  C
  C125     1.0000 0.39790  0.43180  0.90140  Biso   1.000  C
  H63      1.0000 0.38260  0.38850  0.88580  Biso   1.000  H
  C126     1.0000 0.44830  0.43520  0.95070  Biso   1.000  C
  H64      1.0000 0.46620  0.39400  0.96880  Biso   1.000  H
  C127     1.0000 0.47240  0.49720  0.97380  Biso   1.000  C
  C128     1.0000 0.44390  0.55650  0.95160  Biso   1.000  C
  H65      1.0000 0.45890  0.59950  0.97050  Biso   1.000  H
  C129     1.0000 0.39290  0.55300  0.90110  Biso   1.000  C
  H66      1.0000 0.37430  0.59380  0.88550  Biso   1.000  H
  N13      1.0000 0.92894  0.45880  0.25510  Biso   1.000  N
  N14      1.0000 0.02003  0.57890  0.33320  Biso   1.000  N
  N15      1.0000 0.18760  0.80460  0.83430  Biso   1.000  N
  N16      1.0000 0.22060  0.63530  0.84050  Biso   1.000  N
  N17      1.0000 0.31090  0.37180  0.97700  Biso   1.000  N
  N18      1.0000 0.21800  0.32220  0.98880  Biso   1.000  N
  O37      1.0000 0.09462  0.42060  0.44620  Biso   1.000  O
  O38      1.0000 0.05492  0.49680  0.46549  Biso   1.000  O
  O39      1.0000 0.91919  0.51990  0.36220  Biso   1.000  O
  O40      1.0000 0.86853  0.60730  0.29610  Biso   1.000  O
  O41      1.0000 0.11633  0.64840  0.64460  Biso   1.000  O
  O42      1.0000 0.19454  0.67770  0.69830  Biso   1.000  O
  O43      1.0000 0.28372  0.81930  0.82960  Biso   1.000  O
  O44      1.0000 0.30656  0.84120  0.93750  Biso   1.000  O
  O45      1.0000 0.22787  0.32440  0.80140  Biso   1.000  O
  O46      1.0000 0.22167  0.42870  0.83234  Biso   1.000  O
  O47      1.0000 0.23384  0.47480  0.04060  Biso   1.000  O
  O48      1.0000 0.28496  0.41600  0.14200  Biso   1.000  O
  O49      1.0000 0.23528  0.47150  0.65784  Biso   1.000  O
  O50      1.0000 0.14099  0.43745  0.59449  Biso   1.000  O
  O51      1.0000 0.18405  0.53382  0.70091  Biso   1.000  O
  O52      1.0000 0.16415  0.56850  0.57142  Biso   1.000  O
  O53      1.0000 0.29506  0.54640  0.79160  Biso   1.000  O
  O54      1.0000 0.29346  0.43160  0.80290  Biso   1.000  O
  Tb9      1.0000 0.10367  0.54573  0.58388  Biso   1.000  Tb
  Tb10     1.0000 0.20624  0.41744  0.71613  Biso   1.000  Tb
  Tb11     1.0000 0.17469  0.45937  0.53423  Biso   1.000  Tb
  Tb12     1.0000 0.23756  0.59492  0.68367  Biso   1.000  Tb
  C130     1.0000 0.55650  0.95150  0.42870  Biso   1.000  C
  C131     1.0000 0.50920  0.93070  0.35980  Biso   1.000  C
  C132     1.0000 0.50110  0.86100  0.34090  Biso   1.000  C
  H67      1.0000 0.52550  0.82810  0.36930  Biso   1.000  H
  C133     1.0000 0.45700  0.84110  0.28030  Biso   1.000  C
  H68      1.0000 0.45080  0.79460  0.26640  Biso   1.000  H
  C134     1.0000 0.42190  0.89090  0.24020  Biso   1.000  C
  H69      1.0000 0.39130  0.87650  0.20000  Biso   1.000  H
  C135     1.0000 0.47250  0.97850  0.31460  Biso   1.000  C
  C136     1.0000 0.47990  0.05600  0.32490  Biso   1.000  C
  C137     1.0000 0.52550  0.14860  0.33370  Biso   1.000  C
  H70      1.0000 0.55310  0.16530  0.33970  Biso   1.000  H
  C138     1.0000 0.49330  0.19580  0.32600  Biso   1.000  C
  H71      1.0000 0.49810  0.24330  0.32480  Biso   1.000  H
  C139     1.0000 0.45340  0.17190  0.32020  Biso   1.000  C
  H72      1.0000 0.43130  0.20330  0.31610  Biso   1.000  H
  C140     1.0000 0.44650  0.10050  0.32040  Biso   1.000  C
  C141     1.0000 0.40790  0.07460  0.32560  Biso   1.000  C
  C142     1.0000 0.65400  0.18400  0.68740  Biso   1.000  C
  C143     1.0000 0.65060  0.23920  0.72780  Biso   1.000  C
  C144     1.0000 0.61030  0.28190  0.69390  Biso   1.000  C
  H73      1.0000 0.58360  0.27320  0.64700  Biso   1.000  H
  C145     1.0000 0.60950  0.33670  0.72850  Biso   1.000  C
  H74      1.0000 0.58280  0.36700  0.70550  Biso   1.000  H
  C146     1.0000 0.64800  0.34670  0.79680  Biso   1.000  C
  H75      1.0000 0.64730  0.38530  0.81970  Biso   1.000  H
  C147     1.0000 0.68860  0.25090  0.79850  Biso   1.000  C
  C148     1.0000 0.73150  0.20260  0.84390  Biso   1.000  C
  C149     1.0000 0.75770  0.09340  0.88540  Biso   1.000  C
  H76      1.0000 0.75050  0.04630  0.88380  Biso   1.000  H
  C150     1.0000 0.80630  0.11350  0.93460  Biso   1.000  C
  H77      1.0000 0.83070  0.08130  0.96510  Biso   1.000  H
  C151     1.0000 0.81680  0.18220  0.93630  Biso   1.000  C
  H78      1.0000 0.84890  0.19830  0.96840  Biso   1.000  H
  C152     1.0000 0.77890  0.22780  0.88960  Biso   1.000  C
  C153     1.0000 0.79080  0.30290  0.88520  Biso   1.000  C
  C154     1.0000 0.72280  0.86360  0.83880  Biso   1.000  C
  C155     1.0000 0.71080  0.83160  0.88340  Biso   1.000  C
  C156     1.0000 0.66960  0.79010  0.84850  Biso   1.000  C
  H79      1.0000 0.65360  0.77810  0.80140  Biso   1.000  H
  C157     1.0000 0.65210  0.76670  0.88320  Biso   1.000  C
  H80      1.0000 0.62410  0.73900  0.86020  Biso   1.000  H
  C158     1.0000 0.67680  0.78490  0.95160  Biso   1.000  C
  H81      1.0000 0.66400  0.77030  0.97440  Biso   1.000  H
  C159     1.0000 0.73580  0.84560  0.95570  Biso   1.000  C
  C160     1.0000 0.78410  0.88130  0.99930  Biso   1.000  C
  C161     1.0000 0.85600  0.89900  0.01500  Biso   1.000  C
  H82      1.0000 0.87480  0.89320  0.99960  Biso   1.000  H
  C162     1.0000 0.87510  0.93490  0.07530  Biso   1.000  C
  H83      1.0000 0.90670  0.95330  0.10080  Biso   1.000  H
  C163     1.0000 0.84850  0.94420  0.09890  Biso   1.000  C
  H84      1.0000 0.86210  0.96780  0.14110  Biso   1.000  H
  C164     1.0000 0.80140  0.91860  0.06000  Biso   1.000  C
  C165     1.0000 0.77090  0.93700  0.08260  Biso   1.000  C
  C166     1.0000 0.81560  0.98870  0.81950  Biso   1.000  C
  C167     1.0000 0.87020  0.99090  0.87490  Biso   1.000  C
  C168     1.0000 0.89790  0.93180  0.90140  Biso   1.000  C
  H85      1.0000 0.88260  0.88850  0.88580  Biso   1.000  H
  C169     1.0000 0.94830  0.93520  0.95070  Biso   1.000  C
  H86      1.0000 0.96620  0.89400  0.96880  Biso   1.000  H
  C170     1.0000 0.97240  0.99720  0.97380  Biso   1.000  C
  C171     1.0000 0.94390  0.05650  0.95160  Biso   1.000  C
  H87      1.0000 0.95890  0.09950  0.97050  Biso   1.000  H
  C172     1.0000 0.89290  0.05300  0.90110  Biso   1.000  C
  H88      1.0000 0.87430  0.09380  0.88550  Biso   1.000  H
  N19      1.0000 0.42894  0.95880  0.25510  Biso   1.000  N
  N20      1.0000 0.52003  0.07890  0.33320  Biso   1.000  N
  N21      1.0000 0.68760  0.30460  0.83430  Biso   1.000  N
  N22      1.0000 0.72060  0.13530  0.84050  Biso   1.000  N
  N23      1.0000 0.81090  0.87180  0.97700  Biso   1.000  N
  N24      1.0000 0.71800  0.82220  0.98880  Biso   1.000  N
  O55      1.0000 0.59462  0.92060  0.44620  Biso   1.000  O
  O56      1.0000 0.55492  0.99680  0.46549  Biso   1.000  O
  O57      1.0000 0.41919  0.01990  0.36220  Biso   1.000  O
  O58      1.0000 0.36853  0.10730  0.29610  Biso   1.000  O
  O59      1.0000 0.61633  0.14840  0.64460  Biso   1.000  O
  O60      1.0000 0.69454  0.17770  0.69830  Biso   1.000  O
  O61      1.0000 0.78372  0.31930  0.82960  Biso   1.000  O
  O62      1.0000 0.80656  0.34120  0.93750  Biso   1.000  O
  O63      1.0000 0.72787  0.82440  0.80140  Biso   1.000  O
  O64      1.0000 0.72167  0.92870  0.83234  Biso   1.000  O
  O65      1.0000 0.73384  0.97480  0.04060  Biso   1.000  O
  O66      1.0000 0.78496  0.91600  0.14200  Biso   1.000  O
  O67      1.0000 0.73528  0.97150  0.65784  Biso   1.000  O
  O68      1.0000 0.64099  0.93745  0.59449  Biso   1.000  O
  O69      1.0000 0.68405  0.03382  0.70091  Biso   1.000  O
  O70      1.0000 0.66415  0.06850  0.57142  Biso   1.000  O
  O71      1.0000 0.79506  0.04640  0.79160  Biso   1.000  O
  O72      1.0000 0.79346  0.93160  0.80290  Biso   1.000  O
  Tb13     1.0000 0.60367  0.04573  0.58388  Biso   1.000  Tb
  Tb14     1.0000 0.70624  0.91744  0.71613  Biso   1.000  Tb
  Tb15     1.0000 0.67469  0.95937  0.53424  Biso   1.000  Tb
  Tb16     1.0000 0.73756  0.09492  0.68367  Biso   1.000  Tb
  C173     1.0000 0.05650  0.54850  0.92870  Biso   1.000  C
  C174     1.0000 0.00920  0.56930  0.85980  Biso   1.000  C
  C175     1.0000 0.00110  0.63900  0.84090  Biso   1.000  C
  H89      1.0000 0.02550  0.67190  0.86930  Biso   1.000  H
  C176     1.0000 0.95700  0.65890  0.78030  Biso   1.000  C
  H90      1.0000 0.95080  0.70540  0.76640  Biso   1.000  H
  C177     1.0000 0.92190  0.60910  0.74020  Biso   1.000  C
  H91      1.0000 0.89130  0.62350  0.70000  Biso   1.000  H
  C178     1.0000 0.97250  0.52150  0.81460  Biso   1.000  C
  C179     1.0000 0.97990  0.44400  0.82490  Biso   1.000  C
  C180     1.0000 0.02550  0.35140  0.83370  Biso   1.000  C
  H92      1.0000 0.05310  0.33470  0.83970  Biso   1.000  H
  C181     1.0000 0.99330  0.30420  0.82600  Biso   1.000  C
  H93      1.0000 0.99810  0.25670  0.82480  Biso   1.000  H
  C182     1.0000 0.95340  0.32810  0.82020  Biso   1.000  C
  H94      1.0000 0.93130  0.29670  0.81610  Biso   1.000  H
  C183     1.0000 0.94650  0.39950  0.82040  Biso   1.000  C
  C184     1.0000 0.90790  0.42540  0.82560  Biso   1.000  C
  C185     1.0000 0.15400  0.31600  0.18740  Biso   1.000  C
  C186     1.0000 0.15060  0.26080  0.22780  Biso   1.000  C
  C187     1.0000 0.11030  0.21810  0.19390  Biso   1.000  C
  H95      1.0000 0.08360  0.22680  0.14700  Biso   1.000  H
  C188     1.0000 0.10950  0.16330  0.22850  Biso   1.000  C
  H96      1.0000 0.08280  0.13300  0.20550  Biso   1.000  H
  C189     1.0000 0.14800  0.15330  0.29680  Biso   1.000  C
  H97      1.0000 0.14730  0.11470  0.31970  Biso   1.000  H
  C190     1.0000 0.18860  0.24910  0.29850  Biso   1.000  C
  C191     1.0000 0.23150  0.29740  0.34390  Biso   1.000  C
  C192     1.0000 0.25770  0.40660  0.38540  Biso   1.000  C
  H98      1.0000 0.25050  0.45370  0.38380  Biso   1.000  H
  C193     1.0000 0.30630  0.38650  0.43460  Biso   1.000  C
  H99      1.0000 0.33070  0.41870  0.46510  Biso   1.000  H
  C194     1.0000 0.31680  0.31780  0.43630  Biso   1.000  C
  H100     1.0000 0.34890  0.30170  0.46840  Biso   1.000  H
  C195     1.0000 0.27890  0.27220  0.38960  Biso   1.000  C
  C196     1.0000 0.29080  0.19710  0.38520  Biso   1.000  C
  C197     1.0000 0.22280  0.63640  0.33880  Biso   1.000  C
  C198     1.0000 0.21080  0.66840  0.38340  Biso   1.000  C
  C199     1.0000 0.16960  0.70990  0.34850  Biso   1.000  C
  H101     1.0000 0.15360  0.72190  0.30140  Biso   1.000  H
  C200     1.0000 0.15210  0.73330  0.38320  Biso   1.000  C
  H102     1.0000 0.12410  0.76100  0.36020  Biso   1.000  H
  C201     1.0000 0.17680  0.71510  0.45160  Biso   1.000  C
  H103     1.0000 0.16400  0.72970  0.47440  Biso   1.000  H
  C202     1.0000 0.23580  0.65440  0.45570  Biso   1.000  C
  C203     1.0000 0.28410  0.61870  0.49930  Biso   1.000  C
  C204     1.0000 0.35600  0.60100  0.51500  Biso   1.000  C
  H104     1.0000 0.37480  0.60680  0.49960  Biso   1.000  H
  C205     1.0000 0.37510  0.56510  0.57530  Biso   1.000  C
  H105     1.0000 0.40670  0.54670  0.60080  Biso   1.000  H
  C206     1.0000 0.34850  0.55580  0.59890  Biso   1.000  C
  H106     1.0000 0.36210  0.53220  0.64110  Biso   1.000  H
  C207     1.0000 0.30140  0.58140  0.56000  Biso   1.000  C
  C208     1.0000 0.27090  0.56300  0.58260  Biso   1.000  C
  C209     1.0000 0.31560  0.51130  0.31950  Biso   1.000  C
  C210     1.0000 0.37020  0.50910  0.37490  Biso   1.000  C
  C211     1.0000 0.39790  0.56820  0.40140  Biso   1.000  C
  H107     1.0000 0.38260  0.61150  0.38580  Biso   1.000  H
  C212     1.0000 0.44830  0.56480  0.45070  Biso   1.000  C
  H108     1.0000 0.46620  0.60600  0.46880  Biso   1.000  H
  C213     1.0000 0.47240  0.50280  0.47380  Biso   1.000  C
  C214     1.0000 0.44390  0.44350  0.45160  Biso   1.000  C
  H109     1.0000 0.45890  0.40050  0.47050  Biso   1.000  H
  C215     1.0000 0.39290  0.44700  0.40110  Biso   1.000  C
  H110     1.0000 0.37430  0.40620  0.38550  Biso   1.000  H
  N25      1.0000 0.92894  0.54120  0.75510  Biso   1.000  N
  N26      1.0000 0.02003  0.42110  0.83320  Biso   1.000  N
  N27      1.0000 0.18760  0.19540  0.33430  Biso   1.000  N
  N28      1.0000 0.22060  0.36470  0.34050  Biso   1.000  N
  N29      1.0000 0.31090  0.62820  0.47700  Biso   1.000  N
  N30      1.0000 0.21800  0.67780  0.48880  Biso   1.000  N
  O73      1.0000 0.09462  0.57940  0.94620  Biso   1.000  O
  O74      1.0000 0.05492  0.50320  0.96549  Biso   1.000  O
  O75      1.0000 0.91919  0.48010  0.86220  Biso   1.000  O
  O76      1.0000 0.86853  0.39270  0.79610  Biso   1.000  O
  O77      1.0000 0.11633  0.35160  0.14460  Biso   1.000  O
  O78      1.0000 0.19454  0.32230  0.19830  Biso   1.000  O
  O79      1.0000 0.28372  0.18070  0.32960  Biso   1.000  O
  O80      1.0000 0.30656  0.15880  0.43750  Biso   1.000  O
  O81      1.0000 0.22787  0.67560  0.30140  Biso   1.000  O
  O82      1.0000 0.22167  0.57130  0.33234  Biso   1.000  O
  O83      1.0000 0.23384  0.52520  0.54060  Biso   1.000  O
  O84      1.0000 0.28496  0.58400  0.64200  Biso   1.000  O
  O85      1.0000 0.23528  0.52850  0.15784  Biso   1.000  O
  O86      1.0000 0.14099  0.56255  0.09449  Biso   1.000  O
  O87      1.0000 0.18405  0.46618  0.20091  Biso   1.000  O
  O88      1.0000 0.16415  0.43150  0.07142  Biso   1.000  O
  O89      1.0000 0.29506  0.45360  0.29160  Biso   1.000  O
  O90      1.0000 0.29346  0.56840  0.30290  Biso   1.000  O
  Tb17     1.0000 0.10367  0.45427  0.08388  Biso   1.000  Tb
  Tb18     1.0000 0.20624  0.58256  0.21613  Biso   1.000  Tb
  Tb19     1.0000 0.17469  0.54063  0.03423  Biso   1.000  Tb
  Tb20     1.0000 0.23756  0.40508  0.18367  Biso   1.000  Tb
  C216     1.0000 0.55650  0.04850  0.92870  Biso   1.000  C
  C217     1.0000 0.50920  0.06930  0.85980  Biso   1.000  C
  C218     1.0000 0.50110  0.13900  0.84090  Biso   1.000  C
  H111     1.0000 0.52550  0.17190  0.86930  Biso   1.000  H
  C219     1.0000 0.45700  0.15890  0.78030  Biso   1.000  C
  H112     1.0000 0.45080  0.20540  0.76640  Biso   1.000  H
  C220     1.0000 0.42190  0.10910  0.74020  Biso   1.000  C
  H113     1.0000 0.39130  0.12350  0.70000  Biso   1.000  H
  C221     1.0000 0.47250  0.02150  0.81460  Biso   1.000  C
  C222     1.0000 0.47990  0.94400  0.82490  Biso   1.000  C
  C223     1.0000 0.52550  0.85140  0.83370  Biso   1.000  C
  H114     1.0000 0.55310  0.83470  0.83970  Biso   1.000  H
  C224     1.0000 0.49330  0.80420  0.82600  Biso   1.000  C
  H115     1.0000 0.49810  0.75670  0.82480  Biso   1.000  H
  C225     1.0000 0.45340  0.82810  0.82020  Biso   1.000  C
  H116     1.0000 0.43130  0.79670  0.81610  Biso   1.000  H
  C226     1.0000 0.44650  0.89950  0.82040  Biso   1.000  C
  C227     1.0000 0.40790  0.92540  0.82560  Biso   1.000  C
  C228     1.0000 0.65400  0.81600  0.18740  Biso   1.000  C
  C229     1.0000 0.65060  0.76080  0.22780  Biso   1.000  C
  C230     1.0000 0.61030  0.71810  0.19390  Biso   1.000  C
  H117     1.0000 0.58360  0.72680  0.14700  Biso   1.000  H
  C231     1.0000 0.60950  0.66330  0.22850  Biso   1.000  C
  H118     1.0000 0.58280  0.63300  0.20550  Biso   1.000  H
  C232     1.0000 0.64800  0.65330  0.29680  Biso   1.000  C
  H119     1.0000 0.64730  0.61470  0.31970  Biso   1.000  H
  C233     1.0000 0.68860  0.74910  0.29850  Biso   1.000  C
  C234     1.0000 0.73150  0.79740  0.34390  Biso   1.000  C
  C235     1.0000 0.75770  0.90660  0.38540  Biso   1.000  C
  H120     1.0000 0.75050  0.95370  0.38380  Biso   1.000  H
  C236     1.0000 0.80630  0.88650  0.43460  Biso   1.000  C
  H121     1.0000 0.83070  0.91870  0.46510  Biso   1.000  H
  C237     1.0000 0.81680  0.81780  0.43630  Biso   1.000  C
  H122     1.0000 0.84890  0.80170  0.46840  Biso   1.000  H
  C238     1.0000 0.77890  0.77220  0.38960  Biso   1.000  C
  C239     1.0000 0.79080  0.69710  0.38520  Biso   1.000  C
  C240     1.0000 0.72280  0.13640  0.33880  Biso   1.000  C
  C241     1.0000 0.71080  0.16840  0.38340  Biso   1.000  C
  C242     1.0000 0.66960  0.20990  0.34850  Biso   1.000  C
  H123     1.0000 0.65360  0.22190  0.30140  Biso   1.000  H
  C243     1.0000 0.65210  0.23330  0.38320  Biso   1.000  C
  H124     1.0000 0.62410  0.26100  0.36020  Biso   1.000  H
  C244     1.0000 0.67680  0.21510  0.45160  Biso   1.000  C
  H125     1.0000 0.66400  0.22970  0.47440  Biso   1.000  H
  C245     1.0000 0.73580  0.15440  0.45570  Biso   1.000  C
  C246     1.0000 0.78410  0.11870  0.49930  Biso   1.000  C
  C247     1.0000 0.85600  0.10100  0.51500  Biso   1.000  C
  H126     1.0000 0.87480  0.10680  0.49960  Biso   1.000  H
  C248     1.0000 0.87510  0.06510  0.57530  Biso   1.000  C
  H127     1.0000 0.90670  0.04670  0.60080  Biso   1.000  H
  C249     1.0000 0.84850  0.05580  0.59890  Biso   1.000  C
  H128     1.0000 0.86210  0.03220  0.64110  Biso   1.000  H
  C250     1.0000 0.80140  0.08140  0.56000  Biso   1.000  C
  C251     1.0000 0.77090  0.06300  0.58260  Biso   1.000  C
  C252     1.0000 0.81560  0.01130  0.31950  Biso   1.000  C
  C253     1.0000 0.87020  0.00910  0.37490  Biso   1.000  C
  C254     1.0000 0.89790  0.06820  0.40140  Biso   1.000  C
  H129     1.0000 0.88260  0.11150  0.38580  Biso   1.000  H
  C255     1.0000 0.94830  0.06480  0.45070  Biso   1.000  C
  H130     1.0000 0.96620  0.10600  0.46880  Biso   1.000  H
  C256     1.0000 0.97240  0.00280  0.47380  Biso   1.000  C
  C257     1.0000 0.94390  0.94350  0.45160  Biso   1.000  C
  H131     1.0000 0.95890  0.90050  0.47050  Biso   1.000  H
  C258     1.0000 0.89290  0.94700  0.40110  Biso   1.000  C
  H132     1.0000 0.87430  0.90620  0.38550  Biso   1.000  H
  N31      1.0000 0.42894  0.04120  0.75510  Biso   1.000  N
  N32      1.0000 0.52003  0.92110  0.83320  Biso   1.000  N
  N33      1.0000 0.68760  0.69540  0.33430  Biso   1.000  N
  N34      1.0000 0.72060  0.86470  0.34050  Biso   1.000  N
  N35      1.0000 0.81090  0.12820  0.47700  Biso   1.000  N
  N36      1.0000 0.71800  0.17780  0.48880  Biso   1.000  N
  O91      1.0000 0.59462  0.07940  0.94620  Biso   1.000  O
  O92      1.0000 0.55492  0.00320  0.96549  Biso   1.000  O
  O93      1.0000 0.41919  0.98010  0.86220  Biso   1.000  O
  O94      1.0000 0.36853  0.89270  0.79610  Biso   1.000  O
  O95      1.0000 0.61633  0.85160  0.14460  Biso   1.000  O
  O96      1.0000 0.69454  0.82230  0.19830  Biso   1.000  O
  O97      1.0000 0.78372  0.68070  0.32960  Biso   1.000  O
  O98      1.0000 0.80656  0.65880  0.43750  Biso   1.000  O
  O99      1.0000 0.72787  0.17560  0.30140  Biso   1.000  O
  O100     1.0000 0.72167  0.07130  0.33234  Biso   1.000  O
  O101     1.0000 0.73384  0.02520  0.54060  Biso   1.000  O
  O102     1.0000 0.78496  0.08400  0.64200  Biso   1.000  O
  O103     1.0000 0.73528  0.02850  0.15784  Biso   1.000  O
  O104     1.0000 0.64099  0.06255  0.09449  Biso   1.000  O
  O105     1.0000 0.68405  0.96618  0.20091  Biso   1.000  O
  O106     1.0000 0.66415  0.93150  0.07142  Biso   1.000  O
  O107     1.0000 0.79506  0.95360  0.29160  Biso   1.000  O
  O108     1.0000 0.79346  0.06840  0.30290  Biso   1.000  O
  Tb21     1.0000 0.60367  0.95427  0.08388  Biso   1.000  Tb
  Tb22     1.0000 0.70624  0.08256  0.21613  Biso   1.000  Tb
  Tb23     1.0000 0.67469  0.04063  0.03423  Biso   1.000  Tb
  Tb24     1.0000 0.73756  0.90508  0.18367  Biso   1.000  Tb
  C259     1.0000 0.94350  0.54850  0.57130  Biso   1.000  C
  C260     1.0000 0.99080  0.56930  0.64020  Biso   1.000  C
  C261     1.0000 0.99890  0.63900  0.65910  Biso   1.000  C
  H133     1.0000 0.97450  0.67190  0.63070  Biso   1.000  H
  C262     1.0000 0.04300  0.65890  0.71970  Biso   1.000  C
  H134     1.0000 0.04920  0.70540  0.73360  Biso   1.000  H
  C263     1.0000 0.07810  0.60910  0.75980  Biso   1.000  C
  H135     1.0000 0.10870  0.62350  0.80000  Biso   1.000  H
  C264     1.0000 0.02750  0.52150  0.68540  Biso   1.000  C
  C265     1.0000 0.02010  0.44400  0.67510  Biso   1.000  C
  C266     1.0000 0.97450  0.35140  0.66630  Biso   1.000  C
  H136     1.0000 0.94690  0.33470  0.66030  Biso   1.000  H
  C267     1.0000 0.00670  0.30420  0.67400  Biso   1.000  C
  H137     1.0000 0.00190  0.25670  0.67520  Biso   1.000  H
  C268     1.0000 0.04660  0.32810  0.67980  Biso   1.000  C
  H138     1.0000 0.06870  0.29670  0.68390  Biso   1.000  H
  C269     1.0000 0.05350  0.39950  0.67960  Biso   1.000  C
  C270     1.0000 0.09210  0.42540  0.67440  Biso   1.000  C
  C271     1.0000 0.84600  0.31600  0.31260  Biso   1.000  C
  C272     1.0000 0.84940  0.26080  0.27220  Biso   1.000  C
  C273     1.0000 0.88970  0.21810  0.30610  Biso   1.000  C
  H139     1.0000 0.91640  0.22680  0.35300  Biso   1.000  H
  C274     1.0000 0.89050  0.16330  0.27150  Biso   1.000  C
  H140     1.0000 0.91720  0.13300  0.29450  Biso   1.000  H
  C275     1.0000 0.85200  0.15330  0.20320  Biso   1.000  C
  H141     1.0000 0.85270  0.11470  0.18030  Biso   1.000  H
  C276     1.0000 0.81140  0.24910  0.20150  Biso   1.000  C
  C277     1.0000 0.76850  0.29740  0.15610  Biso   1.000  C
  C278     1.0000 0.74230  0.40660  0.11460  Biso   1.000  C
  H142     1.0000 0.74950  0.45370  0.11620  Biso   1.000  H
  C279     1.0000 0.69370  0.38650  0.06540  Biso   1.000  C
  H143     1.0000 0.66930  0.41870  0.03490  Biso   1.000  H
  C280     1.0000 0.68320  0.31780  0.06370  Biso   1.000  C
  H144     1.0000 0.65110  0.30170  0.03160  Biso   1.000  H
  C281     1.0000 0.72110  0.27220  0.11040  Biso   1.000  C
  C282     1.0000 0.70920  0.19710  0.11480  Biso   1.000  C
  C283     1.0000 0.77720  0.63640  0.16120  Biso   1.000  C
  C284     1.0000 0.78920  0.66840  0.11660  Biso   1.000  C
  C285     1.0000 0.83040  0.70990  0.15150  Biso   1.000  C
  H145     1.0000 0.84640  0.72190  0.19860  Biso   1.000  H
  C286     1.0000 0.84790  0.73330  0.11680  Biso   1.000  C
  H146     1.0000 0.87590  0.76100  0.13980  Biso   1.000  H
  C287     1.0000 0.82320  0.71510  0.04840  Biso   1.000  C
  H147     1.0000 0.83600  0.72970  0.02560  Biso   1.000  H
  C288     1.0000 0.76420  0.65440  0.04430  Biso   1.000  C
  C289     1.0000 0.71590  0.61870  0.00070  Biso   1.000  C
  C290     1.0000 0.64400  0.60100  0.98500  Biso   1.000  C
  H148     1.0000 0.62520  0.60680  0.00040  Biso   1.000  H
  C291     1.0000 0.62490  0.56510  0.92470  Biso   1.000  C
  H149     1.0000 0.59330  0.54670  0.89920  Biso   1.000  H
  C292     1.0000 0.65150  0.55580  0.90110  Biso   1.000  C
  H150     1.0000 0.63790  0.53220  0.85890  Biso   1.000  H
  C293     1.0000 0.69860  0.58140  0.94000  Biso   1.000  C
  C294     1.0000 0.72910  0.56300  0.91740  Biso   1.000  C
  C295     1.0000 0.68440  0.51130  0.18050  Biso   1.000  C
  C296     1.0000 0.62980  0.50910  0.12510  Biso   1.000  C
  C297     1.0000 0.60210  0.56820  0.09860  Biso   1.000  C
  H151     1.0000 0.61740  0.61150  0.11420  Biso   1.000  H
  C298     1.0000 0.55170  0.56480  0.04930  Biso   1.000  C
  H152     1.0000 0.53380  0.60600  0.03120  Biso   1.000  H
  C299     1.0000 0.52760  0.50280  0.02620  Biso   1.000  C
  C300     1.0000 0.55610  0.44350  0.04840  Biso   1.000  C
  H153     1.0000 0.54110  0.40050  0.02950  Biso   1.000  H
  C301     1.0000 0.60710  0.44700  0.09890  Biso   1.000  C
  H154     1.0000 0.62570  0.40620  0.11450  Biso   1.000  H
  N37      1.0000 0.07106  0.54120  0.74490  Biso   1.000  N
  N38      1.0000 0.97997  0.42110  0.66680  Biso   1.000  N
  N39      1.0000 0.81240  0.19540  0.16570  Biso   1.000  N
  N40      1.0000 0.77940  0.36470  0.15950  Biso   1.000  N
  N41      1.0000 0.68910  0.62820  0.02300  Biso   1.000  N
  N42      1.0000 0.78200  0.67780  0.01120  Biso   1.000  N
  O109     1.0000 0.90538  0.57940  0.55380  Biso   1.000  O
  O110     1.0000 0.94508  0.50320  0.53451  Biso   1.000  O
  O111     1.0000 0.08081  0.48010  0.63780  Biso   1.000  O
  O112     1.0000 0.13147  0.39270  0.70390  Biso   1.000  O
  O113     1.0000 0.88367  0.35160  0.35540  Biso   1.000  O
  O114     1.0000 0.80546  0.32230  0.30170  Biso   1.000  O
  O115     1.0000 0.71628  0.18070  0.17040  Biso   1.000  O
  O116     1.0000 0.69344  0.15880  0.06250  Biso   1.000  O
  O117     1.0000 0.77213  0.67560  0.19860  Biso   1.000  O
  O118     1.0000 0.77833  0.57130  0.16766  Biso   1.000  O
  O119     1.0000 0.76616  0.52520  0.95940  Biso   1.000  O
  O120     1.0000 0.71504  0.58400  0.85800  Biso   1.000  O
  O121     1.0000 0.76472  0.52850  0.34216  Biso   1.000  O
  O122     1.0000 0.85901  0.56255  0.40551  Biso   1.000  O
  O123     1.0000 0.81595  0.46618  0.29909  Biso   1.000  O
  O124     1.0000 0.83585  0.43150  0.42858  Biso   1.000  O
  O125     1.0000 0.70494  0.45360  0.20840  Biso   1.000  O
  O126     1.0000 0.70654  0.56840  0.19710  Biso   1.000  O
  Tb25     1.0000 0.89633  0.45427  0.41612  Biso   1.000  Tb
  Tb26     1.0000 0.79376  0.58256  0.28387  Biso   1.000  Tb
  Tb27     1.0000 0.82531  0.54063  0.46576  Biso   1.000  Tb
  Tb28     1.0000 0.76244  0.40508  0.31633  Biso   1.000  Tb
  C302     1.0000 0.44350  0.04850  0.57130  Biso   1.000  C
  C303     1.0000 0.49080  0.06930  0.64020  Biso   1.000  C
  C304     1.0000 0.49890  0.13900  0.65910  Biso   1.000  C
  H155     1.0000 0.47450  0.17190  0.63070  Biso   1.000  H
  C305     1.0000 0.54300  0.15890  0.71970  Biso   1.000  C
  H156     1.0000 0.54920  0.20540  0.73360  Biso   1.000  H
  C306     1.0000 0.57810  0.10910  0.75980  Biso   1.000  C
  H157     1.0000 0.60870  0.12350  0.80000  Biso   1.000  H
  C307     1.0000 0.52750  0.02150  0.68540  Biso   1.000  C
  C308     1.0000 0.52010  0.94400  0.67510  Biso   1.000  C
  C309     1.0000 0.47450  0.85140  0.66630  Biso   1.000  C
  H158     1.0000 0.44690  0.83470  0.66030  Biso   1.000  H
  C310     1.0000 0.50670  0.80420  0.67400  Biso   1.000  C
  H159     1.0000 0.50190  0.75670  0.67520  Biso   1.000  H
  C311     1.0000 0.54660  0.82810  0.67980  Biso   1.000  C
  H160     1.0000 0.56870  0.79670  0.68390  Biso   1.000  H
  C312     1.0000 0.55350  0.89950  0.67960  Biso   1.000  C
  C313     1.0000 0.59210  0.92540  0.67440  Biso   1.000  C
  C314     1.0000 0.34600  0.81600  0.31260  Biso   1.000  C
  C315     1.0000 0.34940  0.76080  0.27220  Biso   1.000  C
  C316     1.0000 0.38970  0.71810  0.30610  Biso   1.000  C
  H161     1.0000 0.41640  0.72680  0.35300  Biso   1.000  H
  C317     1.0000 0.39050  0.66330  0.27150  Biso   1.000  C
  H162     1.0000 0.41720  0.63300  0.29450  Biso   1.000  H
  C318     1.0000 0.35200  0.65330  0.20320  Biso   1.000  C
  H163     1.0000 0.35270  0.61470  0.18030  Biso   1.000  H
  C319     1.0000 0.31140  0.74910  0.20150  Biso   1.000  C
  C320     1.0000 0.26850  0.79740  0.15610  Biso   1.000  C
  C321     1.0000 0.24230  0.90660  0.11460  Biso   1.000  C
  H164     1.0000 0.24950  0.95370  0.11620  Biso   1.000  H
  C322     1.0000 0.19370  0.88650  0.06540  Biso   1.000  C
  H165     1.0000 0.16930  0.91870  0.03490  Biso   1.000  H
  C323     1.0000 0.18320  0.81780  0.06370  Biso   1.000  C
  H166     1.0000 0.15110  0.80170  0.03160  Biso   1.000  H
  C324     1.0000 0.22110  0.77220  0.11040  Biso   1.000  C
  C325     1.0000 0.20920  0.69710  0.11480  Biso   1.000  C
  C326     1.0000 0.27720  0.13640  0.16120  Biso   1.000  C
  C327     1.0000 0.28920  0.16840  0.11660  Biso   1.000  C
  C328     1.0000 0.33040  0.20990  0.15150  Biso   1.000  C
  H167     1.0000 0.34640  0.22190  0.19860  Biso   1.000  H
  C329     1.0000 0.34790  0.23330  0.11680  Biso   1.000  C
  H168     1.0000 0.37590  0.26100  0.13980  Biso   1.000  H
  C330     1.0000 0.32320  0.21510  0.04840  Biso   1.000  C
  H169     1.0000 0.33600  0.22970  0.02560  Biso   1.000  H
  C331     1.0000 0.26420  0.15440  0.04430  Biso   1.000  C
  C332     1.0000 0.21590  0.11870  0.00070  Biso   1.000  C
  C333     1.0000 0.14400  0.10100  0.98500  Biso   1.000  C
  H170     1.0000 0.12520  0.10680  0.00040  Biso   1.000  H
  C334     1.0000 0.12490  0.06510  0.92470  Biso   1.000  C
  H171     1.0000 0.09330  0.04670  0.89920  Biso   1.000  H
  C335     1.0000 0.15150  0.05580  0.90110  Biso   1.000  C
  H172     1.0000 0.13790  0.03220  0.85890  Biso   1.000  H
  C336     1.0000 0.19860  0.08140  0.94000  Biso   1.000  C
  C337     1.0000 0.22910  0.06300  0.91740  Biso   1.000  C
  C338     1.0000 0.18440  0.01130  0.18050  Biso   1.000  C
  C339     1.0000 0.12980  0.00910  0.12510  Biso   1.000  C
  C340     1.0000 0.10210  0.06820  0.09860  Biso   1.000  C
  H173     1.0000 0.11740  0.11150  0.11420  Biso   1.000  H
  C341     1.0000 0.05170  0.06480  0.04930  Biso   1.000  C
  H174     1.0000 0.03380  0.10600  0.03120  Biso   1.000  H
  C342     1.0000 0.02760  0.00280  0.02620  Biso   1.000  C
  C343     1.0000 0.05610  0.94350  0.04840  Biso   1.000  C
  H175     1.0000 0.04110  0.90050  0.02950  Biso   1.000  H
  C344     1.0000 0.10710  0.94700  0.09890  Biso   1.000  C
  H176     1.0000 0.12570  0.90620  0.11450  Biso   1.000  H
  N43      1.0000 0.57106  0.04120  0.74490  Biso   1.000  N
  N44      1.0000 0.47997  0.92110  0.66680  Biso   1.000  N
  N45      1.0000 0.31240  0.69540  0.16570  Biso   1.000  N
  N46      1.0000 0.27940  0.86470  0.15950  Biso   1.000  N
  N47      1.0000 0.18910  0.12820  0.02300  Biso   1.000  N
  N48      1.0000 0.28200  0.17780  0.01120  Biso   1.000  N
  O127     1.0000 0.40538  0.07940  0.55380  Biso   1.000  O
  O128     1.0000 0.44508  0.00320  0.53451  Biso   1.000  O
  O129     1.0000 0.58081  0.98010  0.63780  Biso   1.000  O
  O130     1.0000 0.63147  0.89270  0.70390  Biso   1.000  O
  O131     1.0000 0.38367  0.85160  0.35540  Biso   1.000  O
  O132     1.0000 0.30546  0.82230  0.30170  Biso   1.000  O
  O133     1.0000 0.21628  0.68070  0.17040  Biso   1.000  O
  O134     1.0000 0.19344  0.65880  0.06250  Biso   1.000  O
  O135     1.0000 0.27213  0.17560  0.19860  Biso   1.000  O
  O136     1.0000 0.27833  0.07130  0.16766  Biso   1.000  O
  O137     1.0000 0.26616  0.02520  0.95940  Biso   1.000  O
  O138     1.0000 0.21504  0.08400  0.85800  Biso   1.000  O
  O139     1.0000 0.26472  0.02850  0.34216  Biso   1.000  O
  O140     1.0000 0.35901  0.06255  0.40551  Biso   1.000  O
  O141     1.0000 0.31595  0.96618  0.29909  Biso   1.000  O
  O142     1.0000 0.33585  0.93150  0.42858  Biso   1.000  O
  O143     1.0000 0.20494  0.95360  0.20840  Biso   1.000  O
  O144     1.0000 0.20654  0.06840  0.19710  Biso   1.000  O
  Tb29     1.0000 0.39633  0.95427  0.41612  Biso   1.000  Tb
  Tb30     1.0000 0.29376  0.08256  0.28387  Biso   1.000  Tb
  Tb31     1.0000 0.32531  0.04063  0.46577  Biso   1.000  Tb
  Tb32     1.0000 0.26244  0.90508  0.31633  Biso   1.000  Tb
