data_image0
_cell_length_a       34.882
_cell_length_b       34.882
_cell_length_c       12.086
_cell_angle_alpha    90
_cell_angle_beta     90
_cell_angle_gamma    90

_symmetry_space_group_name_H-M    "P 1"
_symmetry_int_tables_number       1

loop_
  _symmetry_equiv_pos_as_xyz
  'x, y, z'

loop_
  _atom_site_label
  _atom_site_occupancy
  _atom_site_fract_x
  _atom_site_fract_y
  _atom_site_fract_z
  _atom_site_thermal_displace_type
  _atom_site_B_iso_or_equiv
  _atom_site_type_symbol
  O1       1.0000 0.39455  0.53941  0.42940  Biso   1.000  O
  O2       1.0000 0.39537  0.47880  0.36810  Biso   1.000  O
  O3       1.0000 0.07391  0.50773  0.25990  Biso   1.000  O
  O4       1.0000 0.09060  0.55443  0.13790  Biso   1.000  O
  O5       1.0000 0.44070  0.48970  0.54290  Biso   1.000  O
  O6       1.0000 0.48595  0.53520  0.64050  Biso   1.000  O
  C1       1.0000 0.37852  0.51010  0.39020  Biso   1.000  C
  C2       1.0000 0.33588  0.51221  0.37050  Biso   1.000  C
  C3       1.0000 0.31775  0.54699  0.39080  Biso   1.000  C
  H1       1.0000 0.33220  0.56830  0.41610  Biso   1.000  H
  C4       1.0000 0.25734  0.51930  0.33700  Biso   1.000  C
  C5       1.0000 0.31474  0.48098  0.33340  Biso   1.000  C
  H2       1.0000 0.32710  0.45720  0.31950  Biso   1.000  H
  C6       1.0000 0.27848  0.55054  0.37400  Biso   1.000  C
  H3       1.0000 0.26610  0.57430  0.38790  Biso   1.000  H
  C7       1.0000 0.27547  0.48451  0.31660  Biso   1.000  C
  C8       1.0000 0.25690  0.44760  0.27600  Biso   1.000  C
  F1       1.0000 0.23240  0.44950  0.18970  Biso   1.000  F
  F2       1.0000 0.27950  0.41760  0.25000  Biso   1.000  F
  F3       1.0000 0.23420  0.43280  0.35790  Biso   1.000  F
  C9       1.0000 0.09713  0.53319  0.21830  Biso   1.000  C
  C10      1.0000 0.13833  0.52872  0.25380  Biso   1.000  C
  C11      1.0000 0.16734  0.54226  0.18540  Biso   1.000  C
  H4       1.0000 0.16110  0.55420  0.11700  Biso   1.000  H
  C12      1.0000 0.20547  0.53838  0.21680  Biso   1.000  C
  H5       1.0000 0.22530  0.54760  0.16990  Biso   1.000  H
  C13      1.0000 0.21462  0.52095  0.31680  Biso   1.000  C
  C14      1.0000 0.18561  0.50741  0.38530  Biso   1.000  C
  C15      1.0000 0.14748  0.51130  0.35380  Biso   1.000  C
  H6       1.0000 0.12770  0.50200  0.40070  Biso   1.000  H
  C16      1.0000 0.19570  0.49010  0.48470  Biso   1.000  C
  F4       1.0000 0.16700  0.48150  0.55250  Biso   1.000  F
  F5       1.0000 0.21000  0.45280  0.46530  Biso   1.000  F
  F6       1.0000 0.22270  0.50340  0.55030  Biso   1.000  F
  H7       1.0000 0.26100  0.46320  0.29130  Biso   1.000  H
  C17      1.0000 0.26220  0.58780  0.39730  Biso   1.000  C
  F7       1.0000 0.25160  0.60960  0.31950  Biso   1.000  F
  F8       1.0000 0.22990  0.58490  0.46070  Biso   1.000  F
  F9       1.0000 0.28230  0.61180  0.46470  Biso   1.000  F
  O7       1.0000 0.10545  0.96059  0.42940  Biso   1.000  O
  O8       1.0000 0.10463  0.02120  0.36810  Biso   1.000  O
  O9       1.0000 0.42609  0.99227  0.25990  Biso   1.000  O
  O10      1.0000 0.40940  0.94557  0.13790  Biso   1.000  O
  O11      1.0000 0.05930  0.01030  0.54290  Biso   1.000  O
  O12      1.0000 0.01405  0.96480  0.64050  Biso   1.000  O
  C18      1.0000 0.12148  0.98990  0.39020  Biso   1.000  C
  C19      1.0000 0.16412  0.98779  0.37050  Biso   1.000  C
  C20      1.0000 0.18225  0.95301  0.39080  Biso   1.000  C
  H8       1.0000 0.16780  0.93170  0.41610  Biso   1.000  H
  C21      1.0000 0.24266  0.98070  0.33700  Biso   1.000  C
  C22      1.0000 0.18526  0.01902  0.33340  Biso   1.000  C
  H9       1.0000 0.17290  0.04280  0.31950  Biso   1.000  H
  C23      1.0000 0.22152  0.94946  0.37400  Biso   1.000  C
  H10      1.0000 0.23390  0.92570  0.38790  Biso   1.000  H
  C24      1.0000 0.22453  0.01549  0.31660  Biso   1.000  C
  C25      1.0000 0.24310  0.05240  0.27600  Biso   1.000  C
  F10      1.0000 0.26760  0.05050  0.18970  Biso   1.000  F
  F11      1.0000 0.22050  0.08240  0.25000  Biso   1.000  F
  F12      1.0000 0.26580  0.06720  0.35790  Biso   1.000  F
  C26      1.0000 0.40287  0.96681  0.21830  Biso   1.000  C
  C27      1.0000 0.36167  0.97128  0.25380  Biso   1.000  C
  C28      1.0000 0.33266  0.95774  0.18540  Biso   1.000  C
  H11      1.0000 0.33890  0.94580  0.11700  Biso   1.000  H
  C29      1.0000 0.29453  0.96162  0.21680  Biso   1.000  C
  H12      1.0000 0.27470  0.95240  0.16990  Biso   1.000  H
  C30      1.0000 0.28538  0.97905  0.31680  Biso   1.000  C
  C31      1.0000 0.31439  0.99259  0.38530  Biso   1.000  C
  C32      1.0000 0.35252  0.98870  0.35380  Biso   1.000  C
  H13      1.0000 0.37230  0.99800  0.40070  Biso   1.000  H
  C33      1.0000 0.30430  0.00990  0.48470  Biso   1.000  C
  F13      1.0000 0.33300  0.01850  0.55250  Biso   1.000  F
  F14      1.0000 0.29000  0.04720  0.46530  Biso   1.000  F
  F15      1.0000 0.27730  0.99660  0.55030  Biso   1.000  F
  H14      1.0000 0.23900  0.03680  0.29130  Biso   1.000  H
  C34      1.0000 0.23780  0.91220  0.39730  Biso   1.000  C
  F16      1.0000 0.24840  0.89040  0.31950  Biso   1.000  F
  F17      1.0000 0.27010  0.91510  0.46070  Biso   1.000  F
  F18      1.0000 0.21770  0.88820  0.46470  Biso   1.000  F
  O13      1.0000 0.96059  0.39455  0.92940  Biso   1.000  O
  O14      1.0000 0.02120  0.39537  0.86810  Biso   1.000  O
  O15      1.0000 0.99227  0.07391  0.75990  Biso   1.000  O
  O16      1.0000 0.94557  0.09060  0.63790  Biso   1.000  O
  O17      1.0000 0.01030  0.44070  0.04290  Biso   1.000  O
  O18      1.0000 0.96480  0.48595  0.14050  Biso   1.000  O
  C35      1.0000 0.98990  0.37852  0.89020  Biso   1.000  C
  C36      1.0000 0.98779  0.33588  0.87050  Biso   1.000  C
  C37      1.0000 0.95301  0.31775  0.89080  Biso   1.000  C
  H15      1.0000 0.93170  0.33220  0.91610  Biso   1.000  H
  C38      1.0000 0.98070  0.25734  0.83700  Biso   1.000  C
  C39      1.0000 0.01902  0.31474  0.83340  Biso   1.000  C
  H16      1.0000 0.04280  0.32710  0.81950  Biso   1.000  H
  C40      1.0000 0.94946  0.27848  0.87400  Biso   1.000  C
  H17      1.0000 0.92570  0.26610  0.88790  Biso   1.000  H
  C41      1.0000 0.01549  0.27547  0.81660  Biso   1.000  C
  C42      1.0000 0.05240  0.25690  0.77600  Biso   1.000  C
  F19      1.0000 0.05050  0.23240  0.68970  Biso   1.000  F
  F20      1.0000 0.08240  0.27950  0.75000  Biso   1.000  F
  F21      1.0000 0.06720  0.23420  0.85790  Biso   1.000  F
  C43      1.0000 0.96681  0.09713  0.71830  Biso   1.000  C
  C44      1.0000 0.97128  0.13833  0.75380  Biso   1.000  C
  C45      1.0000 0.95774  0.16734  0.68540  Biso   1.000  C
  H18      1.0000 0.94580  0.16110  0.61700  Biso   1.000  H
  C46      1.0000 0.96162  0.20547  0.71680  Biso   1.000  C
  H19      1.0000 0.95240  0.22530  0.66990  Biso   1.000  H
  C47      1.0000 0.97905  0.21462  0.81680  Biso   1.000  C
  C48      1.0000 0.99259  0.18561  0.88530  Biso   1.000  C
  C49      1.0000 0.98870  0.14748  0.85380  Biso   1.000  C
  H20      1.0000 0.99800  0.12770  0.90070  Biso   1.000  H
  C50      1.0000 0.00990  0.19570  0.98470  Biso   1.000  C
  F22      1.0000 0.01850  0.16700  0.05250  Biso   1.000  F
  F23      1.0000 0.04720  0.21000  0.96530  Biso   1.000  F
  F24      1.0000 0.99660  0.22270  0.05030  Biso   1.000  F
  H21      1.0000 0.03680  0.26100  0.79130  Biso   1.000  H
  C51      1.0000 0.91220  0.26220  0.89730  Biso   1.000  C
  F25      1.0000 0.89040  0.25160  0.81950  Biso   1.000  F
  F26      1.0000 0.91510  0.22990  0.96070  Biso   1.000  F
  F27      1.0000 0.88820  0.28230  0.96470  Biso   1.000  F
  O19      1.0000 0.53941  0.10545  0.92940  Biso   1.000  O
  O20      1.0000 0.47880  0.10463  0.86810  Biso   1.000  O
  O21      1.0000 0.50773  0.42609  0.75990  Biso   1.000  O
  O22      1.0000 0.55443  0.40940  0.63790  Biso   1.000  O
  O23      1.0000 0.48970  0.05930  0.04290  Biso   1.000  O
  O24      1.0000 0.53520  0.01405  0.14050  Biso   1.000  O
  C52      1.0000 0.51010  0.12148  0.89020  Biso   1.000  C
  C53      1.0000 0.51221  0.16412  0.87050  Biso   1.000  C
  C54      1.0000 0.54699  0.18225  0.89080  Biso   1.000  C
  H22      1.0000 0.56830  0.16780  0.91610  Biso   1.000  H
  C55      1.0000 0.51930  0.24266  0.83700  Biso   1.000  C
  C56      1.0000 0.48098  0.18526  0.83340  Biso   1.000  C
  H23      1.0000 0.45720  0.17290  0.81950  Biso   1.000  H
  C57      1.0000 0.55054  0.22152  0.87400  Biso   1.000  C
  H24      1.0000 0.57430  0.23390  0.88790  Biso   1.000  H
  C58      1.0000 0.48451  0.22453  0.81660  Biso   1.000  C
  C59      1.0000 0.44760  0.24310  0.77600  Biso   1.000  C
  F28      1.0000 0.44950  0.26760  0.68970  Biso   1.000  F
  F29      1.0000 0.41760  0.22050  0.75000  Biso   1.000  F
  F30      1.0000 0.43280  0.26580  0.85790  Biso   1.000  F
  C60      1.0000 0.53319  0.40287  0.71830  Biso   1.000  C
  C61      1.0000 0.52872  0.36167  0.75380  Biso   1.000  C
  C62      1.0000 0.54226  0.33266  0.68540  Biso   1.000  C
  H25      1.0000 0.55420  0.33890  0.61700  Biso   1.000  H
  C63      1.0000 0.53838  0.29453  0.71680  Biso   1.000  C
  H26      1.0000 0.54760  0.27470  0.66990  Biso   1.000  H
  C64      1.0000 0.52095  0.28538  0.81680  Biso   1.000  C
  C65      1.0000 0.50741  0.31439  0.88530  Biso   1.000  C
  C66      1.0000 0.51130  0.35252  0.85380  Biso   1.000  C
  H27      1.0000 0.50200  0.37230  0.90070  Biso   1.000  H
  C67      1.0000 0.49010  0.30430  0.98470  Biso   1.000  C
  F31      1.0000 0.48150  0.33300  0.05250  Biso   1.000  F
  F32      1.0000 0.45280  0.29000  0.96530  Biso   1.000  F
  F33      1.0000 0.50340  0.27730  0.05030  Biso   1.000  F
  H28      1.0000 0.46320  0.23900  0.79130  Biso   1.000  H
  C68      1.0000 0.58780  0.23780  0.89730  Biso   1.000  C
  F34      1.0000 0.60960  0.24840  0.81950  Biso   1.000  F
  F35      1.0000 0.58490  0.27010  0.96070  Biso   1.000  F
  F36      1.0000 0.61180  0.21770  0.96470  Biso   1.000  F
  O25      1.0000 0.60545  0.03941  0.07060  Biso   1.000  O
  O26      1.0000 0.60463  0.97880  0.13190  Biso   1.000  O
  O27      1.0000 0.92609  0.00773  0.24010  Biso   1.000  O
  O28      1.0000 0.90940  0.05443  0.36210  Biso   1.000  O
  O29      1.0000 0.55930  0.98970  0.95710  Biso   1.000  O
  O30      1.0000 0.51405  0.03520  0.85950  Biso   1.000  O
  C69      1.0000 0.62148  0.01010  0.10980  Biso   1.000  C
  C70      1.0000 0.66412  0.01221  0.12950  Biso   1.000  C
  C71      1.0000 0.68225  0.04699  0.10920  Biso   1.000  C
  H29      1.0000 0.66780  0.06830  0.08390  Biso   1.000  H
  C72      1.0000 0.74266  0.01930  0.16300  Biso   1.000  C
  C73      1.0000 0.68526  0.98098  0.16660  Biso   1.000  C
  H30      1.0000 0.67290  0.95720  0.18050  Biso   1.000  H
  C74      1.0000 0.72152  0.05054  0.12600  Biso   1.000  C
  H31      1.0000 0.73390  0.07430  0.11210  Biso   1.000  H
  C75      1.0000 0.72453  0.98451  0.18340  Biso   1.000  C
  C76      1.0000 0.74310  0.94760  0.22400  Biso   1.000  C
  F37      1.0000 0.76760  0.94950  0.31030  Biso   1.000  F
  F38      1.0000 0.72050  0.91760  0.25000  Biso   1.000  F
  F39      1.0000 0.76580  0.93280  0.14210  Biso   1.000  F
  C77      1.0000 0.90287  0.03319  0.28170  Biso   1.000  C
  C78      1.0000 0.86167  0.02872  0.24620  Biso   1.000  C
  C79      1.0000 0.83266  0.04226  0.31460  Biso   1.000  C
  H32      1.0000 0.83890  0.05420  0.38300  Biso   1.000  H
  C80      1.0000 0.79453  0.03838  0.28320  Biso   1.000  C
  H33      1.0000 0.77470  0.04760  0.33010  Biso   1.000  H
  C81      1.0000 0.78538  0.02095  0.18320  Biso   1.000  C
  C82      1.0000 0.81439  0.00741  0.11470  Biso   1.000  C
  C83      1.0000 0.85252  0.01130  0.14620  Biso   1.000  C
  H34      1.0000 0.87230  0.00200  0.09930  Biso   1.000  H
  C84      1.0000 0.80430  0.99010  0.01530  Biso   1.000  C
  F40      1.0000 0.83300  0.98150  0.94750  Biso   1.000  F
  F41      1.0000 0.79000  0.95280  0.03470  Biso   1.000  F
  F42      1.0000 0.77730  0.00340  0.94970  Biso   1.000  F
  H35      1.0000 0.73900  0.96320  0.20870  Biso   1.000  H
  C85      1.0000 0.73780  0.08780  0.10270  Biso   1.000  C
  F43      1.0000 0.74840  0.10960  0.18050  Biso   1.000  F
  F44      1.0000 0.77010  0.08490  0.03930  Biso   1.000  F
  F45      1.0000 0.71770  0.11180  0.03530  Biso   1.000  F
  O31      1.0000 0.89455  0.46059  0.07060  Biso   1.000  O
  O32      1.0000 0.89537  0.52120  0.13190  Biso   1.000  O
  O33      1.0000 0.57391  0.49227  0.24010  Biso   1.000  O
  O34      1.0000 0.59060  0.44557  0.36210  Biso   1.000  O
  O35      1.0000 0.94070  0.51030  0.95710  Biso   1.000  O
  O36      1.0000 0.98595  0.46480  0.85950  Biso   1.000  O
  C86      1.0000 0.87852  0.48990  0.10980  Biso   1.000  C
  C87      1.0000 0.83588  0.48779  0.12950  Biso   1.000  C
  C88      1.0000 0.81775  0.45301  0.10920  Biso   1.000  C
  H36      1.0000 0.83220  0.43170  0.08390  Biso   1.000  H
  C89      1.0000 0.75734  0.48070  0.16300  Biso   1.000  C
  C90      1.0000 0.81474  0.51902  0.16660  Biso   1.000  C
  H37      1.0000 0.82710  0.54280  0.18050  Biso   1.000  H
  C91      1.0000 0.77848  0.44946  0.12600  Biso   1.000  C
  H38      1.0000 0.76610  0.42570  0.11210  Biso   1.000  H
  C92      1.0000 0.77547  0.51549  0.18340  Biso   1.000  C
  C93      1.0000 0.75690  0.55240  0.22400  Biso   1.000  C
  F46      1.0000 0.73240  0.55050  0.31030  Biso   1.000  F
  F47      1.0000 0.77950  0.58240  0.25000  Biso   1.000  F
  F48      1.0000 0.73420  0.56720  0.14210  Biso   1.000  F
  C94      1.0000 0.59713  0.46681  0.28170  Biso   1.000  C
  C95      1.0000 0.63833  0.47128  0.24620  Biso   1.000  C
  C96      1.0000 0.66734  0.45774  0.31460  Biso   1.000  C
  H39      1.0000 0.66110  0.44580  0.38300  Biso   1.000  H
  C97      1.0000 0.70547  0.46162  0.28320  Biso   1.000  C
  H40      1.0000 0.72530  0.45240  0.33010  Biso   1.000  H
  C98      1.0000 0.71462  0.47905  0.18320  Biso   1.000  C
  C99      1.0000 0.68561  0.49259  0.11470  Biso   1.000  C
  C100     1.0000 0.64748  0.48870  0.14620  Biso   1.000  C
  H41      1.0000 0.62770  0.49800  0.09930  Biso   1.000  H
  C101     1.0000 0.69570  0.50990  0.01530  Biso   1.000  C
  F49      1.0000 0.66700  0.51850  0.94750  Biso   1.000  F
  F50      1.0000 0.71000  0.54720  0.03470  Biso   1.000  F
  F51      1.0000 0.72270  0.49660  0.94970  Biso   1.000  F
  H42      1.0000 0.76100  0.53680  0.20870  Biso   1.000  H
  C102     1.0000 0.76220  0.41220  0.10270  Biso   1.000  C
  F52      1.0000 0.75160  0.39040  0.18050  Biso   1.000  F
  F53      1.0000 0.72990  0.41510  0.03930  Biso   1.000  F
  F54      1.0000 0.78230  0.38820  0.03530  Biso   1.000  F
  O37      1.0000 0.03941  0.89455  0.57060  Biso   1.000  O
  O38      1.0000 0.97880  0.89537  0.63190  Biso   1.000  O
  O39      1.0000 0.00773  0.57391  0.74010  Biso   1.000  O
  O40      1.0000 0.05443  0.59060  0.86210  Biso   1.000  O
  O41      1.0000 0.98970  0.94070  0.45710  Biso   1.000  O
  O42      1.0000 0.03520  0.98595  0.35950  Biso   1.000  O
  C103     1.0000 0.01010  0.87852  0.60980  Biso   1.000  C
  C104     1.0000 0.01221  0.83588  0.62950  Biso   1.000  C
  C105     1.0000 0.04699  0.81775  0.60920  Biso   1.000  C
  H43      1.0000 0.06830  0.83220  0.58390  Biso   1.000  H
  C106     1.0000 0.01930  0.75734  0.66300  Biso   1.000  C
  C107     1.0000 0.98098  0.81474  0.66660  Biso   1.000  C
  H44      1.0000 0.95720  0.82710  0.68050  Biso   1.000  H
  C108     1.0000 0.05054  0.77848  0.62600  Biso   1.000  C
  H45      1.0000 0.07430  0.76610  0.61210  Biso   1.000  H
  C109     1.0000 0.98451  0.77547  0.68340  Biso   1.000  C
  C110     1.0000 0.94760  0.75690  0.72400  Biso   1.000  C
  F55      1.0000 0.94950  0.73240  0.81030  Biso   1.000  F
  F56      1.0000 0.91760  0.77950  0.75000  Biso   1.000  F
  F57      1.0000 0.93280  0.73420  0.64210  Biso   1.000  F
  C111     1.0000 0.03319  0.59713  0.78170  Biso   1.000  C
  C112     1.0000 0.02872  0.63833  0.74620  Biso   1.000  C
  C113     1.0000 0.04226  0.66734  0.81460  Biso   1.000  C
  H46      1.0000 0.05420  0.66110  0.88300  Biso   1.000  H
  C114     1.0000 0.03838  0.70547  0.78320  Biso   1.000  C
  H47      1.0000 0.04760  0.72530  0.83010  Biso   1.000  H
  C115     1.0000 0.02095  0.71462  0.68320  Biso   1.000  C
  C116     1.0000 0.00741  0.68561  0.61470  Biso   1.000  C
  C117     1.0000 0.01130  0.64748  0.64620  Biso   1.000  C
  H48      1.0000 0.00200  0.62770  0.59930  Biso   1.000  H
  C118     1.0000 0.99010  0.69570  0.51530  Biso   1.000  C
  F58      1.0000 0.98150  0.66700  0.44750  Biso   1.000  F
  F59      1.0000 0.95280  0.71000  0.53470  Biso   1.000  F
  F60      1.0000 0.00340  0.72270  0.44970  Biso   1.000  F
  H49      1.0000 0.96320  0.76100  0.70870  Biso   1.000  H
  C119     1.0000 0.08780  0.76220  0.60270  Biso   1.000  C
  F61      1.0000 0.10960  0.75160  0.68050  Biso   1.000  F
  F62      1.0000 0.08490  0.72990  0.53930  Biso   1.000  F
  F63      1.0000 0.11180  0.78230  0.53530  Biso   1.000  F
  O43      1.0000 0.46059  0.60545  0.57060  Biso   1.000  O
  O44      1.0000 0.52120  0.60463  0.63190  Biso   1.000  O
  O45      1.0000 0.49227  0.92609  0.74010  Biso   1.000  O
  O46      1.0000 0.44557  0.90940  0.86210  Biso   1.000  O
  O47      1.0000 0.51030  0.55930  0.45710  Biso   1.000  O
  O48      1.0000 0.46480  0.51405  0.35950  Biso   1.000  O
  C120     1.0000 0.48990  0.62148  0.60980  Biso   1.000  C
  C121     1.0000 0.48779  0.66412  0.62950  Biso   1.000  C
  C122     1.0000 0.45301  0.68225  0.60920  Biso   1.000  C
  H50      1.0000 0.43170  0.66780  0.58390  Biso   1.000  H
  C123     1.0000 0.48070  0.74266  0.66300  Biso   1.000  C
  C124     1.0000 0.51902  0.68526  0.66660  Biso   1.000  C
  H51      1.0000 0.54280  0.67290  0.68050  Biso   1.000  H
  C125     1.0000 0.44946  0.72152  0.62600  Biso   1.000  C
  H52      1.0000 0.42570  0.73390  0.61210  Biso   1.000  H
  C126     1.0000 0.51549  0.72453  0.68340  Biso   1.000  C
  C127     1.0000 0.55240  0.74310  0.72400  Biso   1.000  C
  F64      1.0000 0.55050  0.76760  0.81030  Biso   1.000  F
  F65      1.0000 0.58240  0.72050  0.75000  Biso   1.000  F
  F66      1.0000 0.56720  0.76580  0.64210  Biso   1.000  F
  C128     1.0000 0.46681  0.90287  0.78170  Biso   1.000  C
  C129     1.0000 0.47128  0.86167  0.74620  Biso   1.000  C
  C130     1.0000 0.45774  0.83266  0.81460  Biso   1.000  C
  H53      1.0000 0.44580  0.83890  0.88300  Biso   1.000  H
  C131     1.0000 0.46162  0.79453  0.78320  Biso   1.000  C
  H54      1.0000 0.45240  0.77470  0.83010  Biso   1.000  H
  C132     1.0000 0.47905  0.78538  0.68320  Biso   1.000  C
  C133     1.0000 0.49259  0.81439  0.61470  Biso   1.000  C
  C134     1.0000 0.48870  0.85252  0.64620  Biso   1.000  C
  H55      1.0000 0.49800  0.87230  0.59930  Biso   1.000  H
  C135     1.0000 0.50990  0.80430  0.51530  Biso   1.000  C
  F67      1.0000 0.51850  0.83300  0.44750  Biso   1.000  F
  F68      1.0000 0.54720  0.79000  0.53470  Biso   1.000  F
  F69      1.0000 0.49660  0.77730  0.44970  Biso   1.000  F
  H56      1.0000 0.53680  0.73900  0.70870  Biso   1.000  H
  C136     1.0000 0.41220  0.73780  0.60270  Biso   1.000  C
  F70      1.0000 0.39040  0.74840  0.68050  Biso   1.000  F
  F71      1.0000 0.41510  0.77010  0.53930  Biso   1.000  F
  F72      1.0000 0.38820  0.71770  0.53530  Biso   1.000  F
  O49      1.0000 0.60545  0.46059  0.57060  Biso   1.000  O
  O50      1.0000 0.60463  0.52120  0.63190  Biso   1.000  O
  O51      1.0000 0.92609  0.49227  0.74010  Biso   1.000  O
  O52      1.0000 0.90940  0.44557  0.86210  Biso   1.000  O
  O53      1.0000 0.55930  0.51030  0.45710  Biso   1.000  O
  O54      1.0000 0.51405  0.46480  0.35950  Biso   1.000  O
  C137     1.0000 0.62148  0.48990  0.60980  Biso   1.000  C
  C138     1.0000 0.66412  0.48779  0.62950  Biso   1.000  C
  C139     1.0000 0.68225  0.45301  0.60920  Biso   1.000  C
  H57      1.0000 0.66780  0.43170  0.58390  Biso   1.000  H
  C140     1.0000 0.74266  0.48070  0.66300  Biso   1.000  C
  C141     1.0000 0.68526  0.51902  0.66660  Biso   1.000  C
  H58      1.0000 0.67290  0.54280  0.68050  Biso   1.000  H
  C142     1.0000 0.72152  0.44946  0.62600  Biso   1.000  C
  H59      1.0000 0.73390  0.42570  0.61210  Biso   1.000  H
  C143     1.0000 0.72453  0.51549  0.68340  Biso   1.000  C
  C144     1.0000 0.74310  0.55240  0.72400  Biso   1.000  C
  F73      1.0000 0.76760  0.55050  0.81030  Biso   1.000  F
  F74      1.0000 0.72050  0.58240  0.75000  Biso   1.000  F
  F75      1.0000 0.76580  0.56720  0.64210  Biso   1.000  F
  C145     1.0000 0.90287  0.46681  0.78170  Biso   1.000  C
  C146     1.0000 0.86167  0.47128  0.74620  Biso   1.000  C
  C147     1.0000 0.83266  0.45774  0.81460  Biso   1.000  C
  H60      1.0000 0.83890  0.44580  0.88300  Biso   1.000  H
  C148     1.0000 0.79453  0.46162  0.78320  Biso   1.000  C
  H61      1.0000 0.77470  0.45240  0.83010  Biso   1.000  H
  C149     1.0000 0.78538  0.47905  0.68320  Biso   1.000  C
  C150     1.0000 0.81439  0.49259  0.61470  Biso   1.000  C
  C151     1.0000 0.85252  0.48870  0.64620  Biso   1.000  C
  H62      1.0000 0.87230  0.49800  0.59930  Biso   1.000  H
  C152     1.0000 0.80430  0.50990  0.51530  Biso   1.000  C
  F76      1.0000 0.83300  0.51850  0.44750  Biso   1.000  F
  F77      1.0000 0.79000  0.54720  0.53470  Biso   1.000  F
  F78      1.0000 0.77730  0.49660  0.44970  Biso   1.000  F
  H63      1.0000 0.73900  0.53680  0.70870  Biso   1.000  H
  C153     1.0000 0.73780  0.41220  0.60270  Biso   1.000  C
  F79      1.0000 0.74840  0.39040  0.68050  Biso   1.000  F
  F80      1.0000 0.77010  0.41510  0.53930  Biso   1.000  F
  F81      1.0000 0.71770  0.38820  0.53530  Biso   1.000  F
  O55      1.0000 0.89455  0.03941  0.57060  Biso   1.000  O
  O56      1.0000 0.89537  0.97880  0.63190  Biso   1.000  O
  O57      1.0000 0.57391  0.00773  0.74010  Biso   1.000  O
  O58      1.0000 0.59060  0.05443  0.86210  Biso   1.000  O
  O59      1.0000 0.94070  0.98970  0.45710  Biso   1.000  O
  O60      1.0000 0.98595  0.03520  0.35950  Biso   1.000  O
  C154     1.0000 0.87852  0.01010  0.60980  Biso   1.000  C
  C155     1.0000 0.83588  0.01221  0.62950  Biso   1.000  C
  C156     1.0000 0.81775  0.04699  0.60920  Biso   1.000  C
  H64      1.0000 0.83220  0.06830  0.58390  Biso   1.000  H
  C157     1.0000 0.75734  0.01930  0.66300  Biso   1.000  C
  C158     1.0000 0.81474  0.98098  0.66660  Biso   1.000  C
  H65      1.0000 0.82710  0.95720  0.68050  Biso   1.000  H
  C159     1.0000 0.77848  0.05054  0.62600  Biso   1.000  C
  H66      1.0000 0.76610  0.07430  0.61210  Biso   1.000  H
  C160     1.0000 0.77547  0.98451  0.68340  Biso   1.000  C
  C161     1.0000 0.75690  0.94760  0.72400  Biso   1.000  C
  F82      1.0000 0.73240  0.94950  0.81030  Biso   1.000  F
  F83      1.0000 0.77950  0.91760  0.75000  Biso   1.000  F
  F84      1.0000 0.73420  0.93280  0.64210  Biso   1.000  F
  C162     1.0000 0.59713  0.03319  0.78170  Biso   1.000  C
  C163     1.0000 0.63833  0.02872  0.74620  Biso   1.000  C
  C164     1.0000 0.66734  0.04226  0.81460  Biso   1.000  C
  H67      1.0000 0.66110  0.05420  0.88300  Biso   1.000  H
  C165     1.0000 0.70547  0.03838  0.78320  Biso   1.000  C
  H68      1.0000 0.72530  0.04760  0.83010  Biso   1.000  H
  C166     1.0000 0.71462  0.02095  0.68320  Biso   1.000  C
  C167     1.0000 0.68561  0.00741  0.61470  Biso   1.000  C
  C168     1.0000 0.64748  0.01130  0.64620  Biso   1.000  C
  H69      1.0000 0.62770  0.00200  0.59930  Biso   1.000  H
  C169     1.0000 0.69570  0.99010  0.51530  Biso   1.000  C
  F85      1.0000 0.66700  0.98150  0.44750  Biso   1.000  F
  F86      1.0000 0.71000  0.95280  0.53470  Biso   1.000  F
  F87      1.0000 0.72270  0.00340  0.44970  Biso   1.000  F
  H70      1.0000 0.76100  0.96320  0.70870  Biso   1.000  H
  C170     1.0000 0.76220  0.08780  0.60270  Biso   1.000  C
  F88      1.0000 0.75160  0.10960  0.68050  Biso   1.000  F
  F89      1.0000 0.72990  0.08490  0.53930  Biso   1.000  F
  F90      1.0000 0.78230  0.11180  0.53530  Biso   1.000  F
  O61      1.0000 0.03941  0.60545  0.07060  Biso   1.000  O
  O62      1.0000 0.97880  0.60463  0.13190  Biso   1.000  O
  O63      1.0000 0.00773  0.92609  0.24010  Biso   1.000  O
  O64      1.0000 0.05443  0.90940  0.36210  Biso   1.000  O
  O65      1.0000 0.98970  0.55930  0.95710  Biso   1.000  O
  O66      1.0000 0.03520  0.51405  0.85950  Biso   1.000  O
  C171     1.0000 0.01010  0.62148  0.10980  Biso   1.000  C
  C172     1.0000 0.01221  0.66412  0.12950  Biso   1.000  C
  C173     1.0000 0.04699  0.68225  0.10920  Biso   1.000  C
  H71      1.0000 0.06830  0.66780  0.08390  Biso   1.000  H
  C174     1.0000 0.01930  0.74266  0.16300  Biso   1.000  C
  C175     1.0000 0.98098  0.68526  0.16660  Biso   1.000  C
  H72      1.0000 0.95720  0.67290  0.18050  Biso   1.000  H
  C176     1.0000 0.05054  0.72152  0.12600  Biso   1.000  C
  H73      1.0000 0.07430  0.73390  0.11210  Biso   1.000  H
  C177     1.0000 0.98451  0.72453  0.18340  Biso   1.000  C
  C178     1.0000 0.94760  0.74310  0.22400  Biso   1.000  C
  F91      1.0000 0.94950  0.76760  0.31030  Biso   1.000  F
  F92      1.0000 0.91760  0.72050  0.25000  Biso   1.000  F
  F93      1.0000 0.93280  0.76580  0.14210  Biso   1.000  F
  C179     1.0000 0.03319  0.90287  0.28170  Biso   1.000  C
  C180     1.0000 0.02872  0.86167  0.24620  Biso   1.000  C
  C181     1.0000 0.04226  0.83266  0.31460  Biso   1.000  C
  H74      1.0000 0.05420  0.83890  0.38300  Biso   1.000  H
  C182     1.0000 0.03838  0.79453  0.28320  Biso   1.000  C
  H75      1.0000 0.04760  0.77470  0.33010  Biso   1.000  H
  C183     1.0000 0.02095  0.78538  0.18320  Biso   1.000  C
  C184     1.0000 0.00741  0.81439  0.11470  Biso   1.000  C
  C185     1.0000 0.01130  0.85252  0.14620  Biso   1.000  C
  H76      1.0000 0.00200  0.87230  0.09930  Biso   1.000  H
  C186     1.0000 0.99010  0.80430  0.01530  Biso   1.000  C
  F94      1.0000 0.98150  0.83300  0.94750  Biso   1.000  F
  F95      1.0000 0.95280  0.79000  0.03470  Biso   1.000  F
  F96      1.0000 0.00340  0.77730  0.94970  Biso   1.000  F
  H77      1.0000 0.96320  0.73900  0.20870  Biso   1.000  H
  C187     1.0000 0.08780  0.73780  0.10270  Biso   1.000  C
  F97      1.0000 0.10960  0.74840  0.18050  Biso   1.000  F
  F98      1.0000 0.08490  0.77010  0.03930  Biso   1.000  F
  F99      1.0000 0.11180  0.71770  0.03530  Biso   1.000  F
  O67      1.0000 0.46059  0.89455  0.07060  Biso   1.000  O
  O68      1.0000 0.52120  0.89537  0.13190  Biso   1.000  O
  O69      1.0000 0.49227  0.57391  0.24010  Biso   1.000  O
  O70      1.0000 0.44557  0.59060  0.36210  Biso   1.000  O
  O71      1.0000 0.51030  0.94070  0.95710  Biso   1.000  O
  O72      1.0000 0.46480  0.98595  0.85950  Biso   1.000  O
  C188     1.0000 0.48990  0.87852  0.10980  Biso   1.000  C
  C189     1.0000 0.48779  0.83588  0.12950  Biso   1.000  C
  C190     1.0000 0.45301  0.81775  0.10920  Biso   1.000  C
  H78      1.0000 0.43170  0.83220  0.08390  Biso   1.000  H
  C191     1.0000 0.48070  0.75734  0.16300  Biso   1.000  C
  C192     1.0000 0.51902  0.81474  0.16660  Biso   1.000  C
  H79      1.0000 0.54280  0.82710  0.18050  Biso   1.000  H
  C193     1.0000 0.44946  0.77848  0.12600  Biso   1.000  C
  H80      1.0000 0.42570  0.76610  0.11210  Biso   1.000  H
  C194     1.0000 0.51549  0.77547  0.18340  Biso   1.000  C
  C195     1.0000 0.55240  0.75690  0.22400  Biso   1.000  C
  F100     1.0000 0.55050  0.73240  0.31030  Biso   1.000  F
  F101     1.0000 0.58240  0.77950  0.25000  Biso   1.000  F
  F102     1.0000 0.56720  0.73420  0.14210  Biso   1.000  F
  C196     1.0000 0.46681  0.59713  0.28170  Biso   1.000  C
  C197     1.0000 0.47128  0.63833  0.24620  Biso   1.000  C
  C198     1.0000 0.45774  0.66734  0.31460  Biso   1.000  C
  H81      1.0000 0.44580  0.66110  0.38300  Biso   1.000  H
  C199     1.0000 0.46162  0.70547  0.28320  Biso   1.000  C
  H82      1.0000 0.45240  0.72530  0.33010  Biso   1.000  H
  C200     1.0000 0.47905  0.71462  0.18320  Biso   1.000  C
  C201     1.0000 0.49259  0.68561  0.11470  Biso   1.000  C
  C202     1.0000 0.48870  0.64748  0.14620  Biso   1.000  C
  H83      1.0000 0.49800  0.62770  0.09930  Biso   1.000  H
  C203     1.0000 0.50990  0.69570  0.01530  Biso   1.000  C
  F103     1.0000 0.51850  0.66700  0.94750  Biso   1.000  F
  F104     1.0000 0.54720  0.71000  0.03470  Biso   1.000  F
  F105     1.0000 0.49660  0.72270  0.94970  Biso   1.000  F
  H84      1.0000 0.53680  0.76100  0.20870  Biso   1.000  H
  C204     1.0000 0.41220  0.76220  0.10270  Biso   1.000  C
  F106     1.0000 0.39040  0.75160  0.18050  Biso   1.000  F
  F107     1.0000 0.41510  0.72990  0.03930  Biso   1.000  F
  F108     1.0000 0.38820  0.78230  0.03530  Biso   1.000  F
  O73      1.0000 0.39455  0.96059  0.92940  Biso   1.000  O
  O74      1.0000 0.39537  0.02120  0.86810  Biso   1.000  O
  O75      1.0000 0.07391  0.99227  0.75990  Biso   1.000  O
  O76      1.0000 0.09060  0.94557  0.63790  Biso   1.000  O
  O77      1.0000 0.44070  0.01030  0.04290  Biso   1.000  O
  O78      1.0000 0.48595  0.96480  0.14050  Biso   1.000  O
  C205     1.0000 0.37852  0.98990  0.89020  Biso   1.000  C
  C206     1.0000 0.33588  0.98779  0.87050  Biso   1.000  C
  C207     1.0000 0.31775  0.95301  0.89080  Biso   1.000  C
  H85      1.0000 0.33220  0.93170  0.91610  Biso   1.000  H
  C208     1.0000 0.25734  0.98070  0.83700  Biso   1.000  C
  C209     1.0000 0.31474  0.01902  0.83340  Biso   1.000  C
  H86      1.0000 0.32710  0.04280  0.81950  Biso   1.000  H
  C210     1.0000 0.27848  0.94946  0.87400  Biso   1.000  C
  H87      1.0000 0.26610  0.92570  0.88790  Biso   1.000  H
  C211     1.0000 0.27547  0.01549  0.81660  Biso   1.000  C
  C212     1.0000 0.25690  0.05240  0.77600  Biso   1.000  C
  F109     1.0000 0.23240  0.05050  0.68970  Biso   1.000  F
  F110     1.0000 0.27950  0.08240  0.75000  Biso   1.000  F
  F111     1.0000 0.23420  0.06720  0.85790  Biso   1.000  F
  C213     1.0000 0.09713  0.96681  0.71830  Biso   1.000  C
  C214     1.0000 0.13833  0.97128  0.75380  Biso   1.000  C
  C215     1.0000 0.16734  0.95774  0.68540  Biso   1.000  C
  H88      1.0000 0.16110  0.94580  0.61700  Biso   1.000  H
  C216     1.0000 0.20547  0.96162  0.71680  Biso   1.000  C
  H89      1.0000 0.22530  0.95240  0.66990  Biso   1.000  H
  C217     1.0000 0.21462  0.97905  0.81680  Biso   1.000  C
  C218     1.0000 0.18561  0.99259  0.88530  Biso   1.000  C
  C219     1.0000 0.14748  0.98870  0.85380  Biso   1.000  C
  H90      1.0000 0.12770  0.99800  0.90070  Biso   1.000  H
  C220     1.0000 0.19570  0.00990  0.98470  Biso   1.000  C
  F112     1.0000 0.16700  0.01850  0.05250  Biso   1.000  F
  F113     1.0000 0.21000  0.04720  0.96530  Biso   1.000  F
  F114     1.0000 0.22270  0.99660  0.05030  Biso   1.000  F
  H91      1.0000 0.26100  0.03680  0.79130  Biso   1.000  H
  C221     1.0000 0.26220  0.91220  0.89730  Biso   1.000  C
  F115     1.0000 0.25160  0.89040  0.81950  Biso   1.000  F
  F116     1.0000 0.22990  0.91510  0.96070  Biso   1.000  F
  F117     1.0000 0.28230  0.88820  0.96470  Biso   1.000  F
  O79      1.0000 0.10545  0.53941  0.92940  Biso   1.000  O
  O80      1.0000 0.10463  0.47880  0.86810  Biso   1.000  O
  O81      1.0000 0.42609  0.50773  0.75990  Biso   1.000  O
  O82      1.0000 0.40940  0.55443  0.63790  Biso   1.000  O
  O83      1.0000 0.05930  0.48970  0.04290  Biso   1.000  O
  O84      1.0000 0.01405  0.53520  0.14050  Biso   1.000  O
  C222     1.0000 0.12148  0.51010  0.89020  Biso   1.000  C
  C223     1.0000 0.16412  0.51221  0.87050  Biso   1.000  C
  C224     1.0000 0.18225  0.54699  0.89080  Biso   1.000  C
  H92      1.0000 0.16780  0.56830  0.91610  Biso   1.000  H
  C225     1.0000 0.24266  0.51930  0.83700  Biso   1.000  C
  C226     1.0000 0.18526  0.48098  0.83340  Biso   1.000  C
  H93      1.0000 0.17290  0.45720  0.81950  Biso   1.000  H
  C227     1.0000 0.22152  0.55054  0.87400  Biso   1.000  C
  H94      1.0000 0.23390  0.57430  0.88790  Biso   1.000  H
  C228     1.0000 0.22453  0.48451  0.81660  Biso   1.000  C
  C229     1.0000 0.24310  0.44760  0.77600  Biso   1.000  C
  F118     1.0000 0.26760  0.44950  0.68970  Biso   1.000  F
  F119     1.0000 0.22050  0.41760  0.75000  Biso   1.000  F
  F120     1.0000 0.26580  0.43280  0.85790  Biso   1.000  F
  C230     1.0000 0.40287  0.53319  0.71830  Biso   1.000  C
  C231     1.0000 0.36167  0.52872  0.75380  Biso   1.000  C
  C232     1.0000 0.33266  0.54226  0.68540  Biso   1.000  C
  H95      1.0000 0.33890  0.55420  0.61700  Biso   1.000  H
  C233     1.0000 0.29453  0.53838  0.71680  Biso   1.000  C
  H96      1.0000 0.27470  0.54760  0.66990  Biso   1.000  H
  C234     1.0000 0.28538  0.52095  0.81680  Biso   1.000  C
  C235     1.0000 0.31439  0.50741  0.88530  Biso   1.000  C
  C236     1.0000 0.35252  0.51130  0.85380  Biso   1.000  C
  H97      1.0000 0.37230  0.50200  0.90070  Biso   1.000  H
  C237     1.0000 0.30430  0.49010  0.98470  Biso   1.000  C
  F121     1.0000 0.33300  0.48150  0.05250  Biso   1.000  F
  F122     1.0000 0.29000  0.45280  0.96530  Biso   1.000  F
  F123     1.0000 0.27730  0.50340  0.05030  Biso   1.000  F
  H98      1.0000 0.23900  0.46320  0.79130  Biso   1.000  H
  C238     1.0000 0.23780  0.58780  0.89730  Biso   1.000  C
  F124     1.0000 0.24840  0.60960  0.81950  Biso   1.000  F
  F125     1.0000 0.27010  0.58490  0.96070  Biso   1.000  F
  F126     1.0000 0.21770  0.61180  0.96470  Biso   1.000  F
  O85      1.0000 0.96059  0.10545  0.42940  Biso   1.000  O
  O86      1.0000 0.02120  0.10463  0.36810  Biso   1.000  O
  O87      1.0000 0.99227  0.42609  0.25990  Biso   1.000  O
  O88      1.0000 0.94557  0.40940  0.13790  Biso   1.000  O
  O89      1.0000 0.01030  0.05930  0.54290  Biso   1.000  O
  O90      1.0000 0.96480  0.01405  0.64050  Biso   1.000  O
  C239     1.0000 0.98990  0.12148  0.39020  Biso   1.000  C
  C240     1.0000 0.98779  0.16412  0.37050  Biso   1.000  C
  C241     1.0000 0.95301  0.18225  0.39080  Biso   1.000  C
  H99      1.0000 0.93170  0.16780  0.41610  Biso   1.000  H
  C242     1.0000 0.98070  0.24266  0.33700  Biso   1.000  C
  C243     1.0000 0.01902  0.18526  0.33340  Biso   1.000  C
  H100     1.0000 0.04280  0.17290  0.31950  Biso   1.000  H
  C244     1.0000 0.94946  0.22152  0.37400  Biso   1.000  C
  H101     1.0000 0.92570  0.23390  0.38790  Biso   1.000  H
  C245     1.0000 0.01549  0.22453  0.31660  Biso   1.000  C
  C246     1.0000 0.05240  0.24310  0.27600  Biso   1.000  C
  F127     1.0000 0.05050  0.26760  0.18970  Biso   1.000  F
  F128     1.0000 0.08240  0.22050  0.25000  Biso   1.000  F
  F129     1.0000 0.06720  0.26580  0.35790  Biso   1.000  F
  C247     1.0000 0.96681  0.40287  0.21830  Biso   1.000  C
  C248     1.0000 0.97128  0.36167  0.25380  Biso   1.000  C
  C249     1.0000 0.95774  0.33266  0.18540  Biso   1.000  C
  H102     1.0000 0.94580  0.33890  0.11700  Biso   1.000  H
  C250     1.0000 0.96162  0.29453  0.21680  Biso   1.000  C
  H103     1.0000 0.95240  0.27470  0.16990  Biso   1.000  H
  C251     1.0000 0.97905  0.28538  0.31680  Biso   1.000  C
  C252     1.0000 0.99259  0.31439  0.38530  Biso   1.000  C
  C253     1.0000 0.98870  0.35252  0.35380  Biso   1.000  C
  H104     1.0000 0.99800  0.37230  0.40070  Biso   1.000  H
  C254     1.0000 0.00990  0.30430  0.48470  Biso   1.000  C
  F130     1.0000 0.01850  0.33300  0.55250  Biso   1.000  F
  F131     1.0000 0.04720  0.29000  0.46530  Biso   1.000  F
  F132     1.0000 0.99660  0.27730  0.55030  Biso   1.000  F
  H105     1.0000 0.03680  0.23900  0.29130  Biso   1.000  H
  C255     1.0000 0.91220  0.23780  0.39730  Biso   1.000  C
  F133     1.0000 0.89040  0.24840  0.31950  Biso   1.000  F
  F134     1.0000 0.91510  0.27010  0.46070  Biso   1.000  F
  F135     1.0000 0.88820  0.21770  0.46470  Biso   1.000  F
  O91      1.0000 0.53941  0.39455  0.42940  Biso   1.000  O
  O92      1.0000 0.47880  0.39537  0.36810  Biso   1.000  O
  O93      1.0000 0.50773  0.07391  0.25990  Biso   1.000  O
  O94      1.0000 0.55443  0.09060  0.13790  Biso   1.000  O
  O95      1.0000 0.48970  0.44070  0.54290  Biso   1.000  O
  O96      1.0000 0.53520  0.48595  0.64050  Biso   1.000  O
  C256     1.0000 0.51010  0.37852  0.39020  Biso   1.000  C
  C257     1.0000 0.51221  0.33588  0.37050  Biso   1.000  C
  C258     1.0000 0.54699  0.31775  0.39080  Biso   1.000  C
  H106     1.0000 0.56830  0.33220  0.41610  Biso   1.000  H
  C259     1.0000 0.51930  0.25734  0.33700  Biso   1.000  C
  C260     1.0000 0.48098  0.31474  0.33340  Biso   1.000  C
  H107     1.0000 0.45720  0.32710  0.31950  Biso   1.000  H
  C261     1.0000 0.55054  0.27848  0.37400  Biso   1.000  C
  H108     1.0000 0.57430  0.26610  0.38790  Biso   1.000  H
  C262     1.0000 0.48451  0.27547  0.31660  Biso   1.000  C
  C263     1.0000 0.44760  0.25690  0.27600  Biso   1.000  C
  F136     1.0000 0.44950  0.23240  0.18970  Biso   1.000  F
  F137     1.0000 0.41760  0.27950  0.25000  Biso   1.000  F
  F138     1.0000 0.43280  0.23420  0.35790  Biso   1.000  F
  C264     1.0000 0.53319  0.09713  0.21830  Biso   1.000  C
  C265     1.0000 0.52872  0.13833  0.25380  Biso   1.000  C
  C266     1.0000 0.54226  0.16734  0.18540  Biso   1.000  C
  H109     1.0000 0.55420  0.16110  0.11700  Biso   1.000  H
  C267     1.0000 0.53838  0.20547  0.21680  Biso   1.000  C
  H110     1.0000 0.54760  0.22530  0.16990  Biso   1.000  H
  C268     1.0000 0.52095  0.21462  0.31680  Biso   1.000  C
  C269     1.0000 0.50741  0.18561  0.38530  Biso   1.000  C
  C270     1.0000 0.51130  0.14748  0.35380  Biso   1.000  C
  H111     1.0000 0.50200  0.12770  0.40070  Biso   1.000  H
  C271     1.0000 0.49010  0.19570  0.48470  Biso   1.000  C
  F139     1.0000 0.48150  0.16700  0.55250  Biso   1.000  F
  F140     1.0000 0.45280  0.21000  0.46530  Biso   1.000  F
  F141     1.0000 0.50340  0.22270  0.55030  Biso   1.000  F
  H112     1.0000 0.46320  0.26100  0.29130  Biso   1.000  H
  C272     1.0000 0.58780  0.26220  0.39730  Biso   1.000  C
  F142     1.0000 0.60960  0.25160  0.31950  Biso   1.000  F
  F143     1.0000 0.58490  0.22990  0.46070  Biso   1.000  F
  F144     1.0000 0.61180  0.28230  0.46470  Biso   1.000  F
  Zr1      1.0000 0.45499  0.45499  0.40580  Biso   1.000  Zr
  Zr2      1.0000 0.47683  0.47683  0.68375  Biso   1.000  Zr
  Zr3      1.0000 0.04501  0.04501  0.40580  Biso   1.000  Zr
  Zr4      1.0000 0.02317  0.02317  0.68375  Biso   1.000  Zr
  Zr5      1.0000 0.04501  0.45499  0.90580  Biso   1.000  Zr
  Zr6      1.0000 0.02317  0.47683  0.18375  Biso   1.000  Zr
  Zr7      1.0000 0.45499  0.04501  0.90580  Biso   1.000  Zr
  Zr8      1.0000 0.47683  0.02317  0.18375  Biso   1.000  Zr
  Zr9      1.0000 0.54501  0.95499  0.09420  Biso   1.000  Zr
  Zr10     1.0000 0.52317  0.97683  0.81625  Biso   1.000  Zr
  Zr11     1.0000 0.95499  0.54501  0.09420  Biso   1.000  Zr
  Zr12     1.0000 0.97683  0.52317  0.81625  Biso   1.000  Zr
  Zr13     1.0000 0.95499  0.95499  0.59420  Biso   1.000  Zr
  Zr14     1.0000 0.97683  0.97683  0.31625  Biso   1.000  Zr
  Zr15     1.0000 0.54501  0.54501  0.59420  Biso   1.000  Zr
  Zr16     1.0000 0.52317  0.52317  0.31625  Biso   1.000  Zr
  Zr17     1.0000 0.45021  0.54979  0.50000  Biso   1.000  Zr
  Zr18     1.0000 0.04979  0.95021  0.50000  Biso   1.000  Zr
  Zr19     1.0000 0.95021  0.45021  0.00000  Biso   1.000  Zr
  Zr20     1.0000 0.54979  0.04979  0.00000  Biso   1.000  Zr
  Zr21     1.0000 0.54979  0.45021  0.50000  Biso   1.000  Zr
  Zr22     1.0000 0.95021  0.04979  0.50000  Biso   1.000  Zr
  Zr23     1.0000 0.04979  0.54979  0.00000  Biso   1.000  Zr
  Zr24     1.0000 0.45021  0.95021  0.00000  Biso   1.000  Zr
