data_image0
_cell_length_a       29.9011
_cell_length_b       29.9011
_cell_length_c       11.7415
_cell_angle_alpha    90
_cell_angle_beta     90
_cell_angle_gamma    120

_symmetry_space_group_name_H-M    "P 1"
_symmetry_int_tables_number       1

loop_
  _symmetry_equiv_pos_as_xyz
  'x, y, z'

loop_
  _atom_site_label
  _atom_site_occupancy
  _atom_site_fract_x
  _atom_site_fract_y
  _atom_site_fract_z
  _atom_site_thermal_displace_type
  _atom_site_B_iso_or_equiv
  _atom_site_type_symbol
  Ag1      1.0000 0.07485  0.72246  0.57835  Biso   1.000  Ag
  C1       1.0000 0.10099  0.64835  0.38860  Biso   1.000  C
  C2       1.0000 0.11554  0.61963  0.30050  Biso   1.000  C
  H1       1.0000 0.14490  0.64490  0.25370  Biso   1.000  H
  H2       1.0000 0.12640  0.59740  0.34030  Biso   1.000  H
  C3       1.0000 0.08392  0.55629  0.15960  Biso   1.000  C
  H3       1.0000 0.08810  0.53150  0.20800  Biso   1.000  H
  H4       1.0000 0.11650  0.57750  0.11740  Biso   1.000  H
  C4       1.0000 0.04025  0.52746  0.07710  Biso   1.000  C
  C5       1.0000 0.05042  0.52685  0.96180  Biso   1.000  C
  H5       1.0000 0.08500  0.54530  0.93480  Biso   1.000  H
  C6       1.0000 0.98950  0.50052  0.11380  Biso   1.000  C
  H6       1.0000 0.98200  0.50090  0.19230  Biso   1.000  H
  C7       1.0000 0.19030  0.67619  0.46640  Biso   1.000  C
  H7       1.0000 0.20130  0.65980  0.41310  Biso   1.000  H
  C8       1.0000 0.21726  0.70428  0.55750  Biso   1.000  C
  H8       1.0000 0.25070  0.71180  0.58100  Biso   1.000  H
  C9       1.0000 0.18571  0.71978  0.60930  Biso   1.000  C
  H9       1.0000 0.19470  0.74030  0.67630  Biso   1.000  H
  C10      1.0000 0.08730  0.69278  0.22030  Biso   1.000  C
  H10      1.0000 0.10180  0.68220  0.16150  Biso   1.000  H
  C11      1.0000 0.06349  0.72081  0.20740  Biso   1.000  C
  H11      1.0000 0.05790  0.73380  0.13830  Biso   1.000  H
  C12      1.0000 0.04883  0.72671  0.31620  Biso   1.000  C
  H12      1.0000 0.03150  0.74520  0.33300  Biso   1.000  H
  C13      1.0000 0.05768  0.59087  0.56010  Biso   1.000  C
  H13      1.0000 0.08740  0.59900  0.60430  Biso   1.000  H
  C14      1.0000 0.00793  0.55653  0.58770  Biso   1.000  C
  H14      1.0000 0.99580  0.53590  0.65440  Biso   1.000  H
  C15      1.0000 0.97844  0.55800  0.49780  Biso   1.000  C
  H15      1.0000 0.94190  0.53800  0.49390  Biso   1.000  H
  N1       1.0000 0.14170  0.70266  0.55450  Biso   1.000  N
  N2       1.0000 0.14484  0.67555  0.46480  Biso   1.000  N
  N3       1.0000 0.06208  0.70331  0.39310  Biso   1.000  N
  N4       1.0000 0.08660  0.68256  0.33380  Biso   1.000  N
  N5       1.0000 0.00803  0.59096  0.41850  Biso   1.000  N
  N6       1.0000 0.05683  0.61128  0.45782  Biso   1.000  N
  O1       1.0000 0.07277  0.58898  0.22956  Biso   1.000  O
  Ag2      1.0000 0.74152  0.05580  0.91168  Biso   1.000  Ag
  C16      1.0000 0.76766  0.98168  0.72193  Biso   1.000  C
  C17      1.0000 0.78221  0.95296  0.63383  Biso   1.000  C
  H16      1.0000 0.81157  0.97823  0.58703  Biso   1.000  H
  H17      1.0000 0.79307  0.93073  0.67363  Biso   1.000  H
  C18      1.0000 0.75059  0.88962  0.49293  Biso   1.000  C
  H18      1.0000 0.75477  0.86483  0.54133  Biso   1.000  H
  H19      1.0000 0.78317  0.91083  0.45073  Biso   1.000  H
  C19      1.0000 0.70692  0.86079  0.41043  Biso   1.000  C
  C20      1.0000 0.71709  0.86018  0.29513  Biso   1.000  C
  H20      1.0000 0.75167  0.87863  0.26813  Biso   1.000  H
  C21      1.0000 0.65617  0.83385  0.44713  Biso   1.000  C
  H21      1.0000 0.64867  0.83423  0.52563  Biso   1.000  H
  C22      1.0000 0.85697  0.00952  0.79973  Biso   1.000  C
  H22      1.0000 0.86797  0.99313  0.74643  Biso   1.000  H
  C23      1.0000 0.88393  0.03761  0.89083  Biso   1.000  C
  H23      1.0000 0.91737  0.04513  0.91433  Biso   1.000  H
  C24      1.0000 0.85238  0.05311  0.94263  Biso   1.000  C
  H24      1.0000 0.86137  0.07363  0.00963  Biso   1.000  H
  C25      1.0000 0.75397  0.02611  0.55363  Biso   1.000  C
  H25      1.0000 0.76847  0.01553  0.49483  Biso   1.000  H
  C26      1.0000 0.73016  0.05414  0.54073  Biso   1.000  C
  H26      1.0000 0.72457  0.06713  0.47163  Biso   1.000  H
  C27      1.0000 0.71550  0.06004  0.64953  Biso   1.000  C
  H27      1.0000 0.69817  0.07853  0.66633  Biso   1.000  H
  C28      1.0000 0.72435  0.92420  0.89343  Biso   1.000  C
  H28      1.0000 0.75407  0.93233  0.93763  Biso   1.000  H
  C29      1.0000 0.67460  0.88986  0.92103  Biso   1.000  C
  H29      1.0000 0.66247  0.86923  0.98773  Biso   1.000  H
  C30      1.0000 0.64511  0.89133  0.83113  Biso   1.000  C
  H30      1.0000 0.60857  0.87133  0.82723  Biso   1.000  H
  N7       1.0000 0.80837  0.03599  0.88783  Biso   1.000  N
  N8       1.0000 0.81151  0.00888  0.79813  Biso   1.000  N
  N9       1.0000 0.72875  0.03664  0.72643  Biso   1.000  N
  N10      1.0000 0.75327  0.01589  0.66713  Biso   1.000  N
  N11      1.0000 0.67470  0.92429  0.75183  Biso   1.000  N
  N12      1.0000 0.72350  0.94461  0.79115  Biso   1.000  N
  O2       1.0000 0.73944  0.92231  0.56289  Biso   1.000  O
  Ag3      1.0000 0.40819  0.38913  0.24502  Biso   1.000  Ag
  C31      1.0000 0.43432  0.31502  0.05527  Biso   1.000  C
  C32      1.0000 0.44887  0.28630  0.96717  Biso   1.000  C
  H31      1.0000 0.47823  0.31157  0.92037  Biso   1.000  H
  H32      1.0000 0.45973  0.26407  0.00697  Biso   1.000  H
  C33      1.0000 0.41725  0.22296  0.82627  Biso   1.000  C
  H33      1.0000 0.42143  0.19817  0.87467  Biso   1.000  H
  H34      1.0000 0.44983  0.24417  0.78407  Biso   1.000  H
  C34      1.0000 0.37358  0.19413  0.74377  Biso   1.000  C
  C35      1.0000 0.38375  0.19352  0.62847  Biso   1.000  C
  H35      1.0000 0.41833  0.21197  0.60147  Biso   1.000  H
  C36      1.0000 0.32283  0.16719  0.78047  Biso   1.000  C
  H36      1.0000 0.31533  0.16757  0.85897  Biso   1.000  H
  C37      1.0000 0.52363  0.34286  0.13307  Biso   1.000  C
  H37      1.0000 0.53463  0.32647  0.07977  Biso   1.000  H
  C38      1.0000 0.55059  0.37095  0.22417  Biso   1.000  C
  H38      1.0000 0.58403  0.37847  0.24767  Biso   1.000  H
  C39      1.0000 0.51904  0.38645  0.27597  Biso   1.000  C
  H39      1.0000 0.52803  0.40697  0.34297  Biso   1.000  H
  C40      1.0000 0.42063  0.35945  0.88697  Biso   1.000  C
  H40      1.0000 0.43513  0.34887  0.82817  Biso   1.000  H
  C41      1.0000 0.39682  0.38748  0.87407  Biso   1.000  C
  H41      1.0000 0.39123  0.40047  0.80497  Biso   1.000  H
  C42      1.0000 0.38216  0.39338  0.98287  Biso   1.000  C
  H42      1.0000 0.36483  0.41187  0.99967  Biso   1.000  H
  C43      1.0000 0.39101  0.25754  0.22677  Biso   1.000  C
  H43      1.0000 0.42073  0.26567  0.27097  Biso   1.000  H
  C44      1.0000 0.34126  0.22320  0.25437  Biso   1.000  C
  H44      1.0000 0.32913  0.20257  0.32107  Biso   1.000  H
  C45      1.0000 0.31177  0.22467  0.16447  Biso   1.000  C
  H45      1.0000 0.27523  0.20467  0.16057  Biso   1.000  H
  N13      1.0000 0.47503  0.36933  0.22117  Biso   1.000  N
  N14      1.0000 0.47817  0.34222  0.13147  Biso   1.000  N
  N15      1.0000 0.39541  0.36998  0.05977  Biso   1.000  N
  N16      1.0000 0.41993  0.34923  0.00047  Biso   1.000  N
  N17      1.0000 0.34136  0.25763  0.08517  Biso   1.000  N
  N18      1.0000 0.39016  0.27795  0.12449  Biso   1.000  N
  O3       1.0000 0.40610  0.25565  0.89623  Biso   1.000  O
  Ag4      1.0000 0.27754  0.35239  0.57835  Biso   1.000  Ag
  C46      1.0000 0.35165  0.45264  0.38860  Biso   1.000  C
  C47      1.0000 0.38037  0.49591  0.30050  Biso   1.000  C
  H46      1.0000 0.35510  0.50000  0.25370  Biso   1.000  H
  H47      1.0000 0.40260  0.52900  0.34030  Biso   1.000  H
  C48      1.0000 0.44371  0.52763  0.15960  Biso   1.000  C
  H48      1.0000 0.46850  0.55660  0.20800  Biso   1.000  H
  H49      1.0000 0.42250  0.53900  0.11740  Biso   1.000  H
  C49      1.0000 0.47254  0.51279  0.07710  Biso   1.000  C
  C50      1.0000 0.47315  0.52357  0.96180  Biso   1.000  C
  H50      1.0000 0.45470  0.53970  0.93480  Biso   1.000  H
  C51      1.0000 0.49948  0.48898  0.11380  Biso   1.000  C
  H51      1.0000 0.49910  0.48110  0.19230  Biso   1.000  H
  C52      1.0000 0.32381  0.51411  0.46640  Biso   1.000  C
  H52      1.0000 0.34020  0.54150  0.41310  Biso   1.000  H
  C53      1.0000 0.29572  0.51298  0.55750  Biso   1.000  C
  H53      1.0000 0.28820  0.53890  0.58100  Biso   1.000  H
  C54      1.0000 0.28022  0.46593  0.60930  Biso   1.000  C
  H54      1.0000 0.25970  0.45440  0.67630  Biso   1.000  H
  C55      1.0000 0.30722  0.39452  0.22030  Biso   1.000  C
  H55      1.0000 0.31780  0.41960  0.16150  Biso   1.000  H
  C56      1.0000 0.27919  0.34268  0.20740  Biso   1.000  C
  H56      1.0000 0.26620  0.32410  0.13830  Biso   1.000  H
  C57      1.0000 0.27329  0.32212  0.31620  Biso   1.000  C
  H57      1.0000 0.25480  0.28630  0.33300  Biso   1.000  H
  C58      1.0000 0.40913  0.46681  0.56010  Biso   1.000  C
  H58      1.0000 0.40100  0.48840  0.60430  Biso   1.000  H
  C59      1.0000 0.44347  0.45140  0.58770  Biso   1.000  C
  H59      1.0000 0.46410  0.45990  0.65440  Biso   1.000  H
  C60      1.0000 0.44200  0.42044  0.49780  Biso   1.000  C
  H60      1.0000 0.46200  0.40390  0.49390  Biso   1.000  H
  N19      1.0000 0.29734  0.43904  0.55450  Biso   1.000  N
  N20      1.0000 0.32445  0.46929  0.46480  Biso   1.000  N
  N21      1.0000 0.29669  0.35877  0.39310  Biso   1.000  N
  N22      1.0000 0.31744  0.40404  0.33380  Biso   1.000  N
  N23      1.0000 0.40904  0.41707  0.41850  Biso   1.000  N
  N24      1.0000 0.38872  0.44555  0.45782  Biso   1.000  N
  O4       1.0000 0.41102  0.48379  0.22956  Biso   1.000  O
  Ag5      1.0000 0.94420  0.68573  0.91168  Biso   1.000  Ag
  C61      1.0000 0.01832  0.78597  0.72193  Biso   1.000  C
  C62      1.0000 0.04704  0.82924  0.63383  Biso   1.000  C
  H61      1.0000 0.02177  0.83333  0.58703  Biso   1.000  H
  H62      1.0000 0.06927  0.86233  0.67363  Biso   1.000  H
  C63      1.0000 0.11038  0.86096  0.49293  Biso   1.000  C
  H63      1.0000 0.13517  0.88993  0.54133  Biso   1.000  H
  H64      1.0000 0.08917  0.87233  0.45073  Biso   1.000  H
  C64      1.0000 0.13921  0.84612  0.41043  Biso   1.000  C
  C65      1.0000 0.13982  0.85690  0.29513  Biso   1.000  C
  H65      1.0000 0.12137  0.87303  0.26813  Biso   1.000  H
  C66      1.0000 0.16615  0.82231  0.44713  Biso   1.000  C
  H66      1.0000 0.16577  0.81443  0.52563  Biso   1.000  H
  C67      1.0000 0.99048  0.84744  0.79973  Biso   1.000  C
  H67      1.0000 0.00687  0.87483  0.74643  Biso   1.000  H
  C68      1.0000 0.96239  0.84631  0.89083  Biso   1.000  C
  H68      1.0000 0.95487  0.87223  0.91433  Biso   1.000  H
  C69      1.0000 0.94689  0.79926  0.94263  Biso   1.000  C
  H69      1.0000 0.92637  0.78773  0.00963  Biso   1.000  H
  C70      1.0000 0.97389  0.72785  0.55363  Biso   1.000  C
  H70      1.0000 0.98447  0.75293  0.49483  Biso   1.000  H
  C71      1.0000 0.94586  0.67601  0.54073  Biso   1.000  C
  H71      1.0000 0.93287  0.65743  0.47163  Biso   1.000  H
  C72      1.0000 0.93996  0.65545  0.64953  Biso   1.000  C
  H72      1.0000 0.92147  0.61963  0.66633  Biso   1.000  H
  C73      1.0000 0.07580  0.80014  0.89343  Biso   1.000  C
  H73      1.0000 0.06767  0.82173  0.93763  Biso   1.000  H
  C74      1.0000 0.11014  0.78473  0.92103  Biso   1.000  C
  H74      1.0000 0.13077  0.79323  0.98773  Biso   1.000  H
  C75      1.0000 0.10867  0.75377  0.83113  Biso   1.000  C
  H75      1.0000 0.12867  0.73723  0.82723  Biso   1.000  H
  N25      1.0000 0.96401  0.77237  0.88783  Biso   1.000  N
  N26      1.0000 0.99112  0.80262  0.79813  Biso   1.000  N
  N27      1.0000 0.96336  0.69210  0.72643  Biso   1.000  N
  N28      1.0000 0.98411  0.73737  0.66713  Biso   1.000  N
  N29      1.0000 0.07571  0.75040  0.75183  Biso   1.000  N
  N30      1.0000 0.05539  0.77888  0.79115  Biso   1.000  N
  O5       1.0000 0.07769  0.81712  0.56289  Biso   1.000  O
  Ag6      1.0000 0.61087  0.01906  0.24502  Biso   1.000  Ag
  C76      1.0000 0.68498  0.11931  0.05527  Biso   1.000  C
  C77      1.0000 0.71370  0.16258  0.96717  Biso   1.000  C
  H76      1.0000 0.68843  0.16667  0.92037  Biso   1.000  H
  H77      1.0000 0.73593  0.19567  0.00697  Biso   1.000  H
  C78      1.0000 0.77704  0.19430  0.82627  Biso   1.000  C
  H78      1.0000 0.80183  0.22327  0.87467  Biso   1.000  H
  H79      1.0000 0.75583  0.20567  0.78407  Biso   1.000  H
  C79      1.0000 0.80587  0.17946  0.74377  Biso   1.000  C
  C80      1.0000 0.80648  0.19024  0.62847  Biso   1.000  C
  H80      1.0000 0.78803  0.20637  0.60147  Biso   1.000  H
  C81      1.0000 0.83281  0.15565  0.78047  Biso   1.000  C
  H81      1.0000 0.83243  0.14777  0.85897  Biso   1.000  H
  C82      1.0000 0.65714  0.18078  0.13307  Biso   1.000  C
  H82      1.0000 0.67353  0.20817  0.07977  Biso   1.000  H
  C83      1.0000 0.62905  0.17965  0.22417  Biso   1.000  C
  H83      1.0000 0.62153  0.20557  0.24767  Biso   1.000  H
  C84      1.0000 0.61355  0.13260  0.27597  Biso   1.000  C
  H84      1.0000 0.59303  0.12107  0.34297  Biso   1.000  H
  C85      1.0000 0.64055  0.06119  0.88697  Biso   1.000  C
  H85      1.0000 0.65113  0.08627  0.82817  Biso   1.000  H
  C86      1.0000 0.61252  0.00935  0.87407  Biso   1.000  C
  H86      1.0000 0.59953  0.99077  0.80497  Biso   1.000  H
  C87      1.0000 0.60662  0.98879  0.98287  Biso   1.000  C
  H87      1.0000 0.58813  0.95297  0.99967  Biso   1.000  H
  C88      1.0000 0.74246  0.13348  0.22677  Biso   1.000  C
  H88      1.0000 0.73433  0.15507  0.27097  Biso   1.000  H
  C89      1.0000 0.77680  0.11807  0.25437  Biso   1.000  C
  H89      1.0000 0.79743  0.12657  0.32107  Biso   1.000  H
  C90      1.0000 0.77533  0.08711  0.16447  Biso   1.000  C
  H90      1.0000 0.79533  0.07057  0.16057  Biso   1.000  H
  N31      1.0000 0.63067  0.10571  0.22117  Biso   1.000  N
  N32      1.0000 0.65778  0.13596  0.13147  Biso   1.000  N
  N33      1.0000 0.63002  0.02544  0.05977  Biso   1.000  N
  N34      1.0000 0.65077  0.07071  0.00047  Biso   1.000  N
  N35      1.0000 0.74237  0.08374  0.08517  Biso   1.000  N
  N36      1.0000 0.72205  0.11222  0.12449  Biso   1.000  N
  O6       1.0000 0.74435  0.15046  0.89623  Biso   1.000  O
  Ag7      1.0000 0.64761  0.92515  0.57835  Biso   1.000  Ag
  C91      1.0000 0.54736  0.89901  0.38860  Biso   1.000  C
  C92      1.0000 0.50409  0.88446  0.30050  Biso   1.000  C
  H91      1.0000 0.50000  0.85510  0.25370  Biso   1.000  H
  H92      1.0000 0.47100  0.87360  0.34030  Biso   1.000  H
  C93      1.0000 0.47237  0.91608  0.15960  Biso   1.000  C
  H93      1.0000 0.44340  0.91190  0.20800  Biso   1.000  H
  H94      1.0000 0.46100  0.88350  0.11740  Biso   1.000  H
  C94      1.0000 0.48721  0.95975  0.07710  Biso   1.000  C
  C95      1.0000 0.47643  0.94958  0.96180  Biso   1.000  C
  H95      1.0000 0.46030  0.91500  0.93480  Biso   1.000  H
  C96      1.0000 0.51102  0.01050  0.11380  Biso   1.000  C
  H96      1.0000 0.51890  0.01800  0.19230  Biso   1.000  H
  C97      1.0000 0.48589  0.80970  0.46640  Biso   1.000  C
  H97      1.0000 0.45850  0.79870  0.41310  Biso   1.000  H
  C98      1.0000 0.48702  0.78274  0.55750  Biso   1.000  C
  H98      1.0000 0.46110  0.74930  0.58100  Biso   1.000  H
  C99      1.0000 0.53407  0.81429  0.60930  Biso   1.000  C
  H99      1.0000 0.54560  0.80530  0.67630  Biso   1.000  H
  C100     1.0000 0.60548  0.91270  0.22030  Biso   1.000  C
  H100     1.0000 0.58040  0.89820  0.16150  Biso   1.000  H
  C101     1.0000 0.65732  0.93651  0.20740  Biso   1.000  C
  H101     1.0000 0.67590  0.94210  0.13830  Biso   1.000  H
  C102     1.0000 0.67788  0.95117  0.31620  Biso   1.000  C
  H102     1.0000 0.71370  0.96850  0.33300  Biso   1.000  H
  C103     1.0000 0.53319  0.94232  0.56010  Biso   1.000  C
  H103     1.0000 0.51160  0.91260  0.60430  Biso   1.000  H
  C104     1.0000 0.54860  0.99207  0.58770  Biso   1.000  C
  H104     1.0000 0.54010  0.00420  0.65440  Biso   1.000  H
  C105     1.0000 0.57956  0.02156  0.49780  Biso   1.000  C
  H105     1.0000 0.59610  0.05810  0.49390  Biso   1.000  H
  N37      1.0000 0.56096  0.85830  0.55450  Biso   1.000  N
  N38      1.0000 0.53071  0.85516  0.46480  Biso   1.000  N
  N39      1.0000 0.64123  0.93792  0.39310  Biso   1.000  N
  N40      1.0000 0.59596  0.91340  0.33380  Biso   1.000  N
  N41      1.0000 0.58293  0.99197  0.41850  Biso   1.000  N
  N42      1.0000 0.55445  0.94317  0.45782  Biso   1.000  N
  O7       1.0000 0.51621  0.92723  0.22956  Biso   1.000  O
  Ag8      1.0000 0.31427  0.25848  0.91168  Biso   1.000  Ag
  C106     1.0000 0.21403  0.23234  0.72193  Biso   1.000  C
  C107     1.0000 0.17076  0.21779  0.63383  Biso   1.000  C
  H106     1.0000 0.16667  0.18843  0.58703  Biso   1.000  H
  H107     1.0000 0.13767  0.20693  0.67363  Biso   1.000  H
  C108     1.0000 0.13904  0.24941  0.49293  Biso   1.000  C
  H108     1.0000 0.11007  0.24523  0.54133  Biso   1.000  H
  H109     1.0000 0.12767  0.21683  0.45073  Biso   1.000  H
  C109     1.0000 0.15388  0.29308  0.41043  Biso   1.000  C
  C110     1.0000 0.14310  0.28291  0.29513  Biso   1.000  C
  H110     1.0000 0.12697  0.24833  0.26813  Biso   1.000  H
  C111     1.0000 0.17769  0.34383  0.44713  Biso   1.000  C
  H111     1.0000 0.18557  0.35133  0.52563  Biso   1.000  H
  C112     1.0000 0.15256  0.14303  0.79973  Biso   1.000  C
  H112     1.0000 0.12517  0.13203  0.74643  Biso   1.000  H
  C113     1.0000 0.15369  0.11607  0.89083  Biso   1.000  C
  H113     1.0000 0.12777  0.08263  0.91433  Biso   1.000  H
  C114     1.0000 0.20074  0.14762  0.94263  Biso   1.000  C
  H114     1.0000 0.21227  0.13863  0.00963  Biso   1.000  H
  C115     1.0000 0.27215  0.24603  0.55363  Biso   1.000  C
  H115     1.0000 0.24707  0.23153  0.49483  Biso   1.000  H
  C116     1.0000 0.32399  0.26984  0.54073  Biso   1.000  C
  H116     1.0000 0.34257  0.27543  0.47163  Biso   1.000  H
  C117     1.0000 0.34455  0.28450  0.64953  Biso   1.000  C
  H117     1.0000 0.38037  0.30183  0.66633  Biso   1.000  H
  C118     1.0000 0.19986  0.27565  0.89343  Biso   1.000  C
  H118     1.0000 0.17827  0.24593  0.93763  Biso   1.000  H
  C119     1.0000 0.21527  0.32540  0.92103  Biso   1.000  C
  H119     1.0000 0.20677  0.33753  0.98773  Biso   1.000  H
  C120     1.0000 0.24623  0.35489  0.83113  Biso   1.000  C
  H120     1.0000 0.26277  0.39143  0.82723  Biso   1.000  H
  N43      1.0000 0.22763  0.19163  0.88783  Biso   1.000  N
  N44      1.0000 0.19738  0.18849  0.79813  Biso   1.000  N
  N45      1.0000 0.30790  0.27125  0.72643  Biso   1.000  N
  N46      1.0000 0.26263  0.24673  0.66713  Biso   1.000  N
  N47      1.0000 0.24960  0.32530  0.75183  Biso   1.000  N
  N48      1.0000 0.22112  0.27650  0.79115  Biso   1.000  N
  O8       1.0000 0.18288  0.26056  0.56289  Biso   1.000  O
  Ag9      1.0000 0.98094  0.59181  0.24502  Biso   1.000  Ag
  C121     1.0000 0.88069  0.56568  0.05527  Biso   1.000  C
  C122     1.0000 0.83742  0.55113  0.96717  Biso   1.000  C
  H121     1.0000 0.83333  0.52177  0.92037  Biso   1.000  H
  H122     1.0000 0.80433  0.54027  0.00697  Biso   1.000  H
  C123     1.0000 0.80570  0.58275  0.82627  Biso   1.000  C
  H123     1.0000 0.77673  0.57857  0.87467  Biso   1.000  H
  H124     1.0000 0.79433  0.55017  0.78407  Biso   1.000  H
  C124     1.0000 0.82054  0.62642  0.74377  Biso   1.000  C
  C125     1.0000 0.80976  0.61625  0.62847  Biso   1.000  C
  H125     1.0000 0.79363  0.58167  0.60147  Biso   1.000  H
  C126     1.0000 0.84435  0.67717  0.78047  Biso   1.000  C
  H126     1.0000 0.85223  0.68467  0.85897  Biso   1.000  H
  C127     1.0000 0.81922  0.47637  0.13307  Biso   1.000  C
  H127     1.0000 0.79183  0.46537  0.07977  Biso   1.000  H
  C128     1.0000 0.82035  0.44941  0.22417  Biso   1.000  C
  H128     1.0000 0.79443  0.41597  0.24767  Biso   1.000  H
  C129     1.0000 0.86740  0.48096  0.27597  Biso   1.000  C
  H129     1.0000 0.87893  0.47197  0.34297  Biso   1.000  H
  C130     1.0000 0.93881  0.57937  0.88697  Biso   1.000  C
  H130     1.0000 0.91373  0.56487  0.82817  Biso   1.000  H
  C131     1.0000 0.99065  0.60318  0.87407  Biso   1.000  C
  H131     1.0000 0.00923  0.60877  0.80497  Biso   1.000  H
  C132     1.0000 0.01121  0.61784  0.98287  Biso   1.000  C
  H132     1.0000 0.04703  0.63517  0.99967  Biso   1.000  H
  C133     1.0000 0.86652  0.60899  0.22677  Biso   1.000  C
  H133     1.0000 0.84493  0.57927  0.27097  Biso   1.000  H
  C134     1.0000 0.88193  0.65874  0.25437  Biso   1.000  C
  H134     1.0000 0.87343  0.67087  0.32107  Biso   1.000  H
  C135     1.0000 0.91289  0.68823  0.16447  Biso   1.000  C
  H135     1.0000 0.92943  0.72477  0.16057  Biso   1.000  H
  N49      1.0000 0.89429  0.52497  0.22117  Biso   1.000  N
  N50      1.0000 0.86404  0.52183  0.13147  Biso   1.000  N
  N51      1.0000 0.97456  0.60459  0.05977  Biso   1.000  N
  N52      1.0000 0.92929  0.58007  0.00047  Biso   1.000  N
  N53      1.0000 0.91626  0.65864  0.08517  Biso   1.000  N
  N54      1.0000 0.88778  0.60984  0.12449  Biso   1.000  N
  O9       1.0000 0.84954  0.59390  0.89623  Biso   1.000  O
  Ag10     1.0000 0.92515  0.27754  0.42165  Biso   1.000  Ag
  C136     1.0000 0.89901  0.35165  0.61140  Biso   1.000  C
  C137     1.0000 0.88446  0.38037  0.69950  Biso   1.000  C
  H136     1.0000 0.85510  0.35510  0.74630  Biso   1.000  H
  H137     1.0000 0.87360  0.40260  0.65970  Biso   1.000  H
  C138     1.0000 0.91608  0.44371  0.84040  Biso   1.000  C
  H138     1.0000 0.91190  0.46850  0.79200  Biso   1.000  H
  H139     1.0000 0.88350  0.42250  0.88260  Biso   1.000  H
  C139     1.0000 0.95975  0.47254  0.92290  Biso   1.000  C
  C140     1.0000 0.94958  0.47315  0.03820  Biso   1.000  C
  H140     1.0000 0.91500  0.45470  0.06520  Biso   1.000  H
  C141     1.0000 0.01050  0.49948  0.88620  Biso   1.000  C
  H141     1.0000 0.01800  0.49910  0.80770  Biso   1.000  H
  C142     1.0000 0.80970  0.32381  0.53360  Biso   1.000  C
  H142     1.0000 0.79870  0.34020  0.58690  Biso   1.000  H
  C143     1.0000 0.78274  0.29572  0.44250  Biso   1.000  C
  H143     1.0000 0.74930  0.28820  0.41900  Biso   1.000  H
  C144     1.0000 0.81429  0.28022  0.39070  Biso   1.000  C
  H144     1.0000 0.80530  0.25970  0.32370  Biso   1.000  H
  C145     1.0000 0.91270  0.30722  0.77970  Biso   1.000  C
  H145     1.0000 0.89820  0.31780  0.83850  Biso   1.000  H
  C146     1.0000 0.93651  0.27919  0.79260  Biso   1.000  C
  H146     1.0000 0.94210  0.26620  0.86170  Biso   1.000  H
  C147     1.0000 0.95117  0.27329  0.68380  Biso   1.000  C
  H147     1.0000 0.96850  0.25480  0.66700  Biso   1.000  H
  C148     1.0000 0.94232  0.40913  0.43990  Biso   1.000  C
  H148     1.0000 0.91260  0.40100  0.39570  Biso   1.000  H
  C149     1.0000 0.99207  0.44347  0.41230  Biso   1.000  C
  H149     1.0000 0.00420  0.46410  0.34560  Biso   1.000  H
  C150     1.0000 0.02156  0.44200  0.50220  Biso   1.000  C
  H150     1.0000 0.05810  0.46200  0.50610  Biso   1.000  H
  N55      1.0000 0.85830  0.29734  0.44550  Biso   1.000  N
  N56      1.0000 0.85516  0.32445  0.53520  Biso   1.000  N
  N57      1.0000 0.93792  0.29669  0.60690  Biso   1.000  N
  N58      1.0000 0.91340  0.31744  0.66620  Biso   1.000  N
  N59      1.0000 0.99197  0.40904  0.58150  Biso   1.000  N
  N60      1.0000 0.94317  0.38872  0.54218  Biso   1.000  N
  O10      1.0000 0.92723  0.41102  0.77044  Biso   1.000  O
  Ag11     1.0000 0.59181  0.61087  0.75498  Biso   1.000  Ag
  C151     1.0000 0.56568  0.68498  0.94473  Biso   1.000  C
  C152     1.0000 0.55113  0.71370  0.03283  Biso   1.000  C
  H151     1.0000 0.52177  0.68843  0.07963  Biso   1.000  H
  H152     1.0000 0.54027  0.73593  0.99303  Biso   1.000  H
  C153     1.0000 0.58275  0.77704  0.17373  Biso   1.000  C
  H153     1.0000 0.57857  0.80183  0.12533  Biso   1.000  H
  H154     1.0000 0.55017  0.75583  0.21593  Biso   1.000  H
  C154     1.0000 0.62642  0.80587  0.25623  Biso   1.000  C
  C155     1.0000 0.61625  0.80648  0.37153  Biso   1.000  C
  H155     1.0000 0.58167  0.78803  0.39853  Biso   1.000  H
  C156     1.0000 0.67717  0.83281  0.21953  Biso   1.000  C
  H156     1.0000 0.68467  0.83243  0.14103  Biso   1.000  H
  C157     1.0000 0.47637  0.65714  0.86693  Biso   1.000  C
  H157     1.0000 0.46537  0.67353  0.92023  Biso   1.000  H
  C158     1.0000 0.44941  0.62905  0.77583  Biso   1.000  C
  H158     1.0000 0.41597  0.62153  0.75233  Biso   1.000  H
  C159     1.0000 0.48096  0.61355  0.72403  Biso   1.000  C
  H159     1.0000 0.47197  0.59303  0.65703  Biso   1.000  H
  C160     1.0000 0.57937  0.64055  0.11303  Biso   1.000  C
  H160     1.0000 0.56487  0.65113  0.17183  Biso   1.000  H
  C161     1.0000 0.60318  0.61252  0.12593  Biso   1.000  C
  H161     1.0000 0.60877  0.59953  0.19503  Biso   1.000  H
  C162     1.0000 0.61784  0.60662  0.01713  Biso   1.000  C
  H162     1.0000 0.63517  0.58813  0.00033  Biso   1.000  H
  C163     1.0000 0.60899  0.74246  0.77323  Biso   1.000  C
  H163     1.0000 0.57927  0.73433  0.72903  Biso   1.000  H
  C164     1.0000 0.65874  0.77680  0.74563  Biso   1.000  C
  H164     1.0000 0.67087  0.79743  0.67893  Biso   1.000  H
  C165     1.0000 0.68823  0.77533  0.83553  Biso   1.000  C
  H165     1.0000 0.72477  0.79533  0.83943  Biso   1.000  H
  N61      1.0000 0.52497  0.63067  0.77883  Biso   1.000  N
  N62      1.0000 0.52183  0.65778  0.86853  Biso   1.000  N
  N63      1.0000 0.60459  0.63002  0.94023  Biso   1.000  N
  N64      1.0000 0.58007  0.65077  0.99953  Biso   1.000  N
  N65      1.0000 0.65864  0.74237  0.91483  Biso   1.000  N
  N66      1.0000 0.60984  0.72205  0.87551  Biso   1.000  N
  O11      1.0000 0.59390  0.74435  0.10377  Biso   1.000  O
  Ag12     1.0000 0.25848  0.94420  0.08832  Biso   1.000  Ag
  C166     1.0000 0.23234  0.01832  0.27807  Biso   1.000  C
  C167     1.0000 0.21779  0.04704  0.36617  Biso   1.000  C
  H166     1.0000 0.18843  0.02177  0.41297  Biso   1.000  H
  H167     1.0000 0.20693  0.06927  0.32637  Biso   1.000  H
  C168     1.0000 0.24941  0.11038  0.50707  Biso   1.000  C
  H168     1.0000 0.24523  0.13517  0.45867  Biso   1.000  H
  H169     1.0000 0.21683  0.08917  0.54927  Biso   1.000  H
  C169     1.0000 0.29308  0.13921  0.58957  Biso   1.000  C
  C170     1.0000 0.28291  0.13982  0.70487  Biso   1.000  C
  H170     1.0000 0.24833  0.12137  0.73187  Biso   1.000  H
  C171     1.0000 0.34383  0.16615  0.55287  Biso   1.000  C
  H171     1.0000 0.35133  0.16577  0.47437  Biso   1.000  H
  C172     1.0000 0.14303  0.99048  0.20027  Biso   1.000  C
  H172     1.0000 0.13203  0.00687  0.25357  Biso   1.000  H
  C173     1.0000 0.11607  0.96239  0.10917  Biso   1.000  C
  H173     1.0000 0.08263  0.95487  0.08567  Biso   1.000  H
  C174     1.0000 0.14762  0.94689  0.05737  Biso   1.000  C
  H174     1.0000 0.13863  0.92637  0.99037  Biso   1.000  H
  C175     1.0000 0.24603  0.97389  0.44637  Biso   1.000  C
  H175     1.0000 0.23153  0.98447  0.50517  Biso   1.000  H
  C176     1.0000 0.26984  0.94586  0.45927  Biso   1.000  C
  H176     1.0000 0.27543  0.93287  0.52837  Biso   1.000  H
  C177     1.0000 0.28450  0.93996  0.35047  Biso   1.000  C
  H177     1.0000 0.30183  0.92147  0.33367  Biso   1.000  H
  C178     1.0000 0.27565  0.07580  0.10657  Biso   1.000  C
  H178     1.0000 0.24593  0.06767  0.06237  Biso   1.000  H
  C179     1.0000 0.32540  0.11014  0.07897  Biso   1.000  C
  H179     1.0000 0.33753  0.13077  0.01227  Biso   1.000  H
  C180     1.0000 0.35489  0.10867  0.16887  Biso   1.000  C
  H180     1.0000 0.39143  0.12867  0.17277  Biso   1.000  H
  N67      1.0000 0.19163  0.96401  0.11217  Biso   1.000  N
  N68      1.0000 0.18849  0.99112  0.20187  Biso   1.000  N
  N69      1.0000 0.27125  0.96336  0.27357  Biso   1.000  N
  N70      1.0000 0.24673  0.98411  0.33287  Biso   1.000  N
  N71      1.0000 0.32530  0.07571  0.24817  Biso   1.000  N
  N72      1.0000 0.27650  0.05539  0.20885  Biso   1.000  N
  O12      1.0000 0.26056  0.07769  0.43711  Biso   1.000  O
  Ag13     1.0000 0.72246  0.64761  0.42165  Biso   1.000  Ag
  C181     1.0000 0.64835  0.54736  0.61140  Biso   1.000  C
  C182     1.0000 0.61963  0.50409  0.69950  Biso   1.000  C
  H181     1.0000 0.64490  0.50000  0.74630  Biso   1.000  H
  H182     1.0000 0.59740  0.47100  0.65970  Biso   1.000  H
  C183     1.0000 0.55629  0.47237  0.84040  Biso   1.000  C
  H183     1.0000 0.53150  0.44340  0.79200  Biso   1.000  H
  H184     1.0000 0.57750  0.46100  0.88260  Biso   1.000  H
  C184     1.0000 0.52746  0.48721  0.92290  Biso   1.000  C
  C185     1.0000 0.52685  0.47643  0.03820  Biso   1.000  C
  H185     1.0000 0.54530  0.46030  0.06520  Biso   1.000  H
  C186     1.0000 0.50052  0.51102  0.88620  Biso   1.000  C
  H186     1.0000 0.50090  0.51890  0.80770  Biso   1.000  H
  C187     1.0000 0.67619  0.48589  0.53360  Biso   1.000  C
  H187     1.0000 0.65980  0.45850  0.58690  Biso   1.000  H
  C188     1.0000 0.70428  0.48702  0.44250  Biso   1.000  C
  H188     1.0000 0.71180  0.46110  0.41900  Biso   1.000  H
  C189     1.0000 0.71978  0.53407  0.39070  Biso   1.000  C
  H189     1.0000 0.74030  0.54560  0.32370  Biso   1.000  H
  C190     1.0000 0.69278  0.60548  0.77970  Biso   1.000  C
  H190     1.0000 0.68220  0.58040  0.83850  Biso   1.000  H
  C191     1.0000 0.72081  0.65732  0.79260  Biso   1.000  C
  H191     1.0000 0.73380  0.67590  0.86170  Biso   1.000  H
  C192     1.0000 0.72671  0.67788  0.68380  Biso   1.000  C
  H192     1.0000 0.74520  0.71370  0.66700  Biso   1.000  H
  C193     1.0000 0.59087  0.53319  0.43990  Biso   1.000  C
  H193     1.0000 0.59900  0.51160  0.39570  Biso   1.000  H
  C194     1.0000 0.55653  0.54860  0.41230  Biso   1.000  C
  H194     1.0000 0.53590  0.54010  0.34560  Biso   1.000  H
  C195     1.0000 0.55800  0.57956  0.50220  Biso   1.000  C
  H195     1.0000 0.53800  0.59610  0.50610  Biso   1.000  H
  N73      1.0000 0.70266  0.56096  0.44550  Biso   1.000  N
  N74      1.0000 0.67555  0.53071  0.53520  Biso   1.000  N
  N75      1.0000 0.70331  0.64123  0.60690  Biso   1.000  N
  N76      1.0000 0.68256  0.59596  0.66620  Biso   1.000  N
  N77      1.0000 0.59096  0.58293  0.58150  Biso   1.000  N
  N78      1.0000 0.61128  0.55445  0.54218  Biso   1.000  N
  O13      1.0000 0.58898  0.51621  0.77044  Biso   1.000  O
  Ag14     1.0000 0.38913  0.98094  0.75498  Biso   1.000  Ag
  C196     1.0000 0.31502  0.88069  0.94473  Biso   1.000  C
  C197     1.0000 0.28630  0.83742  0.03283  Biso   1.000  C
  H196     1.0000 0.31157  0.83333  0.07963  Biso   1.000  H
  H197     1.0000 0.26407  0.80433  0.99303  Biso   1.000  H
  C198     1.0000 0.22296  0.80570  0.17373  Biso   1.000  C
  H198     1.0000 0.19817  0.77673  0.12533  Biso   1.000  H
  H199     1.0000 0.24417  0.79433  0.21593  Biso   1.000  H
  C199     1.0000 0.19413  0.82054  0.25623  Biso   1.000  C
  C200     1.0000 0.19352  0.80976  0.37153  Biso   1.000  C
  H200     1.0000 0.21197  0.79363  0.39853  Biso   1.000  H
  C201     1.0000 0.16719  0.84435  0.21953  Biso   1.000  C
  H201     1.0000 0.16757  0.85223  0.14103  Biso   1.000  H
  C202     1.0000 0.34286  0.81922  0.86693  Biso   1.000  C
  H202     1.0000 0.32647  0.79183  0.92023  Biso   1.000  H
  C203     1.0000 0.37095  0.82035  0.77583  Biso   1.000  C
  H203     1.0000 0.37847  0.79443  0.75233  Biso   1.000  H
  C204     1.0000 0.38645  0.86740  0.72403  Biso   1.000  C
  H204     1.0000 0.40697  0.87893  0.65703  Biso   1.000  H
  C205     1.0000 0.35945  0.93881  0.11303  Biso   1.000  C
  H205     1.0000 0.34887  0.91373  0.17183  Biso   1.000  H
  C206     1.0000 0.38748  0.99065  0.12593  Biso   1.000  C
  H206     1.0000 0.40047  0.00923  0.19503  Biso   1.000  H
  C207     1.0000 0.39338  0.01121  0.01713  Biso   1.000  C
  H207     1.0000 0.41187  0.04703  0.00033  Biso   1.000  H
  C208     1.0000 0.25754  0.86652  0.77323  Biso   1.000  C
  H208     1.0000 0.26567  0.84493  0.72903  Biso   1.000  H
  C209     1.0000 0.22320  0.88193  0.74563  Biso   1.000  C
  H209     1.0000 0.20257  0.87343  0.67893  Biso   1.000  H
  C210     1.0000 0.22467  0.91289  0.83553  Biso   1.000  C
  H210     1.0000 0.20467  0.92943  0.83943  Biso   1.000  H
  N79      1.0000 0.36933  0.89429  0.77883  Biso   1.000  N
  N80      1.0000 0.34222  0.86404  0.86853  Biso   1.000  N
  N81      1.0000 0.36998  0.97456  0.94023  Biso   1.000  N
  N82      1.0000 0.34923  0.92929  0.99953  Biso   1.000  N
  N83      1.0000 0.25763  0.91626  0.91483  Biso   1.000  N
  N84      1.0000 0.27795  0.88778  0.87551  Biso   1.000  N
  O14      1.0000 0.25565  0.84954  0.10377  Biso   1.000  O
  Ag15     1.0000 0.05580  0.31427  0.08832  Biso   1.000  Ag
  C211     1.0000 0.98168  0.21403  0.27807  Biso   1.000  C
  C212     1.0000 0.95296  0.17076  0.36617  Biso   1.000  C
  H211     1.0000 0.97823  0.16667  0.41297  Biso   1.000  H
  H212     1.0000 0.93073  0.13767  0.32637  Biso   1.000  H
  C213     1.0000 0.88962  0.13904  0.50707  Biso   1.000  C
  H213     1.0000 0.86483  0.11007  0.45867  Biso   1.000  H
  H214     1.0000 0.91083  0.12767  0.54927  Biso   1.000  H
  C214     1.0000 0.86079  0.15388  0.58957  Biso   1.000  C
  C215     1.0000 0.86018  0.14310  0.70487  Biso   1.000  C
  H215     1.0000 0.87863  0.12697  0.73187  Biso   1.000  H
  C216     1.0000 0.83385  0.17769  0.55287  Biso   1.000  C
  H216     1.0000 0.83423  0.18557  0.47437  Biso   1.000  H
  C217     1.0000 0.00952  0.15256  0.20027  Biso   1.000  C
  H217     1.0000 0.99313  0.12517  0.25357  Biso   1.000  H
  C218     1.0000 0.03761  0.15369  0.10917  Biso   1.000  C
  H218     1.0000 0.04513  0.12777  0.08567  Biso   1.000  H
  C219     1.0000 0.05311  0.20074  0.05737  Biso   1.000  C
  H219     1.0000 0.07363  0.21227  0.99037  Biso   1.000  H
  C220     1.0000 0.02611  0.27215  0.44637  Biso   1.000  C
  H220     1.0000 0.01553  0.24707  0.50517  Biso   1.000  H
  C221     1.0000 0.05414  0.32399  0.45927  Biso   1.000  C
  H221     1.0000 0.06713  0.34257  0.52837  Biso   1.000  H
  C222     1.0000 0.06004  0.34455  0.35047  Biso   1.000  C
  H222     1.0000 0.07853  0.38037  0.33367  Biso   1.000  H
  C223     1.0000 0.92420  0.19986  0.10657  Biso   1.000  C
  H223     1.0000 0.93233  0.17827  0.06237  Biso   1.000  H
  C224     1.0000 0.88986  0.21527  0.07897  Biso   1.000  C
  H224     1.0000 0.86923  0.20677  0.01227  Biso   1.000  H
  C225     1.0000 0.89133  0.24623  0.16887  Biso   1.000  C
  H225     1.0000 0.87133  0.26277  0.17277  Biso   1.000  H
  N85      1.0000 0.03599  0.22763  0.11217  Biso   1.000  N
  N86      1.0000 0.00888  0.19738  0.20187  Biso   1.000  N
  N87      1.0000 0.03664  0.30790  0.27357  Biso   1.000  N
  N88      1.0000 0.01589  0.26263  0.33287  Biso   1.000  N
  N89      1.0000 0.92429  0.24960  0.24817  Biso   1.000  N
  N90      1.0000 0.94461  0.22112  0.20885  Biso   1.000  N
  O15      1.0000 0.92231  0.18288  0.43711  Biso   1.000  O
  Ag16     1.0000 0.35239  0.07485  0.42165  Biso   1.000  Ag
  C226     1.0000 0.45264  0.10099  0.61140  Biso   1.000  C
  C227     1.0000 0.49591  0.11554  0.69950  Biso   1.000  C
  H226     1.0000 0.50000  0.14490  0.74630  Biso   1.000  H
  H227     1.0000 0.52900  0.12640  0.65970  Biso   1.000  H
  C228     1.0000 0.52763  0.08392  0.84040  Biso   1.000  C
  H228     1.0000 0.55660  0.08810  0.79200  Biso   1.000  H
  H229     1.0000 0.53900  0.11650  0.88260  Biso   1.000  H
  C229     1.0000 0.51279  0.04025  0.92290  Biso   1.000  C
  C230     1.0000 0.52357  0.05042  0.03820  Biso   1.000  C
  H230     1.0000 0.53970  0.08500  0.06520  Biso   1.000  H
  C231     1.0000 0.48898  0.98950  0.88620  Biso   1.000  C
  H231     1.0000 0.48110  0.98200  0.80770  Biso   1.000  H
  C232     1.0000 0.51411  0.19030  0.53360  Biso   1.000  C
  H232     1.0000 0.54150  0.20130  0.58690  Biso   1.000  H
  C233     1.0000 0.51298  0.21726  0.44250  Biso   1.000  C
  H233     1.0000 0.53890  0.25070  0.41900  Biso   1.000  H
  C234     1.0000 0.46593  0.18571  0.39070  Biso   1.000  C
  H234     1.0000 0.45440  0.19470  0.32370  Biso   1.000  H
  C235     1.0000 0.39452  0.08730  0.77970  Biso   1.000  C
  H235     1.0000 0.41960  0.10180  0.83850  Biso   1.000  H
  C236     1.0000 0.34268  0.06349  0.79260  Biso   1.000  C
  H236     1.0000 0.32410  0.05790  0.86170  Biso   1.000  H
  C237     1.0000 0.32212  0.04883  0.68380  Biso   1.000  C
  H237     1.0000 0.28630  0.03150  0.66700  Biso   1.000  H
  C238     1.0000 0.46681  0.05768  0.43990  Biso   1.000  C
  H238     1.0000 0.48840  0.08740  0.39570  Biso   1.000  H
  C239     1.0000 0.45140  0.00793  0.41230  Biso   1.000  C
  H239     1.0000 0.45990  0.99580  0.34560  Biso   1.000  H
  C240     1.0000 0.42044  0.97844  0.50220  Biso   1.000  C
  H240     1.0000 0.40390  0.94190  0.50610  Biso   1.000  H
  N91      1.0000 0.43904  0.14170  0.44550  Biso   1.000  N
  N92      1.0000 0.46929  0.14484  0.53520  Biso   1.000  N
  N93      1.0000 0.35877  0.06208  0.60690  Biso   1.000  N
  N94      1.0000 0.40404  0.08660  0.66620  Biso   1.000  N
  N95      1.0000 0.41707  0.00803  0.58150  Biso   1.000  N
  N96      1.0000 0.44555  0.05683  0.54218  Biso   1.000  N
  O16      1.0000 0.48379  0.07277  0.77044  Biso   1.000  O
  Ag17     1.0000 0.01906  0.40819  0.75498  Biso   1.000  Ag
  C241     1.0000 0.11931  0.43432  0.94473  Biso   1.000  C
  C242     1.0000 0.16258  0.44887  0.03283  Biso   1.000  C
  H241     1.0000 0.16667  0.47823  0.07963  Biso   1.000  H
  H242     1.0000 0.19567  0.45973  0.99303  Biso   1.000  H
  C243     1.0000 0.19430  0.41725  0.17373  Biso   1.000  C
  H243     1.0000 0.22327  0.42143  0.12533  Biso   1.000  H
  H244     1.0000 0.20567  0.44983  0.21593  Biso   1.000  H
  C244     1.0000 0.17946  0.37358  0.25623  Biso   1.000  C
  C245     1.0000 0.19024  0.38375  0.37153  Biso   1.000  C
  H245     1.0000 0.20637  0.41833  0.39853  Biso   1.000  H
  C246     1.0000 0.15565  0.32283  0.21953  Biso   1.000  C
  H246     1.0000 0.14777  0.31533  0.14103  Biso   1.000  H
  C247     1.0000 0.18078  0.52363  0.86693  Biso   1.000  C
  H247     1.0000 0.20817  0.53463  0.92023  Biso   1.000  H
  C248     1.0000 0.17965  0.55059  0.77583  Biso   1.000  C
  H248     1.0000 0.20557  0.58403  0.75233  Biso   1.000  H
  C249     1.0000 0.13260  0.51904  0.72403  Biso   1.000  C
  H249     1.0000 0.12107  0.52803  0.65703  Biso   1.000  H
  C250     1.0000 0.06119  0.42063  0.11303  Biso   1.000  C
  H250     1.0000 0.08627  0.43513  0.17183  Biso   1.000  H
  C251     1.0000 0.00935  0.39682  0.12593  Biso   1.000  C
  H251     1.0000 0.99077  0.39123  0.19503  Biso   1.000  H
  C252     1.0000 0.98879  0.38216  0.01713  Biso   1.000  C
  H252     1.0000 0.95297  0.36483  0.00033  Biso   1.000  H
  C253     1.0000 0.13348  0.39101  0.77323  Biso   1.000  C
  H253     1.0000 0.15507  0.42073  0.72903  Biso   1.000  H
  C254     1.0000 0.11807  0.34126  0.74563  Biso   1.000  C
  H254     1.0000 0.12657  0.32913  0.67893  Biso   1.000  H
  C255     1.0000 0.08711  0.31177  0.83553  Biso   1.000  C
  H255     1.0000 0.07057  0.27523  0.83943  Biso   1.000  H
  N97      1.0000 0.10571  0.47503  0.77883  Biso   1.000  N
  N98      1.0000 0.13596  0.47817  0.86853  Biso   1.000  N
  N99      1.0000 0.02544  0.39541  0.94023  Biso   1.000  N
  N100     1.0000 0.07071  0.41993  0.99953  Biso   1.000  N
  N101     1.0000 0.08374  0.34136  0.91483  Biso   1.000  N
  N102     1.0000 0.11222  0.39016  0.87551  Biso   1.000  N
  O17      1.0000 0.15046  0.40610  0.10377  Biso   1.000  O
  Ag18     1.0000 0.68573  0.74152  0.08832  Biso   1.000  Ag
  C256     1.0000 0.78597  0.76766  0.27807  Biso   1.000  C
  C257     1.0000 0.82924  0.78221  0.36617  Biso   1.000  C
  H256     1.0000 0.83333  0.81157  0.41297  Biso   1.000  H
  H257     1.0000 0.86233  0.79307  0.32637  Biso   1.000  H
  C258     1.0000 0.86096  0.75059  0.50707  Biso   1.000  C
  H258     1.0000 0.88993  0.75477  0.45867  Biso   1.000  H
  H259     1.0000 0.87233  0.78317  0.54927  Biso   1.000  H
  C259     1.0000 0.84612  0.70692  0.58957  Biso   1.000  C
  C260     1.0000 0.85690  0.71709  0.70487  Biso   1.000  C
  H260     1.0000 0.87303  0.75167  0.73187  Biso   1.000  H
  C261     1.0000 0.82231  0.65617  0.55287  Biso   1.000  C
  H261     1.0000 0.81443  0.64867  0.47437  Biso   1.000  H
  C262     1.0000 0.84744  0.85697  0.20027  Biso   1.000  C
  H262     1.0000 0.87483  0.86797  0.25357  Biso   1.000  H
  C263     1.0000 0.84631  0.88393  0.10917  Biso   1.000  C
  H263     1.0000 0.87223  0.91737  0.08567  Biso   1.000  H
  C264     1.0000 0.79926  0.85238  0.05737  Biso   1.000  C
  H264     1.0000 0.78773  0.86137  0.99037  Biso   1.000  H
  C265     1.0000 0.72785  0.75397  0.44637  Biso   1.000  C
  H265     1.0000 0.75293  0.76847  0.50517  Biso   1.000  H
  C266     1.0000 0.67601  0.73016  0.45927  Biso   1.000  C
  H266     1.0000 0.65743  0.72457  0.52837  Biso   1.000  H
  C267     1.0000 0.65545  0.71550  0.35047  Biso   1.000  C
  H267     1.0000 0.61963  0.69817  0.33367  Biso   1.000  H
  C268     1.0000 0.80014  0.72435  0.10657  Biso   1.000  C
  H268     1.0000 0.82173  0.75407  0.06237  Biso   1.000  H
  C269     1.0000 0.78473  0.67460  0.07897  Biso   1.000  C
  H269     1.0000 0.79323  0.66247  0.01227  Biso   1.000  H
  C270     1.0000 0.75377  0.64511  0.16887  Biso   1.000  C
  H270     1.0000 0.73723  0.60857  0.17277  Biso   1.000  H
  N103     1.0000 0.77237  0.80837  0.11217  Biso   1.000  N
  N104     1.0000 0.80262  0.81151  0.20187  Biso   1.000  N
  N105     1.0000 0.69210  0.72875  0.27357  Biso   1.000  N
  N106     1.0000 0.73737  0.75327  0.33287  Biso   1.000  N
  N107     1.0000 0.75040  0.67470  0.24817  Biso   1.000  N
  N108     1.0000 0.77888  0.72350  0.20885  Biso   1.000  N
  O18      1.0000 0.81712  0.73944  0.43711  Biso   1.000  O
