data_image0
_cell_length_a       17.4675
_cell_length_b       17.4675
_cell_length_c       57.836
_cell_angle_alpha    90
_cell_angle_beta     90
_cell_angle_gamma    90

_symmetry_space_group_name_H-M    "P 1"
_symmetry_int_tables_number       1

loop_
  _symmetry_equiv_pos_as_xyz
  'x, y, z'

loop_
  _atom_site_label
  _atom_site_occupancy
  _atom_site_fract_x
  _atom_site_fract_y
  _atom_site_fract_z
  _atom_site_thermal_displace_type
  _atom_site_B_iso_or_equiv
  _atom_site_type_symbol
  Co1      1.0000 0.13414  0.40394  0.58759  Biso   1.000  Co
  Co2      1.0000 0.12284  0.22682  0.61999  Biso   1.000  Co
  N1       1.0000 0.74357  0.09011  0.58769  Biso   1.000  N
  N2       1.0000 0.12489  0.47190  0.55707  Biso   1.000  N
  O1       1.0000 0.25473  0.12098  0.64390  Biso   1.000  O
  O2       1.0000 0.23212  0.19559  0.61286  Biso   1.000  O
  O3       1.0000 0.13312  0.81063  0.43436  Biso   1.000  O
  O4       1.0000 0.09050  0.70890  0.41454  Biso   1.000  O
  O5       1.0000 0.13101  0.34225  0.61809  Biso   1.000  O
  H1       1.0000 0.17130  0.35430  0.62550  Biso   1.000  H
  C1       1.0000 0.70030  0.14260  0.57785  Biso   1.000  C
  H2       1.0000 0.72410  0.17800  0.56770  Biso   1.000  H
  C2       1.0000 0.62284  0.14910  0.58143  Biso   1.000  C
  H3       1.0000 0.59510  0.18830  0.57370  Biso   1.000  H
  C3       1.0000 0.58518  0.10048  0.59583  Biso   1.000  C
  C4       1.0000 0.62974  0.04070  0.60449  Biso   1.000  C
  H4       1.0000 0.60620  0.00140  0.61330  Biso   1.000  H
  C5       1.0000 0.70596  0.03796  0.60044  Biso   1.000  C
  H5       1.0000 0.73440  0.99700  0.60700  Biso   1.000  H
  C6       1.0000 0.50427  0.11024  0.60231  Biso   1.000  C
  C7       1.0000 0.45096  0.14210  0.58744  Biso   1.000  C
  H6       1.0000 0.46560  0.15520  0.57210  Biso   1.000  H
  C8       1.0000 0.37677  0.15490  0.59464  Biso   1.000  C
  H7       1.0000 0.34100  0.17690  0.58420  Biso   1.000  H
  C9       1.0000 0.35346  0.13643  0.61686  Biso   1.000  C
  C10      1.0000 0.40551  0.10190  0.63115  Biso   1.000  C
  H8       1.0000 0.39050  0.08780  0.64630  Biso   1.000  H
  C11      1.0000 0.47887  0.08740  0.62398  Biso   1.000  C
  H9       1.0000 0.51300  0.06120  0.63400  Biso   1.000  H
  C12      1.0000 0.27358  0.15230  0.62512  Biso   1.000  C
  C13      1.0000 0.08010  0.45290  0.53974  Biso   1.000  C
  H10      1.0000 0.05010  0.40770  0.54120  Biso   1.000  H
  C14      1.0000 0.07390  0.49490  0.51925  Biso   1.000  C
  H11      1.0000 0.04010  0.47870  0.50730  Biso   1.000  H
  C15      1.0000 0.11756  0.56058  0.51652  Biso   1.000  C
  C16      1.0000 0.15940  0.58570  0.53633  Biso   1.000  C
  H12      1.0000 0.18560  0.63330  0.53610  Biso   1.000  H
  C17      1.0000 0.16140  0.54050  0.55557  Biso   1.000  C
  H13      1.0000 0.18980  0.55780  0.56860  Biso   1.000  H
  C18      1.0000 0.11523  0.60714  0.49511  Biso   1.000  C
  C19      1.0000 0.12080  0.57200  0.47336  Biso   1.000  C
  H14      1.0000 0.12600  0.51800  0.47230  Biso   1.000  H
  C20      1.0000 0.11875  0.61610  0.45357  Biso   1.000  C
  H15      1.0000 0.12160  0.59190  0.43890  Biso   1.000  H
  C21      1.0000 0.11259  0.69515  0.45473  Biso   1.000  C
  C22      1.0000 0.10960  0.72973  0.47608  Biso   1.000  C
  H16      1.0000 0.10730  0.78400  0.47710  Biso   1.000  H
  C23      1.0000 0.10980  0.68635  0.49615  Biso   1.000  C
  H17      1.0000 0.10610  0.71110  0.51070  Biso   1.000  H
  C24      1.0000 0.11254  0.74238  0.43303  Biso   1.000  C
  C25      1.0000 0.16710  0.45000  0.53750  Biso   1.000  C
  H18      1.0000 0.19710  0.40470  0.53820  Biso   1.000  H
  C26      1.0000 0.16660  0.49140  0.51757  Biso   1.000  C
  H19      1.0000 0.19690  0.47640  0.50470  Biso   1.000  H
  C27      1.0000 0.07930  0.57740  0.53537  Biso   1.000  C
  H20      1.0000 0.04640  0.62070  0.53560  Biso   1.000  H
  C28      1.0000 0.08700  0.53190  0.55494  Biso   1.000  C
  H21      1.0000 0.06020  0.54850  0.56830  Biso   1.000  H
  Co3      1.0000 0.63414  0.90394  0.08759  Biso   1.000  Co
  Co4      1.0000 0.62284  0.72682  0.11999  Biso   1.000  Co
  N3       1.0000 0.24357  0.59011  0.08769  Biso   1.000  N
  N4       1.0000 0.62489  0.97190  0.05707  Biso   1.000  N
  O6       1.0000 0.75473  0.62098  0.14390  Biso   1.000  O
  O7       1.0000 0.73212  0.69559  0.11286  Biso   1.000  O
  O8       1.0000 0.63312  0.31063  0.93436  Biso   1.000  O
  O9       1.0000 0.59050  0.20890  0.91454  Biso   1.000  O
  O10      1.0000 0.63101  0.84225  0.11809  Biso   1.000  O
  H22      1.0000 0.67130  0.85430  0.12550  Biso   1.000  H
  C29      1.0000 0.20030  0.64260  0.07785  Biso   1.000  C
  H23      1.0000 0.22410  0.67800  0.06770  Biso   1.000  H
  C30      1.0000 0.12284  0.64910  0.08143  Biso   1.000  C
  H24      1.0000 0.09510  0.68830  0.07370  Biso   1.000  H
  C31      1.0000 0.08518  0.60048  0.09583  Biso   1.000  C
  C32      1.0000 0.12974  0.54070  0.10449  Biso   1.000  C
  H25      1.0000 0.10620  0.50140  0.11330  Biso   1.000  H
  C33      1.0000 0.20596  0.53796  0.10044  Biso   1.000  C
  H26      1.0000 0.23440  0.49700  0.10700  Biso   1.000  H
  C34      1.0000 0.00427  0.61024  0.10231  Biso   1.000  C
  C35      1.0000 0.95096  0.64210  0.08744  Biso   1.000  C
  H27      1.0000 0.96560  0.65520  0.07210  Biso   1.000  H
  C36      1.0000 0.87677  0.65490  0.09464  Biso   1.000  C
  H28      1.0000 0.84100  0.67690  0.08420  Biso   1.000  H
  C37      1.0000 0.85346  0.63643  0.11686  Biso   1.000  C
  C38      1.0000 0.90551  0.60190  0.13115  Biso   1.000  C
  H29      1.0000 0.89050  0.58780  0.14630  Biso   1.000  H
  C39      1.0000 0.97887  0.58740  0.12398  Biso   1.000  C
  H30      1.0000 0.01300  0.56120  0.13400  Biso   1.000  H
  C40      1.0000 0.77358  0.65230  0.12512  Biso   1.000  C
  C41      1.0000 0.58010  0.95290  0.03974  Biso   1.000  C
  H31      1.0000 0.55010  0.90770  0.04120  Biso   1.000  H
  C42      1.0000 0.57390  0.99490  0.01925  Biso   1.000  C
  H32      1.0000 0.54010  0.97870  0.00730  Biso   1.000  H
  C43      1.0000 0.61756  0.06058  0.01652  Biso   1.000  C
  C44      1.0000 0.65940  0.08570  0.03633  Biso   1.000  C
  H33      1.0000 0.68560  0.13330  0.03610  Biso   1.000  H
  C45      1.0000 0.66140  0.04050  0.05557  Biso   1.000  C
  H34      1.0000 0.68980  0.05780  0.06860  Biso   1.000  H
  C46      1.0000 0.61523  0.10714  0.99511  Biso   1.000  C
  C47      1.0000 0.62080  0.07200  0.97336  Biso   1.000  C
  H35      1.0000 0.62600  0.01800  0.97230  Biso   1.000  H
  C48      1.0000 0.61875  0.11610  0.95357  Biso   1.000  C
  H36      1.0000 0.62160  0.09190  0.93890  Biso   1.000  H
  C49      1.0000 0.61259  0.19515  0.95473  Biso   1.000  C
  C50      1.0000 0.60960  0.22973  0.97608  Biso   1.000  C
  H37      1.0000 0.60730  0.28400  0.97710  Biso   1.000  H
  C51      1.0000 0.60980  0.18635  0.99615  Biso   1.000  C
  H38      1.0000 0.60610  0.21110  0.01070  Biso   1.000  H
  C52      1.0000 0.61254  0.24238  0.93303  Biso   1.000  C
  C53      1.0000 0.66710  0.95000  0.03750  Biso   1.000  C
  H39      1.0000 0.69710  0.90470  0.03820  Biso   1.000  H
  C54      1.0000 0.66660  0.99140  0.01757  Biso   1.000  C
  H40      1.0000 0.69690  0.97640  0.00470  Biso   1.000  H
  C55      1.0000 0.57930  0.07740  0.03537  Biso   1.000  C
  H41      1.0000 0.54640  0.12070  0.03560  Biso   1.000  H
  C56      1.0000 0.58700  0.03190  0.05494  Biso   1.000  C
  H42      1.0000 0.56020  0.04850  0.06830  Biso   1.000  H
  Co5      1.0000 0.36586  0.59606  0.08759  Biso   1.000  Co
  Co6      1.0000 0.37716  0.77318  0.11999  Biso   1.000  Co
  N5       1.0000 0.75643  0.90989  0.08769  Biso   1.000  N
  N6       1.0000 0.37511  0.52810  0.05707  Biso   1.000  N
  O11      1.0000 0.24527  0.87902  0.14390  Biso   1.000  O
  O12      1.0000 0.26788  0.80441  0.11286  Biso   1.000  O
  O13      1.0000 0.36688  0.18937  0.93436  Biso   1.000  O
  O14      1.0000 0.40950  0.29110  0.91454  Biso   1.000  O
  O15      1.0000 0.36899  0.65775  0.11809  Biso   1.000  O
  H43      1.0000 0.32870  0.64570  0.12550  Biso   1.000  H
  C57      1.0000 0.79970  0.85740  0.07785  Biso   1.000  C
  H44      1.0000 0.77590  0.82200  0.06770  Biso   1.000  H
  C58      1.0000 0.87716  0.85090  0.08143  Biso   1.000  C
  H45      1.0000 0.90490  0.81170  0.07370  Biso   1.000  H
  C59      1.0000 0.91482  0.89952  0.09583  Biso   1.000  C
  C60      1.0000 0.87026  0.95930  0.10449  Biso   1.000  C
  H46      1.0000 0.89380  0.99860  0.11330  Biso   1.000  H
  C61      1.0000 0.79404  0.96204  0.10044  Biso   1.000  C
  H47      1.0000 0.76560  0.00300  0.10700  Biso   1.000  H
  C62      1.0000 0.99573  0.88976  0.10231  Biso   1.000  C
  C63      1.0000 0.04904  0.85790  0.08744  Biso   1.000  C
  H48      1.0000 0.03440  0.84480  0.07210  Biso   1.000  H
  C64      1.0000 0.12323  0.84510  0.09464  Biso   1.000  C
  H49      1.0000 0.15900  0.82310  0.08420  Biso   1.000  H
  C65      1.0000 0.14654  0.86357  0.11686  Biso   1.000  C
  C66      1.0000 0.09449  0.89810  0.13115  Biso   1.000  C
  H50      1.0000 0.10950  0.91220  0.14630  Biso   1.000  H
  C67      1.0000 0.02113  0.91260  0.12398  Biso   1.000  C
  H51      1.0000 0.98700  0.93880  0.13400  Biso   1.000  H
  C68      1.0000 0.22642  0.84770  0.12512  Biso   1.000  C
  C69      1.0000 0.41990  0.54710  0.03974  Biso   1.000  C
  H52      1.0000 0.44990  0.59230  0.04120  Biso   1.000  H
  C70      1.0000 0.42610  0.50510  0.01925  Biso   1.000  C
  H53      1.0000 0.45990  0.52130  0.00730  Biso   1.000  H
  C71      1.0000 0.38244  0.43942  0.01652  Biso   1.000  C
  C72      1.0000 0.34060  0.41430  0.03633  Biso   1.000  C
  H54      1.0000 0.31440  0.36670  0.03610  Biso   1.000  H
  C73      1.0000 0.33860  0.45950  0.05557  Biso   1.000  C
  H55      1.0000 0.31020  0.44220  0.06860  Biso   1.000  H
  C74      1.0000 0.38477  0.39286  0.99511  Biso   1.000  C
  C75      1.0000 0.37920  0.42800  0.97336  Biso   1.000  C
  H56      1.0000 0.37400  0.48200  0.97230  Biso   1.000  H
  C76      1.0000 0.38125  0.38390  0.95357  Biso   1.000  C
  H57      1.0000 0.37840  0.40810  0.93890  Biso   1.000  H
  C77      1.0000 0.38741  0.30485  0.95473  Biso   1.000  C
  C78      1.0000 0.39040  0.27027  0.97608  Biso   1.000  C
  H58      1.0000 0.39270  0.21600  0.97710  Biso   1.000  H
  C79      1.0000 0.39020  0.31365  0.99615  Biso   1.000  C
  H59      1.0000 0.39390  0.28890  0.01070  Biso   1.000  H
  C80      1.0000 0.38746  0.25762  0.93303  Biso   1.000  C
  C81      1.0000 0.33290  0.55000  0.03750  Biso   1.000  C
  H60      1.0000 0.30290  0.59530  0.03820  Biso   1.000  H
  C82      1.0000 0.33340  0.50860  0.01757  Biso   1.000  C
  H61      1.0000 0.30310  0.52360  0.00470  Biso   1.000  H
  C83      1.0000 0.42070  0.42260  0.03537  Biso   1.000  C
  H62      1.0000 0.45360  0.37930  0.03560  Biso   1.000  H
  C84      1.0000 0.41300  0.46810  0.05494  Biso   1.000  C
  H63      1.0000 0.43980  0.45150  0.06830  Biso   1.000  H
  Co7      1.0000 0.86586  0.09606  0.58759  Biso   1.000  Co
  Co8      1.0000 0.87716  0.27318  0.61999  Biso   1.000  Co
  N7       1.0000 0.25643  0.40989  0.58769  Biso   1.000  N
  N8       1.0000 0.87511  0.02810  0.55707  Biso   1.000  N
  O16      1.0000 0.74527  0.37902  0.64390  Biso   1.000  O
  O17      1.0000 0.76788  0.30441  0.61286  Biso   1.000  O
  O18      1.0000 0.86688  0.68937  0.43436  Biso   1.000  O
  O19      1.0000 0.90950  0.79110  0.41454  Biso   1.000  O
  O20      1.0000 0.86899  0.15775  0.61809  Biso   1.000  O
  H64      1.0000 0.82870  0.14570  0.62550  Biso   1.000  H
  C85      1.0000 0.29970  0.35740  0.57785  Biso   1.000  C
  H65      1.0000 0.27590  0.32200  0.56770  Biso   1.000  H
  C86      1.0000 0.37716  0.35090  0.58143  Biso   1.000  C
  H66      1.0000 0.40490  0.31170  0.57370  Biso   1.000  H
  C87      1.0000 0.41482  0.39952  0.59583  Biso   1.000  C
  C88      1.0000 0.37026  0.45930  0.60449  Biso   1.000  C
  H67      1.0000 0.39380  0.49860  0.61330  Biso   1.000  H
  C89      1.0000 0.29404  0.46204  0.60044  Biso   1.000  C
  H68      1.0000 0.26560  0.50300  0.60700  Biso   1.000  H
  C90      1.0000 0.49573  0.38976  0.60231  Biso   1.000  C
  C91      1.0000 0.54904  0.35790  0.58744  Biso   1.000  C
  H69      1.0000 0.53440  0.34480  0.57210  Biso   1.000  H
  C92      1.0000 0.62323  0.34510  0.59464  Biso   1.000  C
  H70      1.0000 0.65900  0.32310  0.58420  Biso   1.000  H
  C93      1.0000 0.64654  0.36357  0.61686  Biso   1.000  C
  C94      1.0000 0.59449  0.39810  0.63115  Biso   1.000  C
  H71      1.0000 0.60950  0.41220  0.64630  Biso   1.000  H
  C95      1.0000 0.52113  0.41260  0.62398  Biso   1.000  C
  H72      1.0000 0.48700  0.43880  0.63400  Biso   1.000  H
  C96      1.0000 0.72642  0.34770  0.62512  Biso   1.000  C
  C97      1.0000 0.91990  0.04710  0.53974  Biso   1.000  C
  H73      1.0000 0.94990  0.09230  0.54120  Biso   1.000  H
  C98      1.0000 0.92610  0.00510  0.51925  Biso   1.000  C
  H74      1.0000 0.95990  0.02130  0.50730  Biso   1.000  H
  C99      1.0000 0.88244  0.93942  0.51652  Biso   1.000  C
  C100     1.0000 0.84060  0.91430  0.53633  Biso   1.000  C
  H75      1.0000 0.81440  0.86670  0.53610  Biso   1.000  H
  C101     1.0000 0.83860  0.95950  0.55557  Biso   1.000  C
  H76      1.0000 0.81020  0.94220  0.56860  Biso   1.000  H
  C102     1.0000 0.88477  0.89286  0.49511  Biso   1.000  C
  C103     1.0000 0.87920  0.92800  0.47336  Biso   1.000  C
  H77      1.0000 0.87400  0.98200  0.47230  Biso   1.000  H
  C104     1.0000 0.88125  0.88390  0.45357  Biso   1.000  C
  H78      1.0000 0.87840  0.90810  0.43890  Biso   1.000  H
  C105     1.0000 0.88741  0.80485  0.45473  Biso   1.000  C
  C106     1.0000 0.89040  0.77027  0.47608  Biso   1.000  C
  H79      1.0000 0.89270  0.71600  0.47710  Biso   1.000  H
  C107     1.0000 0.89020  0.81365  0.49615  Biso   1.000  C
  H80      1.0000 0.89390  0.78890  0.51070  Biso   1.000  H
  C108     1.0000 0.88746  0.75762  0.43303  Biso   1.000  C
  C109     1.0000 0.83290  0.05000  0.53750  Biso   1.000  C
  H81      1.0000 0.80290  0.09530  0.53820  Biso   1.000  H
  C110     1.0000 0.83340  0.00860  0.51757  Biso   1.000  C
  H82      1.0000 0.80310  0.02360  0.50470  Biso   1.000  H
  C111     1.0000 0.92070  0.92260  0.53537  Biso   1.000  C
  H83      1.0000 0.95360  0.87930  0.53560  Biso   1.000  H
  C112     1.0000 0.91300  0.96810  0.55494  Biso   1.000  C
  H84      1.0000 0.93980  0.95150  0.56830  Biso   1.000  H
  Co9      1.0000 0.34606  0.38414  0.83759  Biso   1.000  Co
  Co10     1.0000 0.52318  0.37284  0.86999  Biso   1.000  Co
  N9       1.0000 0.65989  0.99357  0.83769  Biso   1.000  N
  N10      1.0000 0.27810  0.37489  0.80707  Biso   1.000  N
  O21      1.0000 0.62902  0.50473  0.89390  Biso   1.000  O
  O22      1.0000 0.55441  0.48212  0.86286  Biso   1.000  O
  O23      1.0000 0.93937  0.38312  0.68436  Biso   1.000  O
  O24      1.0000 0.04110  0.34050  0.66454  Biso   1.000  O
  O25      1.0000 0.40775  0.38101  0.86809  Biso   1.000  O
  H85      1.0000 0.39570  0.42130  0.87550  Biso   1.000  H
  C113     1.0000 0.60740  0.95030  0.82785  Biso   1.000  C
  H86      1.0000 0.57200  0.97410  0.81770  Biso   1.000  H
  C114     1.0000 0.60090  0.87284  0.83143  Biso   1.000  C
  H87      1.0000 0.56170  0.84510  0.82370  Biso   1.000  H
  C115     1.0000 0.64952  0.83518  0.84583  Biso   1.000  C
  C116     1.0000 0.70930  0.87974  0.85449  Biso   1.000  C
  H88      1.0000 0.74860  0.85620  0.86330  Biso   1.000  H
  C117     1.0000 0.71204  0.95596  0.85044  Biso   1.000  C
  H89      1.0000 0.75300  0.98440  0.85700  Biso   1.000  H
  C118     1.0000 0.63976  0.75427  0.85231  Biso   1.000  C
  C119     1.0000 0.60790  0.70096  0.83744  Biso   1.000  C
  H90      1.0000 0.59480  0.71560  0.82210  Biso   1.000  H
  C120     1.0000 0.59510  0.62677  0.84464  Biso   1.000  C
  H91      1.0000 0.57310  0.59100  0.83420  Biso   1.000  H
  C121     1.0000 0.61357  0.60346  0.86686  Biso   1.000  C
  C122     1.0000 0.64810  0.65551  0.88115  Biso   1.000  C
  H92      1.0000 0.66220  0.64050  0.89630  Biso   1.000  H
  C123     1.0000 0.66260  0.72887  0.87398  Biso   1.000  C
  H93      1.0000 0.68880  0.76300  0.88400  Biso   1.000  H
  C124     1.0000 0.59770  0.52358  0.87512  Biso   1.000  C
  C125     1.0000 0.29710  0.33010  0.78974  Biso   1.000  C
  H94      1.0000 0.34230  0.30010  0.79120  Biso   1.000  H
  C126     1.0000 0.25510  0.32390  0.76925  Biso   1.000  C
  H95      1.0000 0.27130  0.29010  0.75730  Biso   1.000  H
  C127     1.0000 0.18942  0.36756  0.76652  Biso   1.000  C
  C128     1.0000 0.16430  0.40940  0.78633  Biso   1.000  C
  H96      1.0000 0.11670  0.43560  0.78610  Biso   1.000  H
  C129     1.0000 0.20950  0.41140  0.80557  Biso   1.000  C
  H97      1.0000 0.19220  0.43980  0.81860  Biso   1.000  H
  C130     1.0000 0.14286  0.36523  0.74511  Biso   1.000  C
  C131     1.0000 0.17800  0.37080  0.72336  Biso   1.000  C
  H98      1.0000 0.23200  0.37600  0.72230  Biso   1.000  H
  C132     1.0000 0.13390  0.36875  0.70357  Biso   1.000  C
  H99      1.0000 0.15810  0.37160  0.68890  Biso   1.000  H
  C133     1.0000 0.05485  0.36259  0.70473  Biso   1.000  C
  C134     1.0000 0.02027  0.35960  0.72608  Biso   1.000  C
  H100     1.0000 0.96600  0.35730  0.72710  Biso   1.000  H
  C135     1.0000 0.06365  0.35980  0.74615  Biso   1.000  C
  H101     1.0000 0.03890  0.35610  0.76070  Biso   1.000  H
  C136     1.0000 0.00762  0.36254  0.68303  Biso   1.000  C
  C137     1.0000 0.30000  0.41710  0.78750  Biso   1.000  C
  H102     1.0000 0.34530  0.44710  0.78820  Biso   1.000  H
  C138     1.0000 0.25860  0.41660  0.76757  Biso   1.000  C
  H103     1.0000 0.27360  0.44690  0.75470  Biso   1.000  H
  C139     1.0000 0.17260  0.32930  0.78537  Biso   1.000  C
  H104     1.0000 0.12930  0.29640  0.78560  Biso   1.000  H
  C140     1.0000 0.21810  0.33700  0.80494  Biso   1.000  C
  H105     1.0000 0.20150  0.31020  0.81830  Biso   1.000  H
  Co11     1.0000 0.84606  0.88414  0.33759  Biso   1.000  Co
  Co12     1.0000 0.02318  0.87284  0.36999  Biso   1.000  Co
  N11      1.0000 0.15989  0.49357  0.33769  Biso   1.000  N
  N12      1.0000 0.77810  0.87489  0.30707  Biso   1.000  N
  O26      1.0000 0.12902  0.00473  0.39390  Biso   1.000  O
  O27      1.0000 0.05441  0.98212  0.36286  Biso   1.000  O
  O28      1.0000 0.43937  0.88312  0.18436  Biso   1.000  O
  O29      1.0000 0.54110  0.84050  0.16454  Biso   1.000  O
  O30      1.0000 0.90775  0.88101  0.36809  Biso   1.000  O
  H106     1.0000 0.89570  0.92130  0.37550  Biso   1.000  H
  C141     1.0000 0.10740  0.45030  0.32785  Biso   1.000  C
  H107     1.0000 0.07200  0.47410  0.31770  Biso   1.000  H
  C142     1.0000 0.10090  0.37284  0.33143  Biso   1.000  C
  H108     1.0000 0.06170  0.34510  0.32370  Biso   1.000  H
  C143     1.0000 0.14952  0.33518  0.34583  Biso   1.000  C
  C144     1.0000 0.20930  0.37974  0.35449  Biso   1.000  C
  H109     1.0000 0.24860  0.35620  0.36330  Biso   1.000  H
  C145     1.0000 0.21204  0.45596  0.35044  Biso   1.000  C
  H110     1.0000 0.25300  0.48440  0.35700  Biso   1.000  H
  C146     1.0000 0.13976  0.25427  0.35231  Biso   1.000  C
  C147     1.0000 0.10790  0.20096  0.33744  Biso   1.000  C
  H111     1.0000 0.09480  0.21560  0.32210  Biso   1.000  H
  C148     1.0000 0.09510  0.12677  0.34464  Biso   1.000  C
  H112     1.0000 0.07310  0.09100  0.33420  Biso   1.000  H
  C149     1.0000 0.11357  0.10346  0.36686  Biso   1.000  C
  C150     1.0000 0.14810  0.15551  0.38115  Biso   1.000  C
  H113     1.0000 0.16220  0.14050  0.39630  Biso   1.000  H
  C151     1.0000 0.16260  0.22887  0.37398  Biso   1.000  C
  H114     1.0000 0.18880  0.26300  0.38400  Biso   1.000  H
  C152     1.0000 0.09770  0.02358  0.37512  Biso   1.000  C
  C153     1.0000 0.79710  0.83010  0.28974  Biso   1.000  C
  H115     1.0000 0.84230  0.80010  0.29120  Biso   1.000  H
  C154     1.0000 0.75510  0.82390  0.26925  Biso   1.000  C
  H116     1.0000 0.77130  0.79010  0.25730  Biso   1.000  H
  C155     1.0000 0.68942  0.86756  0.26652  Biso   1.000  C
  C156     1.0000 0.66430  0.90940  0.28633  Biso   1.000  C
  H117     1.0000 0.61670  0.93560  0.28610  Biso   1.000  H
  C157     1.0000 0.70950  0.91140  0.30557  Biso   1.000  C
  H118     1.0000 0.69220  0.93980  0.31860  Biso   1.000  H
  C158     1.0000 0.64286  0.86523  0.24511  Biso   1.000  C
  C159     1.0000 0.67800  0.87080  0.22336  Biso   1.000  C
  H119     1.0000 0.73200  0.87600  0.22230  Biso   1.000  H
  C160     1.0000 0.63390  0.86875  0.20357  Biso   1.000  C
  H120     1.0000 0.65810  0.87160  0.18890  Biso   1.000  H
  C161     1.0000 0.55485  0.86259  0.20473  Biso   1.000  C
  C162     1.0000 0.52027  0.85960  0.22608  Biso   1.000  C
  H121     1.0000 0.46600  0.85730  0.22710  Biso   1.000  H
  C163     1.0000 0.56365  0.85980  0.24615  Biso   1.000  C
  H122     1.0000 0.53890  0.85610  0.26070  Biso   1.000  H
  C164     1.0000 0.50762  0.86254  0.18303  Biso   1.000  C
  C165     1.0000 0.80000  0.91710  0.28750  Biso   1.000  C
  H123     1.0000 0.84530  0.94710  0.28820  Biso   1.000  H
  C166     1.0000 0.75860  0.91660  0.26757  Biso   1.000  C
  H124     1.0000 0.77360  0.94690  0.25470  Biso   1.000  H
  C167     1.0000 0.67260  0.82930  0.28537  Biso   1.000  C
  H125     1.0000 0.62930  0.79640  0.28560  Biso   1.000  H
  C168     1.0000 0.71810  0.83700  0.30494  Biso   1.000  C
  H126     1.0000 0.70150  0.81020  0.31830  Biso   1.000  H
  Co13     1.0000 0.15394  0.61586  0.33759  Biso   1.000  Co
  Co14     1.0000 0.97682  0.62716  0.36999  Biso   1.000  Co
  N13      1.0000 0.84011  0.00643  0.33769  Biso   1.000  N
  N14      1.0000 0.22190  0.62511  0.30707  Biso   1.000  N
  O31      1.0000 0.87098  0.49527  0.39390  Biso   1.000  O
  O32      1.0000 0.94559  0.51788  0.36286  Biso   1.000  O
  O33      1.0000 0.56063  0.61688  0.18436  Biso   1.000  O
  O34      1.0000 0.45890  0.65950  0.16454  Biso   1.000  O
  O35      1.0000 0.09225  0.61899  0.36809  Biso   1.000  O
  H127     1.0000 0.10430  0.57870  0.37550  Biso   1.000  H
  C169     1.0000 0.89260  0.04970  0.32785  Biso   1.000  C
  H128     1.0000 0.92800  0.02590  0.31770  Biso   1.000  H
  C170     1.0000 0.89910  0.12716  0.33143  Biso   1.000  C
  H129     1.0000 0.93830  0.15490  0.32370  Biso   1.000  H
  C171     1.0000 0.85048  0.16482  0.34583  Biso   1.000  C
  C172     1.0000 0.79070  0.12026  0.35449  Biso   1.000  C
  H130     1.0000 0.75140  0.14380  0.36330  Biso   1.000  H
  C173     1.0000 0.78796  0.04404  0.35044  Biso   1.000  C
  H131     1.0000 0.74700  0.01560  0.35700  Biso   1.000  H
  C174     1.0000 0.86024  0.24573  0.35231  Biso   1.000  C
  C175     1.0000 0.89210  0.29904  0.33744  Biso   1.000  C
  H132     1.0000 0.90520  0.28440  0.32210  Biso   1.000  H
  C176     1.0000 0.90490  0.37323  0.34464  Biso   1.000  C
  H133     1.0000 0.92690  0.40900  0.33420  Biso   1.000  H
  C177     1.0000 0.88643  0.39654  0.36686  Biso   1.000  C
  C178     1.0000 0.85190  0.34449  0.38115  Biso   1.000  C
  H134     1.0000 0.83780  0.35950  0.39630  Biso   1.000  H
  C179     1.0000 0.83740  0.27113  0.37398  Biso   1.000  C
  H135     1.0000 0.81120  0.23700  0.38400  Biso   1.000  H
  C180     1.0000 0.90230  0.47642  0.37512  Biso   1.000  C
  C181     1.0000 0.20290  0.66990  0.28974  Biso   1.000  C
  H136     1.0000 0.15770  0.69990  0.29120  Biso   1.000  H
  C182     1.0000 0.24490  0.67610  0.26925  Biso   1.000  C
  H137     1.0000 0.22870  0.70990  0.25730  Biso   1.000  H
  C183     1.0000 0.31058  0.63244  0.26652  Biso   1.000  C
  C184     1.0000 0.33570  0.59060  0.28633  Biso   1.000  C
  H138     1.0000 0.38330  0.56440  0.28610  Biso   1.000  H
  C185     1.0000 0.29050  0.58860  0.30557  Biso   1.000  C
  H139     1.0000 0.30780  0.56020  0.31860  Biso   1.000  H
  C186     1.0000 0.35714  0.63477  0.24511  Biso   1.000  C
  C187     1.0000 0.32200  0.62920  0.22336  Biso   1.000  C
  H140     1.0000 0.26800  0.62400  0.22230  Biso   1.000  H
  C188     1.0000 0.36610  0.63125  0.20357  Biso   1.000  C
  H141     1.0000 0.34190  0.62840  0.18890  Biso   1.000  H
  C189     1.0000 0.44515  0.63741  0.20473  Biso   1.000  C
  C190     1.0000 0.47973  0.64040  0.22608  Biso   1.000  C
  H142     1.0000 0.53400  0.64270  0.22710  Biso   1.000  H
  C191     1.0000 0.43635  0.64020  0.24615  Biso   1.000  C
  H143     1.0000 0.46110  0.64390  0.26070  Biso   1.000  H
  C192     1.0000 0.49238  0.63746  0.18303  Biso   1.000  C
  C193     1.0000 0.20000  0.58290  0.28750  Biso   1.000  C
  H144     1.0000 0.15470  0.55290  0.28820  Biso   1.000  H
  C194     1.0000 0.24140  0.58340  0.26757  Biso   1.000  C
  H145     1.0000 0.22640  0.55310  0.25470  Biso   1.000  H
  C195     1.0000 0.32740  0.67070  0.28537  Biso   1.000  C
  H146     1.0000 0.37070  0.70360  0.28560  Biso   1.000  H
  C196     1.0000 0.28190  0.66300  0.30494  Biso   1.000  C
  H147     1.0000 0.29850  0.68980  0.31830  Biso   1.000  H
  Co15     1.0000 0.65394  0.11586  0.83759  Biso   1.000  Co
  Co16     1.0000 0.47682  0.12716  0.86999  Biso   1.000  Co
  N15      1.0000 0.34011  0.50643  0.83769  Biso   1.000  N
  N16      1.0000 0.72190  0.12511  0.80707  Biso   1.000  N
  O36      1.0000 0.37098  0.99527  0.89390  Biso   1.000  O
  O37      1.0000 0.44559  0.01788  0.86286  Biso   1.000  O
  O38      1.0000 0.06063  0.11688  0.68436  Biso   1.000  O
  O39      1.0000 0.95890  0.15950  0.66454  Biso   1.000  O
  O40      1.0000 0.59225  0.11899  0.86809  Biso   1.000  O
  H148     1.0000 0.60430  0.07870  0.87550  Biso   1.000  H
  C197     1.0000 0.39260  0.54970  0.82785  Biso   1.000  C
  H149     1.0000 0.42800  0.52590  0.81770  Biso   1.000  H
  C198     1.0000 0.39910  0.62716  0.83143  Biso   1.000  C
  H150     1.0000 0.43830  0.65490  0.82370  Biso   1.000  H
  C199     1.0000 0.35048  0.66482  0.84583  Biso   1.000  C
  C200     1.0000 0.29070  0.62026  0.85449  Biso   1.000  C
  H151     1.0000 0.25140  0.64380  0.86330  Biso   1.000  H
  C201     1.0000 0.28796  0.54404  0.85044  Biso   1.000  C
  H152     1.0000 0.24700  0.51560  0.85700  Biso   1.000  H
  C202     1.0000 0.36024  0.74573  0.85231  Biso   1.000  C
  C203     1.0000 0.39210  0.79904  0.83744  Biso   1.000  C
  H153     1.0000 0.40520  0.78440  0.82210  Biso   1.000  H
  C204     1.0000 0.40490  0.87323  0.84464  Biso   1.000  C
  H154     1.0000 0.42690  0.90900  0.83420  Biso   1.000  H
  C205     1.0000 0.38643  0.89654  0.86686  Biso   1.000  C
  C206     1.0000 0.35190  0.84449  0.88115  Biso   1.000  C
  H155     1.0000 0.33780  0.85950  0.89630  Biso   1.000  H
  C207     1.0000 0.33740  0.77113  0.87398  Biso   1.000  C
  H156     1.0000 0.31120  0.73700  0.88400  Biso   1.000  H
  C208     1.0000 0.40230  0.97642  0.87512  Biso   1.000  C
  C209     1.0000 0.70290  0.16990  0.78974  Biso   1.000  C
  H157     1.0000 0.65770  0.19990  0.79120  Biso   1.000  H
  C210     1.0000 0.74490  0.17610  0.76925  Biso   1.000  C
  H158     1.0000 0.72870  0.20990  0.75730  Biso   1.000  H
  C211     1.0000 0.81058  0.13244  0.76652  Biso   1.000  C
  C212     1.0000 0.83570  0.09060  0.78633  Biso   1.000  C
  H159     1.0000 0.88330  0.06440  0.78610  Biso   1.000  H
  C213     1.0000 0.79050  0.08860  0.80557  Biso   1.000  C
  H160     1.0000 0.80780  0.06020  0.81860  Biso   1.000  H
  C214     1.0000 0.85714  0.13477  0.74511  Biso   1.000  C
  C215     1.0000 0.82200  0.12920  0.72336  Biso   1.000  C
  H161     1.0000 0.76800  0.12400  0.72230  Biso   1.000  H
  C216     1.0000 0.86610  0.13125  0.70357  Biso   1.000  C
  H162     1.0000 0.84190  0.12840  0.68890  Biso   1.000  H
  C217     1.0000 0.94515  0.13741  0.70473  Biso   1.000  C
  C218     1.0000 0.97973  0.14040  0.72608  Biso   1.000  C
  H163     1.0000 0.03400  0.14270  0.72710  Biso   1.000  H
  C219     1.0000 0.93635  0.14020  0.74615  Biso   1.000  C
  H164     1.0000 0.96110  0.14390  0.76070  Biso   1.000  H
  C220     1.0000 0.99238  0.13746  0.68303  Biso   1.000  C
  C221     1.0000 0.70000  0.08290  0.78750  Biso   1.000  C
  H165     1.0000 0.65470  0.05290  0.78820  Biso   1.000  H
  C222     1.0000 0.74140  0.08340  0.76757  Biso   1.000  C
  H166     1.0000 0.72640  0.05310  0.75470  Biso   1.000  H
  C223     1.0000 0.82740  0.17070  0.78537  Biso   1.000  C
  H167     1.0000 0.87070  0.20360  0.78560  Biso   1.000  H
  C224     1.0000 0.78190  0.16300  0.80494  Biso   1.000  C
  H168     1.0000 0.79850  0.18980  0.81830  Biso   1.000  H
  Co17     1.0000 0.86586  0.59606  0.41241  Biso   1.000  Co
  Co18     1.0000 0.87716  0.77318  0.38001  Biso   1.000  Co
  N17      1.0000 0.25643  0.90989  0.41231  Biso   1.000  N
  N18      1.0000 0.87511  0.52810  0.44293  Biso   1.000  N
  O41      1.0000 0.74527  0.87902  0.35610  Biso   1.000  O
  O42      1.0000 0.76788  0.80441  0.38714  Biso   1.000  O
  O43      1.0000 0.86688  0.18937  0.56564  Biso   1.000  O
  O44      1.0000 0.90950  0.29110  0.58546  Biso   1.000  O
  O45      1.0000 0.86899  0.65775  0.38191  Biso   1.000  O
  H169     1.0000 0.82870  0.64570  0.37450  Biso   1.000  H
  C225     1.0000 0.29970  0.85740  0.42215  Biso   1.000  C
  H170     1.0000 0.27590  0.82200  0.43230  Biso   1.000  H
  C226     1.0000 0.37716  0.85090  0.41857  Biso   1.000  C
  H171     1.0000 0.40490  0.81170  0.42630  Biso   1.000  H
  C227     1.0000 0.41482  0.89952  0.40417  Biso   1.000  C
  C228     1.0000 0.37026  0.95930  0.39551  Biso   1.000  C
  H172     1.0000 0.39380  0.99860  0.38670  Biso   1.000  H
  C229     1.0000 0.29404  0.96204  0.39956  Biso   1.000  C
  H173     1.0000 0.26560  0.00300  0.39300  Biso   1.000  H
  C230     1.0000 0.49573  0.88976  0.39769  Biso   1.000  C
  C231     1.0000 0.54904  0.85790  0.41256  Biso   1.000  C
  H174     1.0000 0.53440  0.84480  0.42790  Biso   1.000  H
  C232     1.0000 0.62323  0.84510  0.40536  Biso   1.000  C
  H175     1.0000 0.65900  0.82310  0.41580  Biso   1.000  H
  C233     1.0000 0.64654  0.86357  0.38314  Biso   1.000  C
  C234     1.0000 0.59449  0.89810  0.36885  Biso   1.000  C
  H176     1.0000 0.60950  0.91220  0.35370  Biso   1.000  H
  C235     1.0000 0.52113  0.91260  0.37602  Biso   1.000  C
  H177     1.0000 0.48700  0.93880  0.36600  Biso   1.000  H
  C236     1.0000 0.72642  0.84770  0.37488  Biso   1.000  C
  C237     1.0000 0.91990  0.54710  0.46026  Biso   1.000  C
  H178     1.0000 0.94990  0.59230  0.45880  Biso   1.000  H
  C238     1.0000 0.92610  0.50510  0.48075  Biso   1.000  C
  H179     1.0000 0.95990  0.52130  0.49270  Biso   1.000  H
  C239     1.0000 0.88244  0.43942  0.48348  Biso   1.000  C
  C240     1.0000 0.84060  0.41430  0.46367  Biso   1.000  C
  H180     1.0000 0.81440  0.36670  0.46390  Biso   1.000  H
  C241     1.0000 0.83860  0.45950  0.44443  Biso   1.000  C
  H181     1.0000 0.81020  0.44220  0.43140  Biso   1.000  H
  C242     1.0000 0.88477  0.39286  0.50489  Biso   1.000  C
  C243     1.0000 0.87920  0.42800  0.52664  Biso   1.000  C
  H182     1.0000 0.87400  0.48200  0.52770  Biso   1.000  H
  C244     1.0000 0.88125  0.38390  0.54643  Biso   1.000  C
  H183     1.0000 0.87840  0.40810  0.56110  Biso   1.000  H
  C245     1.0000 0.88741  0.30485  0.54527  Biso   1.000  C
  C246     1.0000 0.89040  0.27027  0.52392  Biso   1.000  C
  H184     1.0000 0.89270  0.21600  0.52290  Biso   1.000  H
  C247     1.0000 0.89020  0.31365  0.50385  Biso   1.000  C
  H185     1.0000 0.89390  0.28890  0.48930  Biso   1.000  H
  C248     1.0000 0.88746  0.25762  0.56697  Biso   1.000  C
  C249     1.0000 0.83290  0.55000  0.46250  Biso   1.000  C
  H186     1.0000 0.80290  0.59530  0.46180  Biso   1.000  H
  C250     1.0000 0.83340  0.50860  0.48243  Biso   1.000  C
  H187     1.0000 0.80310  0.52360  0.49530  Biso   1.000  H
  C251     1.0000 0.92070  0.42260  0.46463  Biso   1.000  C
  H188     1.0000 0.95360  0.37930  0.46440  Biso   1.000  H
  C252     1.0000 0.91300  0.46810  0.44506  Biso   1.000  C
  H189     1.0000 0.93980  0.45150  0.43170  Biso   1.000  H
  Co19     1.0000 0.36586  0.09606  0.91241  Biso   1.000  Co
  Co20     1.0000 0.37716  0.27318  0.88001  Biso   1.000  Co
  N19      1.0000 0.75643  0.40989  0.91231  Biso   1.000  N
  N20      1.0000 0.37511  0.02810  0.94293  Biso   1.000  N
  O46      1.0000 0.24527  0.37902  0.85610  Biso   1.000  O
  O47      1.0000 0.26788  0.30441  0.88714  Biso   1.000  O
  O48      1.0000 0.36688  0.68937  0.06564  Biso   1.000  O
  O49      1.0000 0.40950  0.79110  0.08546  Biso   1.000  O
  O50      1.0000 0.36899  0.15775  0.88191  Biso   1.000  O
  H190     1.0000 0.32870  0.14570  0.87450  Biso   1.000  H
  C253     1.0000 0.79970  0.35740  0.92215  Biso   1.000  C
  H191     1.0000 0.77590  0.32200  0.93230  Biso   1.000  H
  C254     1.0000 0.87716  0.35090  0.91857  Biso   1.000  C
  H192     1.0000 0.90490  0.31170  0.92630  Biso   1.000  H
  C255     1.0000 0.91482  0.39952  0.90417  Biso   1.000  C
  C256     1.0000 0.87026  0.45930  0.89551  Biso   1.000  C
  H193     1.0000 0.89380  0.49860  0.88670  Biso   1.000  H
  C257     1.0000 0.79404  0.46204  0.89956  Biso   1.000  C
  H194     1.0000 0.76560  0.50300  0.89300  Biso   1.000  H
  C258     1.0000 0.99573  0.38976  0.89769  Biso   1.000  C
  C259     1.0000 0.04904  0.35790  0.91256  Biso   1.000  C
  H195     1.0000 0.03440  0.34480  0.92790  Biso   1.000  H
  C260     1.0000 0.12323  0.34510  0.90536  Biso   1.000  C
  H196     1.0000 0.15900  0.32310  0.91580  Biso   1.000  H
  C261     1.0000 0.14654  0.36357  0.88314  Biso   1.000  C
  C262     1.0000 0.09449  0.39810  0.86885  Biso   1.000  C
  H197     1.0000 0.10950  0.41220  0.85370  Biso   1.000  H
  C263     1.0000 0.02113  0.41260  0.87602  Biso   1.000  C
  H198     1.0000 0.98700  0.43880  0.86600  Biso   1.000  H
  C264     1.0000 0.22642  0.34770  0.87488  Biso   1.000  C
  C265     1.0000 0.41990  0.04710  0.96026  Biso   1.000  C
  H199     1.0000 0.44990  0.09230  0.95880  Biso   1.000  H
  C266     1.0000 0.42610  0.00510  0.98075  Biso   1.000  C
  H200     1.0000 0.45990  0.02130  0.99270  Biso   1.000  H
  C267     1.0000 0.38244  0.93942  0.98348  Biso   1.000  C
  C268     1.0000 0.34060  0.91430  0.96367  Biso   1.000  C
  H201     1.0000 0.31440  0.86670  0.96390  Biso   1.000  H
  C269     1.0000 0.33860  0.95950  0.94443  Biso   1.000  C
  H202     1.0000 0.31020  0.94220  0.93140  Biso   1.000  H
  C270     1.0000 0.38477  0.89286  0.00489  Biso   1.000  C
  C271     1.0000 0.37920  0.92800  0.02664  Biso   1.000  C
  H203     1.0000 0.37400  0.98200  0.02770  Biso   1.000  H
  C272     1.0000 0.38125  0.88390  0.04643  Biso   1.000  C
  H204     1.0000 0.37840  0.90810  0.06110  Biso   1.000  H
  C273     1.0000 0.38741  0.80485  0.04527  Biso   1.000  C
  C274     1.0000 0.39040  0.77027  0.02392  Biso   1.000  C
  H205     1.0000 0.39270  0.71600  0.02290  Biso   1.000  H
  C275     1.0000 0.39020  0.81365  0.00385  Biso   1.000  C
  H206     1.0000 0.39390  0.78890  0.98930  Biso   1.000  H
  C276     1.0000 0.38746  0.75762  0.06697  Biso   1.000  C
  C277     1.0000 0.33290  0.05000  0.96250  Biso   1.000  C
  H207     1.0000 0.30290  0.09530  0.96180  Biso   1.000  H
  C278     1.0000 0.33340  0.00860  0.98243  Biso   1.000  C
  H208     1.0000 0.30310  0.02360  0.99530  Biso   1.000  H
  C279     1.0000 0.42070  0.92260  0.96463  Biso   1.000  C
  H209     1.0000 0.45360  0.87930  0.96440  Biso   1.000  H
  C280     1.0000 0.41300  0.96810  0.94506  Biso   1.000  C
  H210     1.0000 0.43980  0.95150  0.93170  Biso   1.000  H
  Co21     1.0000 0.63414  0.40394  0.91241  Biso   1.000  Co
  Co22     1.0000 0.62284  0.22682  0.88001  Biso   1.000  Co
  N21      1.0000 0.24357  0.09011  0.91231  Biso   1.000  N
  N22      1.0000 0.62489  0.47190  0.94293  Biso   1.000  N
  O51      1.0000 0.75473  0.12098  0.85610  Biso   1.000  O
  O52      1.0000 0.73212  0.19559  0.88714  Biso   1.000  O
  O53      1.0000 0.63312  0.81063  0.06564  Biso   1.000  O
  O54      1.0000 0.59050  0.70890  0.08546  Biso   1.000  O
  O55      1.0000 0.63101  0.34225  0.88191  Biso   1.000  O
  H211     1.0000 0.67130  0.35430  0.87450  Biso   1.000  H
  C281     1.0000 0.20030  0.14260  0.92215  Biso   1.000  C
  H212     1.0000 0.22410  0.17800  0.93230  Biso   1.000  H
  C282     1.0000 0.12284  0.14910  0.91857  Biso   1.000  C
  H213     1.0000 0.09510  0.18830  0.92630  Biso   1.000  H
  C283     1.0000 0.08518  0.10048  0.90417  Biso   1.000  C
  C284     1.0000 0.12974  0.04070  0.89551  Biso   1.000  C
  H214     1.0000 0.10620  0.00140  0.88670  Biso   1.000  H
  C285     1.0000 0.20596  0.03796  0.89956  Biso   1.000  C
  H215     1.0000 0.23440  0.99700  0.89300  Biso   1.000  H
  C286     1.0000 0.00427  0.11024  0.89769  Biso   1.000  C
  C287     1.0000 0.95096  0.14210  0.91256  Biso   1.000  C
  H216     1.0000 0.96560  0.15520  0.92790  Biso   1.000  H
  C288     1.0000 0.87677  0.15490  0.90536  Biso   1.000  C
  H217     1.0000 0.84100  0.17690  0.91580  Biso   1.000  H
  C289     1.0000 0.85346  0.13643  0.88314  Biso   1.000  C
  C290     1.0000 0.90551  0.10190  0.86885  Biso   1.000  C
  H218     1.0000 0.89050  0.08780  0.85370  Biso   1.000  H
  C291     1.0000 0.97887  0.08740  0.87602  Biso   1.000  C
  H219     1.0000 0.01300  0.06120  0.86600  Biso   1.000  H
  C292     1.0000 0.77358  0.15230  0.87488  Biso   1.000  C
  C293     1.0000 0.58010  0.45290  0.96026  Biso   1.000  C
  H220     1.0000 0.55010  0.40770  0.95880  Biso   1.000  H
  C294     1.0000 0.57390  0.49490  0.98075  Biso   1.000  C
  H221     1.0000 0.54010  0.47870  0.99270  Biso   1.000  H
  C295     1.0000 0.61756  0.56058  0.98348  Biso   1.000  C
  C296     1.0000 0.65940  0.58570  0.96367  Biso   1.000  C
  H222     1.0000 0.68560  0.63330  0.96390  Biso   1.000  H
  C297     1.0000 0.66140  0.54050  0.94443  Biso   1.000  C
  H223     1.0000 0.68980  0.55780  0.93140  Biso   1.000  H
  C298     1.0000 0.61523  0.60714  0.00489  Biso   1.000  C
  C299     1.0000 0.62080  0.57200  0.02664  Biso   1.000  C
  H224     1.0000 0.62600  0.51800  0.02770  Biso   1.000  H
  C300     1.0000 0.61875  0.61610  0.04643  Biso   1.000  C
  H225     1.0000 0.62160  0.59190  0.06110  Biso   1.000  H
  C301     1.0000 0.61259  0.69515  0.04527  Biso   1.000  C
  C302     1.0000 0.60960  0.72973  0.02392  Biso   1.000  C
  H226     1.0000 0.60730  0.78400  0.02290  Biso   1.000  H
  C303     1.0000 0.60980  0.68635  0.00385  Biso   1.000  C
  H227     1.0000 0.60610  0.71110  0.98930  Biso   1.000  H
  C304     1.0000 0.61254  0.74238  0.06697  Biso   1.000  C
  C305     1.0000 0.66710  0.45000  0.96250  Biso   1.000  C
  H228     1.0000 0.69710  0.40470  0.96180  Biso   1.000  H
  C306     1.0000 0.66660  0.49140  0.98243  Biso   1.000  C
  H229     1.0000 0.69690  0.47640  0.99530  Biso   1.000  H
  C307     1.0000 0.57930  0.57740  0.96463  Biso   1.000  C
  H230     1.0000 0.54640  0.62070  0.96440  Biso   1.000  H
  C308     1.0000 0.58700  0.53190  0.94506  Biso   1.000  C
  H231     1.0000 0.56020  0.54850  0.93170  Biso   1.000  H
  Co23     1.0000 0.13414  0.90394  0.41241  Biso   1.000  Co
  Co24     1.0000 0.12284  0.72682  0.38001  Biso   1.000  Co
  N23      1.0000 0.74357  0.59011  0.41231  Biso   1.000  N
  N24      1.0000 0.12489  0.97190  0.44293  Biso   1.000  N
  O56      1.0000 0.25473  0.62098  0.35610  Biso   1.000  O
  O57      1.0000 0.23212  0.69559  0.38714  Biso   1.000  O
  O58      1.0000 0.13312  0.31063  0.56564  Biso   1.000  O
  O59      1.0000 0.09050  0.20890  0.58546  Biso   1.000  O
  O60      1.0000 0.13101  0.84225  0.38191  Biso   1.000  O
  H232     1.0000 0.17130  0.85430  0.37450  Biso   1.000  H
  C309     1.0000 0.70030  0.64260  0.42215  Biso   1.000  C
  H233     1.0000 0.72410  0.67800  0.43230  Biso   1.000  H
  C310     1.0000 0.62284  0.64910  0.41857  Biso   1.000  C
  H234     1.0000 0.59510  0.68830  0.42630  Biso   1.000  H
  C311     1.0000 0.58518  0.60048  0.40417  Biso   1.000  C
  C312     1.0000 0.62974  0.54070  0.39551  Biso   1.000  C
  H235     1.0000 0.60620  0.50140  0.38670  Biso   1.000  H
  C313     1.0000 0.70596  0.53796  0.39956  Biso   1.000  C
  H236     1.0000 0.73440  0.49700  0.39300  Biso   1.000  H
  C314     1.0000 0.50427  0.61024  0.39769  Biso   1.000  C
  C315     1.0000 0.45096  0.64210  0.41256  Biso   1.000  C
  H237     1.0000 0.46560  0.65520  0.42790  Biso   1.000  H
  C316     1.0000 0.37677  0.65490  0.40536  Biso   1.000  C
  H238     1.0000 0.34100  0.67690  0.41580  Biso   1.000  H
  C317     1.0000 0.35346  0.63643  0.38314  Biso   1.000  C
  C318     1.0000 0.40551  0.60190  0.36885  Biso   1.000  C
  H239     1.0000 0.39050  0.58780  0.35370  Biso   1.000  H
  C319     1.0000 0.47887  0.58740  0.37602  Biso   1.000  C
  H240     1.0000 0.51300  0.56120  0.36600  Biso   1.000  H
  C320     1.0000 0.27358  0.65230  0.37488  Biso   1.000  C
  C321     1.0000 0.08010  0.95290  0.46026  Biso   1.000  C
  H241     1.0000 0.05010  0.90770  0.45880  Biso   1.000  H
  C322     1.0000 0.07390  0.99490  0.48075  Biso   1.000  C
  H242     1.0000 0.04010  0.97870  0.49270  Biso   1.000  H
  C323     1.0000 0.11756  0.06058  0.48348  Biso   1.000  C
  C324     1.0000 0.15940  0.08570  0.46367  Biso   1.000  C
  H243     1.0000 0.18560  0.13330  0.46390  Biso   1.000  H
  C325     1.0000 0.16140  0.04050  0.44443  Biso   1.000  C
  H244     1.0000 0.18980  0.05780  0.43140  Biso   1.000  H
  C326     1.0000 0.11523  0.10714  0.50489  Biso   1.000  C
  C327     1.0000 0.12080  0.07200  0.52664  Biso   1.000  C
  H245     1.0000 0.12600  0.01800  0.52770  Biso   1.000  H
  C328     1.0000 0.11875  0.11610  0.54643  Biso   1.000  C
  H246     1.0000 0.12160  0.09190  0.56110  Biso   1.000  H
  C329     1.0000 0.11259  0.19515  0.54527  Biso   1.000  C
  C330     1.0000 0.10960  0.22973  0.52392  Biso   1.000  C
  H247     1.0000 0.10730  0.28400  0.52290  Biso   1.000  H
  C331     1.0000 0.10980  0.18635  0.50385  Biso   1.000  C
  H248     1.0000 0.10610  0.21110  0.48930  Biso   1.000  H
  C332     1.0000 0.11254  0.24238  0.56697  Biso   1.000  C
  C333     1.0000 0.16710  0.95000  0.46250  Biso   1.000  C
  H249     1.0000 0.19710  0.90470  0.46180  Biso   1.000  H
  C334     1.0000 0.16660  0.99140  0.48243  Biso   1.000  C
  H250     1.0000 0.19690  0.97640  0.49530  Biso   1.000  H
  C335     1.0000 0.07930  0.07740  0.46463  Biso   1.000  C
  H251     1.0000 0.04640  0.12070  0.46440  Biso   1.000  H
  C336     1.0000 0.08700  0.03190  0.44506  Biso   1.000  C
  H252     1.0000 0.06020  0.04850  0.43170  Biso   1.000  H
  Co25     1.0000 0.65394  0.61586  0.16241  Biso   1.000  Co
  Co26     1.0000 0.47682  0.62716  0.13001  Biso   1.000  Co
  N25      1.0000 0.34011  0.00643  0.16231  Biso   1.000  N
  N26      1.0000 0.72190  0.62511  0.19293  Biso   1.000  N
  O61      1.0000 0.37098  0.49527  0.10610  Biso   1.000  O
  O62      1.0000 0.44559  0.51788  0.13714  Biso   1.000  O
  O63      1.0000 0.06063  0.61688  0.31564  Biso   1.000  O
  O64      1.0000 0.95890  0.65950  0.33546  Biso   1.000  O
  O65      1.0000 0.59225  0.61899  0.13191  Biso   1.000  O
  H253     1.0000 0.60430  0.57870  0.12450  Biso   1.000  H
  C337     1.0000 0.39260  0.04970  0.17215  Biso   1.000  C
  H254     1.0000 0.42800  0.02590  0.18230  Biso   1.000  H
  C338     1.0000 0.39910  0.12716  0.16857  Biso   1.000  C
  H255     1.0000 0.43830  0.15490  0.17630  Biso   1.000  H
  C339     1.0000 0.35048  0.16482  0.15417  Biso   1.000  C
  C340     1.0000 0.29070  0.12026  0.14551  Biso   1.000  C
  H256     1.0000 0.25140  0.14380  0.13670  Biso   1.000  H
  C341     1.0000 0.28796  0.04404  0.14956  Biso   1.000  C
  H257     1.0000 0.24700  0.01560  0.14300  Biso   1.000  H
  C342     1.0000 0.36024  0.24573  0.14769  Biso   1.000  C
  C343     1.0000 0.39210  0.29904  0.16256  Biso   1.000  C
  H258     1.0000 0.40520  0.28440  0.17790  Biso   1.000  H
  C344     1.0000 0.40490  0.37323  0.15536  Biso   1.000  C
  H259     1.0000 0.42690  0.40900  0.16580  Biso   1.000  H
  C345     1.0000 0.38643  0.39654  0.13314  Biso   1.000  C
  C346     1.0000 0.35190  0.34449  0.11885  Biso   1.000  C
  H260     1.0000 0.33780  0.35950  0.10370  Biso   1.000  H
  C347     1.0000 0.33740  0.27113  0.12602  Biso   1.000  C
  H261     1.0000 0.31120  0.23700  0.11600  Biso   1.000  H
  C348     1.0000 0.40230  0.47642  0.12488  Biso   1.000  C
  C349     1.0000 0.70290  0.66990  0.21026  Biso   1.000  C
  H262     1.0000 0.65770  0.69990  0.20880  Biso   1.000  H
  C350     1.0000 0.74490  0.67610  0.23075  Biso   1.000  C
  H263     1.0000 0.72870  0.70990  0.24270  Biso   1.000  H
  C351     1.0000 0.81058  0.63244  0.23348  Biso   1.000  C
  C352     1.0000 0.83570  0.59060  0.21367  Biso   1.000  C
  H264     1.0000 0.88330  0.56440  0.21390  Biso   1.000  H
  C353     1.0000 0.79050  0.58860  0.19443  Biso   1.000  C
  H265     1.0000 0.80780  0.56020  0.18140  Biso   1.000  H
  C354     1.0000 0.85714  0.63477  0.25489  Biso   1.000  C
  C355     1.0000 0.82200  0.62920  0.27664  Biso   1.000  C
  H266     1.0000 0.76800  0.62400  0.27770  Biso   1.000  H
  C356     1.0000 0.86610  0.63125  0.29643  Biso   1.000  C
  H267     1.0000 0.84190  0.62840  0.31110  Biso   1.000  H
  C357     1.0000 0.94515  0.63741  0.29527  Biso   1.000  C
  C358     1.0000 0.97973  0.64040  0.27392  Biso   1.000  C
  H268     1.0000 0.03400  0.64270  0.27290  Biso   1.000  H
  C359     1.0000 0.93635  0.64020  0.25385  Biso   1.000  C
  H269     1.0000 0.96110  0.64390  0.23930  Biso   1.000  H
  C360     1.0000 0.99238  0.63746  0.31697  Biso   1.000  C
  C361     1.0000 0.70000  0.58290  0.21250  Biso   1.000  C
  H270     1.0000 0.65470  0.55290  0.21180  Biso   1.000  H
  C362     1.0000 0.74140  0.58340  0.23243  Biso   1.000  C
  H271     1.0000 0.72640  0.55310  0.24530  Biso   1.000  H
  C363     1.0000 0.82740  0.67070  0.21463  Biso   1.000  C
  H272     1.0000 0.87070  0.70360  0.21440  Biso   1.000  H
  C364     1.0000 0.78190  0.66300  0.19506  Biso   1.000  C
  H273     1.0000 0.79850  0.68980  0.18170  Biso   1.000  H
  Co27     1.0000 0.15394  0.11586  0.66241  Biso   1.000  Co
  Co28     1.0000 0.97682  0.12716  0.63001  Biso   1.000  Co
  N27      1.0000 0.84011  0.50643  0.66231  Biso   1.000  N
  N28      1.0000 0.22190  0.12511  0.69293  Biso   1.000  N
  O66      1.0000 0.87098  0.99527  0.60610  Biso   1.000  O
  O67      1.0000 0.94559  0.01788  0.63714  Biso   1.000  O
  O68      1.0000 0.56063  0.11688  0.81564  Biso   1.000  O
  O69      1.0000 0.45890  0.15950  0.83546  Biso   1.000  O
  O70      1.0000 0.09225  0.11899  0.63191  Biso   1.000  O
  H274     1.0000 0.10430  0.07870  0.62450  Biso   1.000  H
  C365     1.0000 0.89260  0.54970  0.67215  Biso   1.000  C
  H275     1.0000 0.92800  0.52590  0.68230  Biso   1.000  H
  C366     1.0000 0.89910  0.62716  0.66857  Biso   1.000  C
  H276     1.0000 0.93830  0.65490  0.67630  Biso   1.000  H
  C367     1.0000 0.85048  0.66482  0.65417  Biso   1.000  C
  C368     1.0000 0.79070  0.62026  0.64551  Biso   1.000  C
  H277     1.0000 0.75140  0.64380  0.63670  Biso   1.000  H
  C369     1.0000 0.78796  0.54404  0.64956  Biso   1.000  C
  H278     1.0000 0.74700  0.51560  0.64300  Biso   1.000  H
  C370     1.0000 0.86024  0.74573  0.64769  Biso   1.000  C
  C371     1.0000 0.89210  0.79904  0.66256  Biso   1.000  C
  H279     1.0000 0.90520  0.78440  0.67790  Biso   1.000  H
  C372     1.0000 0.90490  0.87323  0.65536  Biso   1.000  C
  H280     1.0000 0.92690  0.90900  0.66580  Biso   1.000  H
  C373     1.0000 0.88643  0.89654  0.63314  Biso   1.000  C
  C374     1.0000 0.85190  0.84449  0.61885  Biso   1.000  C
  H281     1.0000 0.83780  0.85950  0.60370  Biso   1.000  H
  C375     1.0000 0.83740  0.77113  0.62602  Biso   1.000  C
  H282     1.0000 0.81120  0.73700  0.61600  Biso   1.000  H
  C376     1.0000 0.90230  0.97642  0.62488  Biso   1.000  C
  C377     1.0000 0.20290  0.16990  0.71026  Biso   1.000  C
  H283     1.0000 0.15770  0.19990  0.70880  Biso   1.000  H
  C378     1.0000 0.24490  0.17610  0.73075  Biso   1.000  C
  H284     1.0000 0.22870  0.20990  0.74270  Biso   1.000  H
  C379     1.0000 0.31058  0.13244  0.73348  Biso   1.000  C
  C380     1.0000 0.33570  0.09060  0.71367  Biso   1.000  C
  H285     1.0000 0.38330  0.06440  0.71390  Biso   1.000  H
  C381     1.0000 0.29050  0.08860  0.69443  Biso   1.000  C
  H286     1.0000 0.30780  0.06020  0.68140  Biso   1.000  H
  C382     1.0000 0.35714  0.13477  0.75489  Biso   1.000  C
  C383     1.0000 0.32200  0.12920  0.77664  Biso   1.000  C
  H287     1.0000 0.26800  0.12400  0.77770  Biso   1.000  H
  C384     1.0000 0.36610  0.13125  0.79643  Biso   1.000  C
  H288     1.0000 0.34190  0.12840  0.81110  Biso   1.000  H
  C385     1.0000 0.44515  0.13741  0.79527  Biso   1.000  C
  C386     1.0000 0.47973  0.14040  0.77392  Biso   1.000  C
  H289     1.0000 0.53400  0.14270  0.77290  Biso   1.000  H
  C387     1.0000 0.43635  0.14020  0.75385  Biso   1.000  C
  H290     1.0000 0.46110  0.14390  0.73930  Biso   1.000  H
  C388     1.0000 0.49238  0.13746  0.81697  Biso   1.000  C
  C389     1.0000 0.20000  0.08290  0.71250  Biso   1.000  C
  H291     1.0000 0.15470  0.05290  0.71180  Biso   1.000  H
  C390     1.0000 0.24140  0.08340  0.73243  Biso   1.000  C
  H292     1.0000 0.22640  0.05310  0.74530  Biso   1.000  H
  C391     1.0000 0.32740  0.17070  0.71463  Biso   1.000  C
  H293     1.0000 0.37070  0.20360  0.71440  Biso   1.000  H
  C392     1.0000 0.28190  0.16300  0.69506  Biso   1.000  C
  H294     1.0000 0.29850  0.18980  0.68170  Biso   1.000  H
  Co29     1.0000 0.84606  0.38414  0.66241  Biso   1.000  Co
  Co30     1.0000 0.02318  0.37284  0.63001  Biso   1.000  Co
  N29      1.0000 0.15989  0.99357  0.66231  Biso   1.000  N
  N30      1.0000 0.77810  0.37489  0.69293  Biso   1.000  N
  O71      1.0000 0.12902  0.50473  0.60610  Biso   1.000  O
  O72      1.0000 0.05441  0.48212  0.63714  Biso   1.000  O
  O73      1.0000 0.43937  0.38312  0.81564  Biso   1.000  O
  O74      1.0000 0.54110  0.34050  0.83546  Biso   1.000  O
  O75      1.0000 0.90775  0.38101  0.63191  Biso   1.000  O
  H295     1.0000 0.89570  0.42130  0.62450  Biso   1.000  H
  C393     1.0000 0.10740  0.95030  0.67215  Biso   1.000  C
  H296     1.0000 0.07200  0.97410  0.68230  Biso   1.000  H
  C394     1.0000 0.10090  0.87284  0.66857  Biso   1.000  C
  H297     1.0000 0.06170  0.84510  0.67630  Biso   1.000  H
  C395     1.0000 0.14952  0.83518  0.65417  Biso   1.000  C
  C396     1.0000 0.20930  0.87974  0.64551  Biso   1.000  C
  H298     1.0000 0.24860  0.85620  0.63670  Biso   1.000  H
  C397     1.0000 0.21204  0.95596  0.64956  Biso   1.000  C
  H299     1.0000 0.25300  0.98440  0.64300  Biso   1.000  H
  C398     1.0000 0.13976  0.75427  0.64769  Biso   1.000  C
  C399     1.0000 0.10790  0.70096  0.66256  Biso   1.000  C
  H300     1.0000 0.09480  0.71560  0.67790  Biso   1.000  H
  C400     1.0000 0.09510  0.62677  0.65536  Biso   1.000  C
  H301     1.0000 0.07310  0.59100  0.66580  Biso   1.000  H
  C401     1.0000 0.11357  0.60346  0.63314  Biso   1.000  C
  C402     1.0000 0.14810  0.65551  0.61885  Biso   1.000  C
  H302     1.0000 0.16220  0.64050  0.60370  Biso   1.000  H
  C403     1.0000 0.16260  0.72887  0.62602  Biso   1.000  C
  H303     1.0000 0.18880  0.76300  0.61600  Biso   1.000  H
  C404     1.0000 0.09770  0.52358  0.62488  Biso   1.000  C
  C405     1.0000 0.79710  0.33010  0.71026  Biso   1.000  C
  H304     1.0000 0.84230  0.30010  0.70880  Biso   1.000  H
  C406     1.0000 0.75510  0.32390  0.73075  Biso   1.000  C
  H305     1.0000 0.77130  0.29010  0.74270  Biso   1.000  H
  C407     1.0000 0.68942  0.36756  0.73348  Biso   1.000  C
  C408     1.0000 0.66430  0.40940  0.71367  Biso   1.000  C
  H306     1.0000 0.61670  0.43560  0.71390  Biso   1.000  H
  C409     1.0000 0.70950  0.41140  0.69443  Biso   1.000  C
  H307     1.0000 0.69220  0.43980  0.68140  Biso   1.000  H
  C410     1.0000 0.64286  0.36523  0.75489  Biso   1.000  C
  C411     1.0000 0.67800  0.37080  0.77664  Biso   1.000  C
  H308     1.0000 0.73200  0.37600  0.77770  Biso   1.000  H
  C412     1.0000 0.63390  0.36875  0.79643  Biso   1.000  C
  H309     1.0000 0.65810  0.37160  0.81110  Biso   1.000  H
  C413     1.0000 0.55485  0.36259  0.79527  Biso   1.000  C
  C414     1.0000 0.52027  0.35960  0.77392  Biso   1.000  C
  H310     1.0000 0.46600  0.35730  0.77290  Biso   1.000  H
  C415     1.0000 0.56365  0.35980  0.75385  Biso   1.000  C
  H311     1.0000 0.53890  0.35610  0.73930  Biso   1.000  H
  C416     1.0000 0.50762  0.36254  0.81697  Biso   1.000  C
  C417     1.0000 0.80000  0.41710  0.71250  Biso   1.000  C
  H312     1.0000 0.84530  0.44710  0.71180  Biso   1.000  H
  C418     1.0000 0.75860  0.41660  0.73243  Biso   1.000  C
  H313     1.0000 0.77360  0.44690  0.74530  Biso   1.000  H
  C419     1.0000 0.67260  0.32930  0.71463  Biso   1.000  C
  H314     1.0000 0.62930  0.29640  0.71440  Biso   1.000  H
  C420     1.0000 0.71810  0.33700  0.69506  Biso   1.000  C
  H315     1.0000 0.70150  0.31020  0.68170  Biso   1.000  H
  Co31     1.0000 0.34606  0.88414  0.16241  Biso   1.000  Co
  Co32     1.0000 0.52318  0.87284  0.13001  Biso   1.000  Co
  N31      1.0000 0.65989  0.49357  0.16231  Biso   1.000  N
  N32      1.0000 0.27810  0.87489  0.19293  Biso   1.000  N
  O76      1.0000 0.62902  0.00473  0.10610  Biso   1.000  O
  O77      1.0000 0.55441  0.98212  0.13714  Biso   1.000  O
  O78      1.0000 0.93937  0.88312  0.31564  Biso   1.000  O
  O79      1.0000 0.04110  0.84050  0.33546  Biso   1.000  O
  O80      1.0000 0.40775  0.88101  0.13191  Biso   1.000  O
  H316     1.0000 0.39570  0.92130  0.12450  Biso   1.000  H
  C421     1.0000 0.60740  0.45030  0.17215  Biso   1.000  C
  H317     1.0000 0.57200  0.47410  0.18230  Biso   1.000  H
  C422     1.0000 0.60090  0.37284  0.16857  Biso   1.000  C
  H318     1.0000 0.56170  0.34510  0.17630  Biso   1.000  H
  C423     1.0000 0.64952  0.33518  0.15417  Biso   1.000  C
  C424     1.0000 0.70930  0.37974  0.14551  Biso   1.000  C
  H319     1.0000 0.74860  0.35620  0.13670  Biso   1.000  H
  C425     1.0000 0.71204  0.45596  0.14956  Biso   1.000  C
  H320     1.0000 0.75300  0.48440  0.14300  Biso   1.000  H
  C426     1.0000 0.63976  0.25427  0.14769  Biso   1.000  C
  C427     1.0000 0.60790  0.20096  0.16256  Biso   1.000  C
  H321     1.0000 0.59480  0.21560  0.17790  Biso   1.000  H
  C428     1.0000 0.59510  0.12677  0.15536  Biso   1.000  C
  H322     1.0000 0.57310  0.09100  0.16580  Biso   1.000  H
  C429     1.0000 0.61357  0.10346  0.13314  Biso   1.000  C
  C430     1.0000 0.64810  0.15551  0.11885  Biso   1.000  C
  H323     1.0000 0.66220  0.14050  0.10370  Biso   1.000  H
  C431     1.0000 0.66260  0.22887  0.12602  Biso   1.000  C
  H324     1.0000 0.68880  0.26300  0.11600  Biso   1.000  H
  C432     1.0000 0.59770  0.02358  0.12488  Biso   1.000  C
  C433     1.0000 0.29710  0.83010  0.21026  Biso   1.000  C
  H325     1.0000 0.34230  0.80010  0.20880  Biso   1.000  H
  C434     1.0000 0.25510  0.82390  0.23075  Biso   1.000  C
  H326     1.0000 0.27130  0.79010  0.24270  Biso   1.000  H
  C435     1.0000 0.18942  0.86756  0.23348  Biso   1.000  C
  C436     1.0000 0.16430  0.90940  0.21367  Biso   1.000  C
  H327     1.0000 0.11670  0.93560  0.21390  Biso   1.000  H
  C437     1.0000 0.20950  0.91140  0.19443  Biso   1.000  C
  H328     1.0000 0.19220  0.93980  0.18140  Biso   1.000  H
  C438     1.0000 0.14286  0.86523  0.25489  Biso   1.000  C
  C439     1.0000 0.17800  0.87080  0.27664  Biso   1.000  C
  H329     1.0000 0.23200  0.87600  0.27770  Biso   1.000  H
  C440     1.0000 0.13390  0.86875  0.29643  Biso   1.000  C
  H330     1.0000 0.15810  0.87160  0.31110  Biso   1.000  H
  C441     1.0000 0.05485  0.86259  0.29527  Biso   1.000  C
  C442     1.0000 0.02027  0.85960  0.27392  Biso   1.000  C
  H331     1.0000 0.96600  0.85730  0.27290  Biso   1.000  H
  C443     1.0000 0.06365  0.85980  0.25385  Biso   1.000  C
  H332     1.0000 0.03890  0.85610  0.23930  Biso   1.000  H
  C444     1.0000 0.00762  0.86254  0.31697  Biso   1.000  C
  C445     1.0000 0.30000  0.91710  0.21250  Biso   1.000  C
  H333     1.0000 0.34530  0.94710  0.21180  Biso   1.000  H
  C446     1.0000 0.25860  0.91660  0.23243  Biso   1.000  C
  H334     1.0000 0.27360  0.94690  0.24530  Biso   1.000  H
  C447     1.0000 0.17260  0.82930  0.21463  Biso   1.000  C
  H335     1.0000 0.12930  0.79640  0.21440  Biso   1.000  H
  C448     1.0000 0.21810  0.83700  0.19506  Biso   1.000  C
  H336     1.0000 0.20150  0.81020  0.18170  Biso   1.000  H
  O81      1.0000 0.00000  0.25000  0.62500  Biso   1.000  O
  O82      1.0000 0.50000  0.75000  0.12500  Biso   1.000  O
  O83      1.0000 0.50000  0.25000  0.87500  Biso   1.000  O
  O84      1.0000 0.00000  0.75000  0.37500  Biso   1.000  O
