data_image0
_cell_length_a       27.994
_cell_length_b       27.994
_cell_length_c       19.391
_cell_angle_alpha    90
_cell_angle_beta     90
_cell_angle_gamma    90

_symmetry_space_group_name_H-M    "P 1"
_symmetry_int_tables_number       1

loop_
  _symmetry_equiv_pos_as_xyz
  'x, y, z'

loop_
  _atom_site_label
  _atom_site_occupancy
  _atom_site_fract_x
  _atom_site_fract_y
  _atom_site_fract_z
  _atom_site_thermal_displace_type
  _atom_site_B_iso_or_equiv
  _atom_site_type_symbol
  O1       1.0000 0.99070  0.97010  0.99410  Biso   1.000  O
  Rb1      1.0000 0.93829  0.03498  0.88724  Biso   1.000  Rb
  C1       1.0000 0.05719  0.08778  0.80860  Biso   1.000  C
  C2       1.0000 0.09031  0.16073  0.78060  Biso   1.000  C
  H1       1.0000 0.07100  0.19020  0.77580  Biso   1.000  H
  C3       1.0000 0.08733  0.13078  0.71630  Biso   1.000  C
  H2       1.0000 0.06630  0.14540  0.68110  Biso   1.000  H
  C4       1.0000 0.16730  0.15521  0.73280  Biso   1.000  C
  C5       1.0000 0.04892  0.05064  0.69640  Biso   1.000  C
  H3       1.0000 0.03130  0.06690  0.65960  Biso   1.000  H
  H4       1.0000 0.02610  0.03130  0.72270  Biso   1.000  H
  C6       1.0000 0.14880  0.11265  0.62440  Biso   1.000  C
  H5       1.0000 0.12430  0.12390  0.59210  Biso   1.000  H
  H6       1.0000 0.17930  0.12710  0.61090  Biso   1.000  H
  C7       1.0000 0.08810  0.97156  0.68000  Biso   1.000  C
  C8       1.0000 0.11118  0.03220  0.60640  Biso   1.000  C
  H7       1.0000 0.09010  0.04610  0.57060  Biso   1.000  H
  C9       1.0000 0.13361  0.98450  0.58130  Biso   1.000  C
  H8       1.0000 0.12060  0.97470  0.53600  Biso   1.000  H
  C10      1.0000 0.19369  0.04120  0.59830  Biso   1.000  C
  C11      1.0000 0.12834  0.90130  0.63130  Biso   1.000  C
  H9       1.0000 0.12080  0.89020  0.58460  Biso   1.000  H
  H10      1.0000 0.10690  0.88480  0.66340  Biso   1.000  H
  C12      1.0000 0.21861  0.96540  0.53990  Biso   1.000  C
  H11      1.0000 0.20260  0.95060  0.50030  Biso   1.000  H
  H12      1.0000 0.24420  0.98580  0.52210  Biso   1.000  H
  C13      1.0000 0.18801  0.86551  0.70700  Biso   1.000  C
  C14      1.0000 0.21480  0.88401  0.59630  Biso   1.000  C
  H13      1.0000 0.20380  0.86720  0.55430  Biso   1.000  H
  C15      1.0000 0.25391  0.85566  0.63620  Biso   1.000  C
  H14      1.0000 0.26160  0.82530  0.61250  Biso   1.000  H
  C16      1.0000 0.28538  0.92949  0.60270  Biso   1.000  C
  C17      1.0000 0.25170  0.81380  0.74950  Biso   1.000  C
  H15      1.0000 0.26520  0.78680  0.72400  Biso   1.000  H
  H16      1.0000 0.22490  0.80160  0.77690  Biso   1.000  H
  C18      1.0000 0.34171  0.87470  0.65760  Biso   1.000  C
  H17      1.0000 0.36530  0.89540  0.63530  Biso   1.000  H
  H18      1.0000 0.34790  0.84190  0.64240  Biso   1.000  H
  C19      1.0000 0.28100  0.83380  0.86530  Biso   1.000  C
  C20      1.0000 0.33760  0.83740  0.77410  Biso   1.000  C
  H19      1.0000 0.35050  0.80730  0.75490  Biso   1.000  H
  C21      1.0000 0.36160  0.85060  0.84210  Biso   1.000  C
  H20      1.0000 0.38960  0.83010  0.85180  Biso   1.000  H
  C22      1.0000 0.37180  0.91310  0.76490  Biso   1.000  C
  C23      1.0000 0.33370  0.84040  0.96620  Biso   1.000  C
  H21      1.0000 0.36410  0.82370  0.97310  Biso   1.000  H
  H22      1.0000 0.30840  0.82160  0.98840  Biso   1.000  H
  C24      1.0000 0.40912  0.92580  0.87780  Biso   1.000  C
  H23      1.0000 0.43440  0.90370  0.89200  Biso   1.000  H
  H24      1.0000 0.42410  0.95210  0.85230  Biso   1.000  H
  C25      1.0000 0.29890  0.90870  0.04130  Biso   1.000  C
  C26      1.0000 0.37650  0.92090  0.99970  Biso   1.000  C
  H25      1.0000 0.40510  0.90280  0.01430  Biso   1.000  H
  C27      1.0000 0.36460  0.95730  0.05400  Biso   1.000  C
  H26      1.0000 0.38580  0.95550  0.09490  Biso   1.000  H
  C28      1.0000 0.38398  0.99090  0.94620  Biso   1.000  C
  C29      1.0000 0.29030  0.96960  0.12620  Biso   1.000  C
  H27      1.0000 0.26420  0.94930  0.14250  Biso   1.000  H
  H28      1.0000 0.31290  0.97350  0.16440  Biso   1.000  H
  C30      1.0000 0.37450  0.05240  0.04100  Biso   1.000  C
  H29      1.0000 0.39360  0.05200  0.08340  Biso   1.000  H
  H30      1.0000 0.39150  0.07200  0.00710  Biso   1.000  H
  C31      1.0000 0.22200  0.02550  0.09470  Biso   1.000  C
  C32      1.0000 0.29630  0.06430  0.11150  Biso   1.000  C
  H31      1.0000 0.31380  0.06630  0.15580  Biso   1.000  H
  C33      1.0000 0.25930  0.10310  0.10990  Biso   1.000  C
  H32      1.0000 0.25520  0.11930  0.15490  Biso   1.000  H
  C34      1.0000 0.32070  0.11750  0.02890  Biso   1.000  C
  C35      1.0000 0.16910  0.09760  0.09090  Biso   1.000  C
  H33      1.0000 0.14460  0.07330  0.09950  Biso   1.000  H
  H34      1.0000 0.16860  0.11960  0.13020  Biso   1.000  H
  C36      1.0000 0.25730  0.18040  0.04100  Biso   1.000  C
  H35      1.0000 0.28180  0.20070  0.01970  Biso   1.000  H
  H36      1.0000 0.24830  0.19500  0.08500  Biso   1.000  H
  C37      1.0000 0.11610  0.11260  0.98980  Biso   1.000  C
  C38      1.0000 0.16740  0.17480  0.01690  Biso   1.000  C
  H37      1.0000 0.16000  0.19530  0.05700  Biso   1.000  H
  C39      1.0000 0.13700  0.18630  0.95660  Biso   1.000  C
  H38      1.0000 0.11930  0.21650  0.96350  Biso   1.000  H
  C40      1.0000 0.21780  0.19300  0.93040  Biso   1.000  C
  C41      1.0000 0.06227  0.14530  0.90500  Biso   1.000  C
  H39      1.0000 0.04820  0.17730  0.90480  Biso   1.000  H
  H40      1.0000 0.03910  0.12350  0.92590  Biso   1.000  H
  C42      1.0000 0.16010  0.20960  0.83430  Biso   1.000  C
  H41      1.0000 0.13630  0.23510  0.83880  Biso   1.000  H
  H42      1.0000 0.18910  0.22350  0.81410  Biso   1.000  H
  N1       1.0000 0.07115  0.13038  0.83360  Biso   1.000  N
  N2       1.0000 0.06908  0.08519  0.74040  Biso   1.000  N
  N3       1.0000 0.14171  0.17249  0.78870  Biso   1.000  N
  N4       1.0000 0.13653  0.12868  0.69370  Biso   1.000  N
  N5       1.0000 0.08470  0.01891  0.66530  Biso   1.000  N
  N6       1.0000 0.11972  0.95180  0.63530  Biso   1.000  N
  N7       1.0000 0.15263  0.06314  0.61910  Biso   1.000  N
  N8       1.0000 0.18395  0.99528  0.57710  Biso   1.000  N
  N9       1.0000 0.17738  0.88868  0.64750  Biso   1.000  N
  N10      1.0000 0.23384  0.84715  0.70170  Biso   1.000  N
  N11      1.0000 0.23900  0.92914  0.58070  Biso   1.000  N
  N12      1.0000 0.29506  0.88853  0.63500  Biso   1.000  N
  N13      1.0000 0.28778  0.83204  0.79610  Biso   1.000  N
  N14      1.0000 0.32390  0.84410  0.89320  Biso   1.000  N
  N15      1.0000 0.34814  0.87730  0.73090  Biso   1.000  N
  N16      1.0000 0.37521  0.90080  0.83240  Biso   1.000  N
  N17      1.0000 0.33610  0.88950  0.99930  Biso   1.000  N
  N18      1.0000 0.31460  0.94530  0.06940  Biso   1.000  N
  N19      1.0000 0.38631  0.94420  0.93700  Biso   1.000  N
  N20      1.0000 0.37090  0.00190  0.01380  Biso   1.000  N
  N21      1.0000 0.27110  0.01630  0.10790  Biso   1.000  N
  N22      1.0000 0.21740  0.07270  0.09040  Biso   1.000  N
  N23      1.0000 0.32980  0.07400  0.05540  Biso   1.000  N
  N24      1.0000 0.27720  0.13580  0.05400  Biso   1.000  N
  N25      1.0000 0.15491  0.12430  0.02970  Biso   1.000  N
  N26      1.0000 0.10453  0.14590  0.94600  Biso   1.000  N
  N27      1.0000 0.21550  0.17940  0.99610  Biso   1.000  N
  N28      1.0000 0.17127  0.19040  0.90250  Biso   1.000  N
  O2       1.0000 0.03548  0.05645  0.84100  Biso   1.000  O
  O3       1.0000 0.06593  0.95073  0.72643  Biso   1.000  O
  O4       1.0000 0.16235  0.86263  0.75820  Biso   1.000  O
  O5       1.0000 0.24539  0.82620  0.89800  Biso   1.000  O
  O6       1.0000 0.26123  0.88600  0.05580  Biso   1.000  O
  O7       1.0000 0.19150  0.99800  0.09440  Biso   1.000  O
  O8       1.0000 0.09732  0.07210  0.99470  Biso   1.000  O
  O9       1.0000 0.20884  0.16362  0.72090  Biso   1.000  O
  O10      1.0000 0.23441  0.05982  0.59700  Biso   1.000  O
  O11      1.0000 0.31421  0.96246  0.59260  Biso   1.000  O
  O12      1.0000 0.38627  0.94978  0.73700  Biso   1.000  O
  O13      1.0000 0.39164  0.02550  0.90300  Biso   1.000  O
  O14      1.0000 0.34468  0.13920  0.98640  Biso   1.000  O
  O15      1.0000 0.25319  0.20219  0.89900  Biso   1.000  O
  O16      1.0000 0.49070  0.47010  0.49410  Biso   1.000  O
  Rb2      1.0000 0.43829  0.53498  0.38724  Biso   1.000  Rb
  C43      1.0000 0.55719  0.58778  0.30860  Biso   1.000  C
  C44      1.0000 0.59031  0.66073  0.28060  Biso   1.000  C
  H43      1.0000 0.57100  0.69020  0.27580  Biso   1.000  H
  C45      1.0000 0.58733  0.63078  0.21630  Biso   1.000  C
  H44      1.0000 0.56630  0.64540  0.18110  Biso   1.000  H
  C46      1.0000 0.66730  0.65521  0.23280  Biso   1.000  C
  C47      1.0000 0.54892  0.55064  0.19640  Biso   1.000  C
  H45      1.0000 0.53130  0.56690  0.15960  Biso   1.000  H
  H46      1.0000 0.52610  0.53130  0.22270  Biso   1.000  H
  C48      1.0000 0.64880  0.61265  0.12440  Biso   1.000  C
  H47      1.0000 0.62430  0.62390  0.09210  Biso   1.000  H
  H48      1.0000 0.67930  0.62710  0.11090  Biso   1.000  H
  C49      1.0000 0.58810  0.47156  0.18000  Biso   1.000  C
  C50      1.0000 0.61118  0.53220  0.10640  Biso   1.000  C
  H49      1.0000 0.59010  0.54610  0.07060  Biso   1.000  H
  C51      1.0000 0.63361  0.48450  0.08130  Biso   1.000  C
  H50      1.0000 0.62060  0.47470  0.03600  Biso   1.000  H
  C52      1.0000 0.69369  0.54120  0.09830  Biso   1.000  C
  C53      1.0000 0.62834  0.40130  0.13130  Biso   1.000  C
  H51      1.0000 0.62080  0.39020  0.08460  Biso   1.000  H
  H52      1.0000 0.60690  0.38480  0.16340  Biso   1.000  H
  C54      1.0000 0.71861  0.46540  0.03990  Biso   1.000  C
  H53      1.0000 0.70260  0.45060  0.00030  Biso   1.000  H
  H54      1.0000 0.74420  0.48580  0.02210  Biso   1.000  H
  C55      1.0000 0.68801  0.36551  0.20700  Biso   1.000  C
  C56      1.0000 0.71480  0.38401  0.09630  Biso   1.000  C
  H55      1.0000 0.70380  0.36720  0.05430  Biso   1.000  H
  C57      1.0000 0.75391  0.35566  0.13620  Biso   1.000  C
  H56      1.0000 0.76160  0.32530  0.11250  Biso   1.000  H
  C58      1.0000 0.78538  0.42949  0.10270  Biso   1.000  C
  C59      1.0000 0.75170  0.31380  0.24950  Biso   1.000  C
  H57      1.0000 0.76520  0.28680  0.22400  Biso   1.000  H
  H58      1.0000 0.72490  0.30160  0.27690  Biso   1.000  H
  C60      1.0000 0.84171  0.37470  0.15760  Biso   1.000  C
  H59      1.0000 0.86530  0.39540  0.13530  Biso   1.000  H
  H60      1.0000 0.84790  0.34190  0.14240  Biso   1.000  H
  C61      1.0000 0.78100  0.33380  0.36530  Biso   1.000  C
  C62      1.0000 0.83760  0.33740  0.27410  Biso   1.000  C
  H61      1.0000 0.85050  0.30730  0.25490  Biso   1.000  H
  C63      1.0000 0.86160  0.35060  0.34210  Biso   1.000  C
  H62      1.0000 0.88960  0.33010  0.35180  Biso   1.000  H
  C64      1.0000 0.87180  0.41310  0.26490  Biso   1.000  C
  C65      1.0000 0.83370  0.34040  0.46620  Biso   1.000  C
  H63      1.0000 0.86410  0.32370  0.47310  Biso   1.000  H
  H64      1.0000 0.80840  0.32160  0.48840  Biso   1.000  H
  C66      1.0000 0.90912  0.42580  0.37780  Biso   1.000  C
  H65      1.0000 0.93440  0.40370  0.39200  Biso   1.000  H
  H66      1.0000 0.92410  0.45210  0.35230  Biso   1.000  H
  C67      1.0000 0.79890  0.40870  0.54130  Biso   1.000  C
  C68      1.0000 0.87650  0.42090  0.49970  Biso   1.000  C
  H67      1.0000 0.90510  0.40280  0.51430  Biso   1.000  H
  C69      1.0000 0.86460  0.45730  0.55400  Biso   1.000  C
  H68      1.0000 0.88580  0.45550  0.59490  Biso   1.000  H
  C70      1.0000 0.88398  0.49090  0.44620  Biso   1.000  C
  C71      1.0000 0.79030  0.46960  0.62620  Biso   1.000  C
  H69      1.0000 0.76420  0.44930  0.64250  Biso   1.000  H
  H70      1.0000 0.81290  0.47350  0.66440  Biso   1.000  H
  C72      1.0000 0.87450  0.55240  0.54100  Biso   1.000  C
  H71      1.0000 0.89360  0.55200  0.58340  Biso   1.000  H
  H72      1.0000 0.89150  0.57200  0.50710  Biso   1.000  H
  C73      1.0000 0.72200  0.52550  0.59470  Biso   1.000  C
  C74      1.0000 0.79630  0.56430  0.61150  Biso   1.000  C
  H73      1.0000 0.81380  0.56630  0.65580  Biso   1.000  H
  C75      1.0000 0.75930  0.60310  0.60990  Biso   1.000  C
  H74      1.0000 0.75520  0.61930  0.65490  Biso   1.000  H
  C76      1.0000 0.82070  0.61750  0.52890  Biso   1.000  C
  C77      1.0000 0.66910  0.59760  0.59090  Biso   1.000  C
  H75      1.0000 0.64460  0.57330  0.59950  Biso   1.000  H
  H76      1.0000 0.66860  0.61960  0.63020  Biso   1.000  H
  C78      1.0000 0.75730  0.68040  0.54100  Biso   1.000  C
  H77      1.0000 0.78180  0.70070  0.51970  Biso   1.000  H
  H78      1.0000 0.74830  0.69500  0.58500  Biso   1.000  H
  C79      1.0000 0.61610  0.61260  0.48980  Biso   1.000  C
  C80      1.0000 0.66740  0.67480  0.51690  Biso   1.000  C
  H79      1.0000 0.66000  0.69530  0.55700  Biso   1.000  H
  C81      1.0000 0.63700  0.68630  0.45660  Biso   1.000  C
  H80      1.0000 0.61930  0.71650  0.46350  Biso   1.000  H
  C82      1.0000 0.71780  0.69300  0.43040  Biso   1.000  C
  C83      1.0000 0.56227  0.64530  0.40500  Biso   1.000  C
  H81      1.0000 0.54820  0.67730  0.40480  Biso   1.000  H
  H82      1.0000 0.53910  0.62350  0.42590  Biso   1.000  H
  C84      1.0000 0.66010  0.70960  0.33430  Biso   1.000  C
  H83      1.0000 0.63630  0.73510  0.33880  Biso   1.000  H
  H84      1.0000 0.68910  0.72350  0.31410  Biso   1.000  H
  N29      1.0000 0.57115  0.63038  0.33360  Biso   1.000  N
  N30      1.0000 0.56908  0.58519  0.24040  Biso   1.000  N
  N31      1.0000 0.64171  0.67249  0.28870  Biso   1.000  N
  N32      1.0000 0.63653  0.62868  0.19370  Biso   1.000  N
  N33      1.0000 0.58470  0.51891  0.16530  Biso   1.000  N
  N34      1.0000 0.61972  0.45180  0.13530  Biso   1.000  N
  N35      1.0000 0.65263  0.56314  0.11910  Biso   1.000  N
  N36      1.0000 0.68395  0.49528  0.07710  Biso   1.000  N
  N37      1.0000 0.67738  0.38868  0.14750  Biso   1.000  N
  N38      1.0000 0.73384  0.34715  0.20170  Biso   1.000  N
  N39      1.0000 0.73900  0.42914  0.08070  Biso   1.000  N
  N40      1.0000 0.79506  0.38853  0.13500  Biso   1.000  N
  N41      1.0000 0.78778  0.33204  0.29610  Biso   1.000  N
  N42      1.0000 0.82390  0.34410  0.39320  Biso   1.000  N
  N43      1.0000 0.84814  0.37730  0.23090  Biso   1.000  N
  N44      1.0000 0.87521  0.40080  0.33240  Biso   1.000  N
  N45      1.0000 0.83610  0.38950  0.49930  Biso   1.000  N
  N46      1.0000 0.81460  0.44530  0.56940  Biso   1.000  N
  N47      1.0000 0.88631  0.44420  0.43700  Biso   1.000  N
  N48      1.0000 0.87090  0.50190  0.51380  Biso   1.000  N
  N49      1.0000 0.77110  0.51630  0.60790  Biso   1.000  N
  N50      1.0000 0.71740  0.57270  0.59040  Biso   1.000  N
  N51      1.0000 0.82980  0.57400  0.55540  Biso   1.000  N
  N52      1.0000 0.77720  0.63580  0.55400  Biso   1.000  N
  N53      1.0000 0.65491  0.62430  0.52970  Biso   1.000  N
  N54      1.0000 0.60453  0.64590  0.44600  Biso   1.000  N
  N55      1.0000 0.71550  0.67940  0.49610  Biso   1.000  N
  N56      1.0000 0.67127  0.69040  0.40250  Biso   1.000  N
  O17      1.0000 0.53548  0.55645  0.34100  Biso   1.000  O
  O18      1.0000 0.56593  0.45073  0.22643  Biso   1.000  O
  O19      1.0000 0.66235  0.36263  0.25820  Biso   1.000  O
  O20      1.0000 0.74539  0.32620  0.39800  Biso   1.000  O
  O21      1.0000 0.76123  0.38600  0.55580  Biso   1.000  O
  O22      1.0000 0.69150  0.49800  0.59440  Biso   1.000  O
  O23      1.0000 0.59732  0.57210  0.49470  Biso   1.000  O
  O24      1.0000 0.70884  0.66362  0.22090  Biso   1.000  O
  O25      1.0000 0.73441  0.55982  0.09700  Biso   1.000  O
  O26      1.0000 0.81421  0.46246  0.09260  Biso   1.000  O
  O27      1.0000 0.88627  0.44978  0.23700  Biso   1.000  O
  O28      1.0000 0.89164  0.52550  0.40300  Biso   1.000  O
  O29      1.0000 0.84468  0.63920  0.48640  Biso   1.000  O
  O30      1.0000 0.75319  0.70219  0.39900  Biso   1.000  O
  O31      1.0000 0.50930  0.52990  0.49410  Biso   1.000  O
  Rb3      1.0000 0.56171  0.46502  0.38724  Biso   1.000  Rb
  C85      1.0000 0.44281  0.41222  0.30860  Biso   1.000  C
  C86      1.0000 0.40969  0.33927  0.28060  Biso   1.000  C
  H85      1.0000 0.42900  0.30980  0.27580  Biso   1.000  H
  C87      1.0000 0.41267  0.36922  0.21630  Biso   1.000  C
  H86      1.0000 0.43370  0.35460  0.18110  Biso   1.000  H
  C88      1.0000 0.33270  0.34479  0.23280  Biso   1.000  C
  C89      1.0000 0.45108  0.44936  0.19640  Biso   1.000  C
  H87      1.0000 0.46870  0.43310  0.15960  Biso   1.000  H
  H88      1.0000 0.47390  0.46870  0.22270  Biso   1.000  H
  C90      1.0000 0.35120  0.38735  0.12440  Biso   1.000  C
  H89      1.0000 0.37570  0.37610  0.09210  Biso   1.000  H
  H90      1.0000 0.32070  0.37290  0.11090  Biso   1.000  H
  C91      1.0000 0.41190  0.52844  0.18000  Biso   1.000  C
  C92      1.0000 0.38882  0.46780  0.10640  Biso   1.000  C
  H91      1.0000 0.40990  0.45390  0.07060  Biso   1.000  H
  C93      1.0000 0.36639  0.51550  0.08130  Biso   1.000  C
  H92      1.0000 0.37940  0.52530  0.03600  Biso   1.000  H
  C94      1.0000 0.30631  0.45880  0.09830  Biso   1.000  C
  C95      1.0000 0.37166  0.59870  0.13130  Biso   1.000  C
  H93      1.0000 0.37920  0.60980  0.08460  Biso   1.000  H
  H94      1.0000 0.39310  0.61520  0.16340  Biso   1.000  H
  C96      1.0000 0.28139  0.53460  0.03990  Biso   1.000  C
  H95      1.0000 0.29740  0.54940  0.00030  Biso   1.000  H
  H96      1.0000 0.25580  0.51420  0.02210  Biso   1.000  H
  C97      1.0000 0.31199  0.63449  0.20700  Biso   1.000  C
  C98      1.0000 0.28520  0.61599  0.09630  Biso   1.000  C
  H97      1.0000 0.29620  0.63280  0.05430  Biso   1.000  H
  C99      1.0000 0.24609  0.64434  0.13620  Biso   1.000  C
  H98      1.0000 0.23840  0.67470  0.11250  Biso   1.000  H
  C100     1.0000 0.21462  0.57051  0.10270  Biso   1.000  C
  C101     1.0000 0.24830  0.68620  0.24950  Biso   1.000  C
  H99      1.0000 0.23480  0.71320  0.22400  Biso   1.000  H
  H100     1.0000 0.27510  0.69840  0.27690  Biso   1.000  H
  C102     1.0000 0.15829  0.62530  0.15760  Biso   1.000  C
  H101     1.0000 0.13470  0.60460  0.13530  Biso   1.000  H
  H102     1.0000 0.15210  0.65810  0.14240  Biso   1.000  H
  C103     1.0000 0.21900  0.66620  0.36530  Biso   1.000  C
  C104     1.0000 0.16240  0.66260  0.27410  Biso   1.000  C
  H103     1.0000 0.14950  0.69270  0.25490  Biso   1.000  H
  C105     1.0000 0.13840  0.64940  0.34210  Biso   1.000  C
  H104     1.0000 0.11040  0.66990  0.35180  Biso   1.000  H
  C106     1.0000 0.12820  0.58690  0.26490  Biso   1.000  C
  C107     1.0000 0.16630  0.65960  0.46620  Biso   1.000  C
  H105     1.0000 0.13590  0.67630  0.47310  Biso   1.000  H
  H106     1.0000 0.19160  0.67840  0.48840  Biso   1.000  H
  C108     1.0000 0.09088  0.57420  0.37780  Biso   1.000  C
  H107     1.0000 0.06560  0.59630  0.39200  Biso   1.000  H
  H108     1.0000 0.07590  0.54790  0.35230  Biso   1.000  H
  C109     1.0000 0.20110  0.59130  0.54130  Biso   1.000  C
  C110     1.0000 0.12350  0.57910  0.49970  Biso   1.000  C
  H109     1.0000 0.09490  0.59720  0.51430  Biso   1.000  H
  C111     1.0000 0.13540  0.54270  0.55400  Biso   1.000  C
  H110     1.0000 0.11420  0.54450  0.59490  Biso   1.000  H
  C112     1.0000 0.11602  0.50910  0.44620  Biso   1.000  C
  C113     1.0000 0.20970  0.53040  0.62620  Biso   1.000  C
  H111     1.0000 0.23580  0.55070  0.64250  Biso   1.000  H
  H112     1.0000 0.18710  0.52650  0.66440  Biso   1.000  H
  C114     1.0000 0.12550  0.44760  0.54100  Biso   1.000  C
  H113     1.0000 0.10640  0.44800  0.58340  Biso   1.000  H
  H114     1.0000 0.10850  0.42800  0.50710  Biso   1.000  H
  C115     1.0000 0.27800  0.47450  0.59470  Biso   1.000  C
  C116     1.0000 0.20370  0.43570  0.61150  Biso   1.000  C
  H115     1.0000 0.18620  0.43370  0.65580  Biso   1.000  H
  C117     1.0000 0.24070  0.39690  0.60990  Biso   1.000  C
  H116     1.0000 0.24480  0.38070  0.65490  Biso   1.000  H
  C118     1.0000 0.17930  0.38250  0.52890  Biso   1.000  C
  C119     1.0000 0.33090  0.40240  0.59090  Biso   1.000  C
  H117     1.0000 0.35540  0.42670  0.59950  Biso   1.000  H
  H118     1.0000 0.33140  0.38040  0.63020  Biso   1.000  H
  C120     1.0000 0.24270  0.31960  0.54100  Biso   1.000  C
  H119     1.0000 0.21820  0.29930  0.51970  Biso   1.000  H
  H120     1.0000 0.25170  0.30500  0.58500  Biso   1.000  H
  C121     1.0000 0.38390  0.38740  0.48980  Biso   1.000  C
  C122     1.0000 0.33260  0.32520  0.51690  Biso   1.000  C
  H121     1.0000 0.34000  0.30470  0.55700  Biso   1.000  H
  C123     1.0000 0.36300  0.31370  0.45660  Biso   1.000  C
  H122     1.0000 0.38070  0.28350  0.46350  Biso   1.000  H
  C124     1.0000 0.28220  0.30700  0.43040  Biso   1.000  C
  C125     1.0000 0.43773  0.35470  0.40500  Biso   1.000  C
  H123     1.0000 0.45180  0.32270  0.40480  Biso   1.000  H
  H124     1.0000 0.46090  0.37650  0.42590  Biso   1.000  H
  C126     1.0000 0.33990  0.29040  0.33430  Biso   1.000  C
  H125     1.0000 0.36370  0.26490  0.33880  Biso   1.000  H
  H126     1.0000 0.31090  0.27650  0.31410  Biso   1.000  H
  N57      1.0000 0.42885  0.36962  0.33360  Biso   1.000  N
  N58      1.0000 0.43092  0.41481  0.24040  Biso   1.000  N
  N59      1.0000 0.35829  0.32751  0.28870  Biso   1.000  N
  N60      1.0000 0.36347  0.37132  0.19370  Biso   1.000  N
  N61      1.0000 0.41530  0.48109  0.16530  Biso   1.000  N
  N62      1.0000 0.38028  0.54820  0.13530  Biso   1.000  N
  N63      1.0000 0.34737  0.43686  0.11910  Biso   1.000  N
  N64      1.0000 0.31605  0.50472  0.07710  Biso   1.000  N
  N65      1.0000 0.32262  0.61132  0.14750  Biso   1.000  N
  N66      1.0000 0.26616  0.65285  0.20170  Biso   1.000  N
  N67      1.0000 0.26100  0.57086  0.08070  Biso   1.000  N
  N68      1.0000 0.20494  0.61147  0.13500  Biso   1.000  N
  N69      1.0000 0.21222  0.66796  0.29610  Biso   1.000  N
  N70      1.0000 0.17610  0.65590  0.39320  Biso   1.000  N
  N71      1.0000 0.15186  0.62270  0.23090  Biso   1.000  N
  N72      1.0000 0.12479  0.59920  0.33240  Biso   1.000  N
  N73      1.0000 0.16390  0.61050  0.49930  Biso   1.000  N
  N74      1.0000 0.18540  0.55470  0.56940  Biso   1.000  N
  N75      1.0000 0.11369  0.55580  0.43700  Biso   1.000  N
  N76      1.0000 0.12910  0.49810  0.51380  Biso   1.000  N
  N77      1.0000 0.22890  0.48370  0.60790  Biso   1.000  N
  N78      1.0000 0.28260  0.42730  0.59040  Biso   1.000  N
  N79      1.0000 0.17020  0.42600  0.55540  Biso   1.000  N
  N80      1.0000 0.22280  0.36420  0.55400  Biso   1.000  N
  N81      1.0000 0.34509  0.37570  0.52970  Biso   1.000  N
  N82      1.0000 0.39547  0.35410  0.44600  Biso   1.000  N
  N83      1.0000 0.28450  0.32060  0.49610  Biso   1.000  N
  N84      1.0000 0.32873  0.30960  0.40250  Biso   1.000  N
  O32      1.0000 0.46452  0.44355  0.34100  Biso   1.000  O
  O33      1.0000 0.43407  0.54927  0.22643  Biso   1.000  O
  O34      1.0000 0.33765  0.63737  0.25820  Biso   1.000  O
  O35      1.0000 0.25461  0.67380  0.39800  Biso   1.000  O
  O36      1.0000 0.23877  0.61400  0.55580  Biso   1.000  O
  O37      1.0000 0.30850  0.50200  0.59440  Biso   1.000  O
  O38      1.0000 0.40268  0.42790  0.49470  Biso   1.000  O
  O39      1.0000 0.29116  0.33638  0.22090  Biso   1.000  O
  O40      1.0000 0.26559  0.44018  0.09700  Biso   1.000  O
  O41      1.0000 0.18579  0.53754  0.09260  Biso   1.000  O
  O42      1.0000 0.11373  0.55022  0.23700  Biso   1.000  O
  O43      1.0000 0.10836  0.47450  0.40300  Biso   1.000  O
  O44      1.0000 0.15532  0.36080  0.48640  Biso   1.000  O
  O45      1.0000 0.24681  0.29781  0.39900  Biso   1.000  O
  O46      1.0000 0.00930  0.02990  0.99410  Biso   1.000  O
  Rb4      1.0000 0.06171  0.96502  0.88724  Biso   1.000  Rb
  C127     1.0000 0.94281  0.91222  0.80860  Biso   1.000  C
  C128     1.0000 0.90969  0.83927  0.78060  Biso   1.000  C
  H127     1.0000 0.92900  0.80980  0.77580  Biso   1.000  H
  C129     1.0000 0.91267  0.86922  0.71630  Biso   1.000  C
  H128     1.0000 0.93370  0.85460  0.68110  Biso   1.000  H
  C130     1.0000 0.83270  0.84479  0.73280  Biso   1.000  C
  C131     1.0000 0.95108  0.94936  0.69640  Biso   1.000  C
  H129     1.0000 0.96870  0.93310  0.65960  Biso   1.000  H
  H130     1.0000 0.97390  0.96870  0.72270  Biso   1.000  H
  C132     1.0000 0.85120  0.88735  0.62440  Biso   1.000  C
  H131     1.0000 0.87570  0.87610  0.59210  Biso   1.000  H
  H132     1.0000 0.82070  0.87290  0.61090  Biso   1.000  H
  C133     1.0000 0.91190  0.02844  0.68000  Biso   1.000  C
  C134     1.0000 0.88882  0.96780  0.60640  Biso   1.000  C
  H133     1.0000 0.90990  0.95390  0.57060  Biso   1.000  H
  C135     1.0000 0.86639  0.01550  0.58130  Biso   1.000  C
  H134     1.0000 0.87940  0.02530  0.53600  Biso   1.000  H
  C136     1.0000 0.80631  0.95880  0.59830  Biso   1.000  C
  C137     1.0000 0.87166  0.09870  0.63130  Biso   1.000  C
  H135     1.0000 0.87920  0.10980  0.58460  Biso   1.000  H
  H136     1.0000 0.89310  0.11520  0.66340  Biso   1.000  H
  C138     1.0000 0.78139  0.03460  0.53990  Biso   1.000  C
  H137     1.0000 0.79740  0.04940  0.50030  Biso   1.000  H
  H138     1.0000 0.75580  0.01420  0.52210  Biso   1.000  H
  C139     1.0000 0.81199  0.13449  0.70700  Biso   1.000  C
  C140     1.0000 0.78520  0.11599  0.59630  Biso   1.000  C
  H139     1.0000 0.79620  0.13280  0.55430  Biso   1.000  H
  C141     1.0000 0.74609  0.14434  0.63620  Biso   1.000  C
  H140     1.0000 0.73840  0.17470  0.61250  Biso   1.000  H
  C142     1.0000 0.71462  0.07051  0.60270  Biso   1.000  C
  C143     1.0000 0.74830  0.18620  0.74950  Biso   1.000  C
  H141     1.0000 0.73480  0.21320  0.72400  Biso   1.000  H
  H142     1.0000 0.77510  0.19840  0.77690  Biso   1.000  H
  C144     1.0000 0.65829  0.12530  0.65760  Biso   1.000  C
  H143     1.0000 0.63470  0.10460  0.63530  Biso   1.000  H
  H144     1.0000 0.65210  0.15810  0.64240  Biso   1.000  H
  C145     1.0000 0.71900  0.16620  0.86530  Biso   1.000  C
  C146     1.0000 0.66240  0.16260  0.77410  Biso   1.000  C
  H145     1.0000 0.64950  0.19270  0.75490  Biso   1.000  H
  C147     1.0000 0.63840  0.14940  0.84210  Biso   1.000  C
  H146     1.0000 0.61040  0.16990  0.85180  Biso   1.000  H
  C148     1.0000 0.62820  0.08690  0.76490  Biso   1.000  C
  C149     1.0000 0.66630  0.15960  0.96620  Biso   1.000  C
  H147     1.0000 0.63590  0.17630  0.97310  Biso   1.000  H
  H148     1.0000 0.69160  0.17840  0.98840  Biso   1.000  H
  C150     1.0000 0.59088  0.07420  0.87780  Biso   1.000  C
  H149     1.0000 0.56560  0.09630  0.89200  Biso   1.000  H
  H150     1.0000 0.57590  0.04790  0.85230  Biso   1.000  H
  C151     1.0000 0.70110  0.09130  0.04130  Biso   1.000  C
  C152     1.0000 0.62350  0.07910  0.99970  Biso   1.000  C
  H151     1.0000 0.59490  0.09720  0.01430  Biso   1.000  H
  C153     1.0000 0.63540  0.04270  0.05400  Biso   1.000  C
  H152     1.0000 0.61420  0.04450  0.09490  Biso   1.000  H
  C154     1.0000 0.61602  0.00910  0.94620  Biso   1.000  C
  C155     1.0000 0.70970  0.03040  0.12620  Biso   1.000  C
  H153     1.0000 0.73580  0.05070  0.14250  Biso   1.000  H
  H154     1.0000 0.68710  0.02650  0.16440  Biso   1.000  H
  C156     1.0000 0.62550  0.94760  0.04100  Biso   1.000  C
  H155     1.0000 0.60640  0.94800  0.08340  Biso   1.000  H
  H156     1.0000 0.60850  0.92800  0.00710  Biso   1.000  H
  C157     1.0000 0.77800  0.97450  0.09470  Biso   1.000  C
  C158     1.0000 0.70370  0.93570  0.11150  Biso   1.000  C
  H157     1.0000 0.68620  0.93370  0.15580  Biso   1.000  H
  C159     1.0000 0.74070  0.89690  0.10990  Biso   1.000  C
  H158     1.0000 0.74480  0.88070  0.15490  Biso   1.000  H
  C160     1.0000 0.67930  0.88250  0.02890  Biso   1.000  C
  C161     1.0000 0.83090  0.90240  0.09090  Biso   1.000  C
  H159     1.0000 0.85540  0.92670  0.09950  Biso   1.000  H
  H160     1.0000 0.83140  0.88040  0.13020  Biso   1.000  H
  C162     1.0000 0.74270  0.81960  0.04100  Biso   1.000  C
  H161     1.0000 0.71820  0.79930  0.01970  Biso   1.000  H
  H162     1.0000 0.75170  0.80500  0.08500  Biso   1.000  H
  C163     1.0000 0.88390  0.88740  0.98980  Biso   1.000  C
  C164     1.0000 0.83260  0.82520  0.01690  Biso   1.000  C
  H163     1.0000 0.84000  0.80470  0.05700  Biso   1.000  H
  C165     1.0000 0.86300  0.81370  0.95660  Biso   1.000  C
  H164     1.0000 0.88070  0.78350  0.96350  Biso   1.000  H
  C166     1.0000 0.78220  0.80700  0.93040  Biso   1.000  C
  C167     1.0000 0.93773  0.85470  0.90500  Biso   1.000  C
  H165     1.0000 0.95180  0.82270  0.90480  Biso   1.000  H
  H166     1.0000 0.96090  0.87650  0.92590  Biso   1.000  H
  C168     1.0000 0.83990  0.79040  0.83430  Biso   1.000  C
  H167     1.0000 0.86370  0.76490  0.83880  Biso   1.000  H
  H168     1.0000 0.81090  0.77650  0.81410  Biso   1.000  H
  N85      1.0000 0.92885  0.86962  0.83360  Biso   1.000  N
  N86      1.0000 0.93092  0.91481  0.74040  Biso   1.000  N
  N87      1.0000 0.85829  0.82751  0.78870  Biso   1.000  N
  N88      1.0000 0.86347  0.87132  0.69370  Biso   1.000  N
  N89      1.0000 0.91530  0.98109  0.66530  Biso   1.000  N
  N90      1.0000 0.88028  0.04820  0.63530  Biso   1.000  N
  N91      1.0000 0.84737  0.93686  0.61910  Biso   1.000  N
  N92      1.0000 0.81605  0.00472  0.57710  Biso   1.000  N
  N93      1.0000 0.82262  0.11132  0.64750  Biso   1.000  N
  N94      1.0000 0.76616  0.15285  0.70170  Biso   1.000  N
  N95      1.0000 0.76100  0.07086  0.58070  Biso   1.000  N
  N96      1.0000 0.70494  0.11147  0.63500  Biso   1.000  N
  N97      1.0000 0.71222  0.16796  0.79610  Biso   1.000  N
  N98      1.0000 0.67610  0.15590  0.89320  Biso   1.000  N
  N99      1.0000 0.65186  0.12270  0.73090  Biso   1.000  N
  N100     1.0000 0.62479  0.09920  0.83240  Biso   1.000  N
  N101     1.0000 0.66390  0.11050  0.99930  Biso   1.000  N
  N102     1.0000 0.68540  0.05470  0.06940  Biso   1.000  N
  N103     1.0000 0.61369  0.05580  0.93700  Biso   1.000  N
  N104     1.0000 0.62910  0.99810  0.01380  Biso   1.000  N
  N105     1.0000 0.72890  0.98370  0.10790  Biso   1.000  N
  N106     1.0000 0.78260  0.92730  0.09040  Biso   1.000  N
  N107     1.0000 0.67020  0.92600  0.05540  Biso   1.000  N
  N108     1.0000 0.72280  0.86420  0.05400  Biso   1.000  N
  N109     1.0000 0.84509  0.87570  0.02970  Biso   1.000  N
  N110     1.0000 0.89547  0.85410  0.94600  Biso   1.000  N
  N111     1.0000 0.78450  0.82060  0.99610  Biso   1.000  N
  N112     1.0000 0.82873  0.80960  0.90250  Biso   1.000  N
  O47      1.0000 0.96452  0.94355  0.84100  Biso   1.000  O
  O48      1.0000 0.93407  0.04927  0.72643  Biso   1.000  O
  O49      1.0000 0.83765  0.13737  0.75820  Biso   1.000  O
  O50      1.0000 0.75461  0.17380  0.89800  Biso   1.000  O
  O51      1.0000 0.73877  0.11400  0.05580  Biso   1.000  O
  O52      1.0000 0.80850  0.00200  0.09440  Biso   1.000  O
  O53      1.0000 0.90268  0.92790  0.99470  Biso   1.000  O
  O54      1.0000 0.79116  0.83638  0.72090  Biso   1.000  O
  O55      1.0000 0.76559  0.94018  0.59700  Biso   1.000  O
  O56      1.0000 0.68579  0.03754  0.59260  Biso   1.000  O
  O57      1.0000 0.61373  0.05022  0.73700  Biso   1.000  O
  O58      1.0000 0.60836  0.97450  0.90300  Biso   1.000  O
  O59      1.0000 0.65532  0.86080  0.98640  Biso   1.000  O
  O60      1.0000 0.74681  0.79781  0.89900  Biso   1.000  O
  O61      1.0000 0.02990  0.49070  0.24410  Biso   1.000  O
  Rb5      1.0000 0.96502  0.43829  0.13724  Biso   1.000  Rb
  C169     1.0000 0.91222  0.55719  0.05860  Biso   1.000  C
  C170     1.0000 0.83927  0.59031  0.03060  Biso   1.000  C
  H169     1.0000 0.80980  0.57100  0.02580  Biso   1.000  H
  C171     1.0000 0.86922  0.58733  0.96630  Biso   1.000  C
  H170     1.0000 0.85460  0.56630  0.93110  Biso   1.000  H
  C172     1.0000 0.84479  0.66730  0.98280  Biso   1.000  C
  C173     1.0000 0.94936  0.54892  0.94640  Biso   1.000  C
  H171     1.0000 0.93310  0.53130  0.90960  Biso   1.000  H
  H172     1.0000 0.96870  0.52610  0.97270  Biso   1.000  H
  C174     1.0000 0.88735  0.64880  0.87440  Biso   1.000  C
  H173     1.0000 0.87610  0.62430  0.84210  Biso   1.000  H
  H174     1.0000 0.87290  0.67930  0.86090  Biso   1.000  H
  C175     1.0000 0.02844  0.58810  0.93000  Biso   1.000  C
  C176     1.0000 0.96780  0.61118  0.85640  Biso   1.000  C
  H175     1.0000 0.95390  0.59010  0.82060  Biso   1.000  H
  C177     1.0000 0.01550  0.63361  0.83130  Biso   1.000  C
  H176     1.0000 0.02530  0.62060  0.78600  Biso   1.000  H
  C178     1.0000 0.95880  0.69369  0.84830  Biso   1.000  C
  C179     1.0000 0.09870  0.62834  0.88130  Biso   1.000  C
  H177     1.0000 0.10980  0.62080  0.83460  Biso   1.000  H
  H178     1.0000 0.11520  0.60690  0.91340  Biso   1.000  H
  C180     1.0000 0.03460  0.71861  0.78990  Biso   1.000  C
  H179     1.0000 0.04940  0.70260  0.75030  Biso   1.000  H
  H180     1.0000 0.01420  0.74420  0.77210  Biso   1.000  H
  C181     1.0000 0.13449  0.68801  0.95700  Biso   1.000  C
  C182     1.0000 0.11599  0.71480  0.84630  Biso   1.000  C
  H181     1.0000 0.13280  0.70380  0.80430  Biso   1.000  H
  C183     1.0000 0.14434  0.75391  0.88620  Biso   1.000  C
  H182     1.0000 0.17470  0.76160  0.86250  Biso   1.000  H
  C184     1.0000 0.07051  0.78538  0.85270  Biso   1.000  C
  C185     1.0000 0.18620  0.75170  0.99950  Biso   1.000  C
  H183     1.0000 0.21320  0.76520  0.97400  Biso   1.000  H
  H184     1.0000 0.19840  0.72490  0.02690  Biso   1.000  H
  C186     1.0000 0.12530  0.84171  0.90760  Biso   1.000  C
  H185     1.0000 0.10460  0.86530  0.88530  Biso   1.000  H
  H186     1.0000 0.15810  0.84790  0.89240  Biso   1.000  H
  C187     1.0000 0.16620  0.78100  0.11530  Biso   1.000  C
  C188     1.0000 0.16260  0.83760  0.02410  Biso   1.000  C
  H187     1.0000 0.19270  0.85050  0.00490  Biso   1.000  H
  C189     1.0000 0.14940  0.86160  0.09210  Biso   1.000  C
  H188     1.0000 0.16990  0.88960  0.10180  Biso   1.000  H
  C190     1.0000 0.08690  0.87180  0.01490  Biso   1.000  C
  C191     1.0000 0.15960  0.83370  0.21620  Biso   1.000  C
  H189     1.0000 0.17630  0.86410  0.22310  Biso   1.000  H
  H190     1.0000 0.17840  0.80840  0.23840  Biso   1.000  H
  C192     1.0000 0.07420  0.90912  0.12780  Biso   1.000  C
  H191     1.0000 0.09630  0.93440  0.14200  Biso   1.000  H
  H192     1.0000 0.04790  0.92410  0.10230  Biso   1.000  H
  C193     1.0000 0.09130  0.79890  0.29130  Biso   1.000  C
  C194     1.0000 0.07910  0.87650  0.24970  Biso   1.000  C
  H193     1.0000 0.09720  0.90510  0.26430  Biso   1.000  H
  C195     1.0000 0.04270  0.86460  0.30400  Biso   1.000  C
  H194     1.0000 0.04450  0.88580  0.34490  Biso   1.000  H
  C196     1.0000 0.00910  0.88398  0.19620  Biso   1.000  C
  C197     1.0000 0.03040  0.79030  0.37620  Biso   1.000  C
  H195     1.0000 0.05070  0.76420  0.39250  Biso   1.000  H
  H196     1.0000 0.02650  0.81290  0.41440  Biso   1.000  H
  C198     1.0000 0.94760  0.87450  0.29100  Biso   1.000  C
  H197     1.0000 0.94800  0.89360  0.33340  Biso   1.000  H
  H198     1.0000 0.92800  0.89150  0.25710  Biso   1.000  H
  C199     1.0000 0.97450  0.72200  0.34470  Biso   1.000  C
  C200     1.0000 0.93570  0.79630  0.36150  Biso   1.000  C
  H199     1.0000 0.93370  0.81380  0.40580  Biso   1.000  H
  C201     1.0000 0.89690  0.75930  0.35990  Biso   1.000  C
  H200     1.0000 0.88070  0.75520  0.40490  Biso   1.000  H
  C202     1.0000 0.88250  0.82070  0.27890  Biso   1.000  C
  C203     1.0000 0.90240  0.66910  0.34090  Biso   1.000  C
  H201     1.0000 0.92670  0.64460  0.34950  Biso   1.000  H
  H202     1.0000 0.88040  0.66860  0.38020  Biso   1.000  H
  C204     1.0000 0.81960  0.75730  0.29100  Biso   1.000  C
  H203     1.0000 0.79930  0.78180  0.26970  Biso   1.000  H
  H204     1.0000 0.80500  0.74830  0.33500  Biso   1.000  H
  C205     1.0000 0.88740  0.61610  0.23980  Biso   1.000  C
  C206     1.0000 0.82520  0.66740  0.26690  Biso   1.000  C
  H205     1.0000 0.80470  0.66000  0.30700  Biso   1.000  H
  C207     1.0000 0.81370  0.63700  0.20660  Biso   1.000  C
  H206     1.0000 0.78350  0.61930  0.21350  Biso   1.000  H
  C208     1.0000 0.80700  0.71780  0.18040  Biso   1.000  C
  C209     1.0000 0.85470  0.56227  0.15500  Biso   1.000  C
  H207     1.0000 0.82270  0.54820  0.15480  Biso   1.000  H
  H208     1.0000 0.87650  0.53910  0.17590  Biso   1.000  H
  C210     1.0000 0.79040  0.66010  0.08430  Biso   1.000  C
  H209     1.0000 0.76490  0.63630  0.08880  Biso   1.000  H
  H210     1.0000 0.77650  0.68910  0.06410  Biso   1.000  H
  N113     1.0000 0.86962  0.57115  0.08360  Biso   1.000  N
  N114     1.0000 0.91481  0.56908  0.99040  Biso   1.000  N
  N115     1.0000 0.82751  0.64171  0.03870  Biso   1.000  N
  N116     1.0000 0.87132  0.63653  0.94370  Biso   1.000  N
  N117     1.0000 0.98109  0.58470  0.91530  Biso   1.000  N
  N118     1.0000 0.04820  0.61972  0.88530  Biso   1.000  N
  N119     1.0000 0.93686  0.65263  0.86910  Biso   1.000  N
  N120     1.0000 0.00472  0.68395  0.82710  Biso   1.000  N
  N121     1.0000 0.11132  0.67738  0.89750  Biso   1.000  N
  N122     1.0000 0.15285  0.73384  0.95170  Biso   1.000  N
  N123     1.0000 0.07086  0.73900  0.83070  Biso   1.000  N
  N124     1.0000 0.11147  0.79506  0.88500  Biso   1.000  N
  N125     1.0000 0.16796  0.78778  0.04610  Biso   1.000  N
  N126     1.0000 0.15590  0.82390  0.14320  Biso   1.000  N
  N127     1.0000 0.12270  0.84814  0.98090  Biso   1.000  N
  N128     1.0000 0.09920  0.87521  0.08240  Biso   1.000  N
  N129     1.0000 0.11050  0.83610  0.24930  Biso   1.000  N
  N130     1.0000 0.05470  0.81460  0.31940  Biso   1.000  N
  N131     1.0000 0.05580  0.88631  0.18700  Biso   1.000  N
  N132     1.0000 0.99810  0.87090  0.26380  Biso   1.000  N
  N133     1.0000 0.98370  0.77110  0.35790  Biso   1.000  N
  N134     1.0000 0.92730  0.71740  0.34040  Biso   1.000  N
  N135     1.0000 0.92600  0.82980  0.30540  Biso   1.000  N
  N136     1.0000 0.86420  0.77720  0.30400  Biso   1.000  N
  N137     1.0000 0.87570  0.65491  0.27970  Biso   1.000  N
  N138     1.0000 0.85410  0.60453  0.19600  Biso   1.000  N
  N139     1.0000 0.82060  0.71550  0.24610  Biso   1.000  N
  N140     1.0000 0.80960  0.67127  0.15250  Biso   1.000  N
  O62      1.0000 0.94355  0.53548  0.09100  Biso   1.000  O
  O63      1.0000 0.04927  0.56593  0.97643  Biso   1.000  O
  O64      1.0000 0.13737  0.66235  0.00820  Biso   1.000  O
  O65      1.0000 0.17380  0.74539  0.14800  Biso   1.000  O
  O66      1.0000 0.11400  0.76123  0.30580  Biso   1.000  O
  O67      1.0000 0.00200  0.69150  0.34440  Biso   1.000  O
  O68      1.0000 0.92790  0.59732  0.24470  Biso   1.000  O
  O69      1.0000 0.83638  0.70884  0.97090  Biso   1.000  O
  O70      1.0000 0.94018  0.73441  0.84700  Biso   1.000  O
  O71      1.0000 0.03754  0.81421  0.84260  Biso   1.000  O
  O72      1.0000 0.05022  0.88627  0.98700  Biso   1.000  O
  O73      1.0000 0.97450  0.89164  0.15300  Biso   1.000  O
  O74      1.0000 0.86080  0.84468  0.23640  Biso   1.000  O
  O75      1.0000 0.79781  0.75319  0.14900  Biso   1.000  O
  O76      1.0000 0.52990  0.99070  0.74410  Biso   1.000  O
  Rb6      1.0000 0.46502  0.93829  0.63724  Biso   1.000  Rb
  C211     1.0000 0.41222  0.05719  0.55860  Biso   1.000  C
  C212     1.0000 0.33927  0.09031  0.53060  Biso   1.000  C
  H211     1.0000 0.30980  0.07100  0.52580  Biso   1.000  H
  C213     1.0000 0.36922  0.08733  0.46630  Biso   1.000  C
  H212     1.0000 0.35460  0.06630  0.43110  Biso   1.000  H
  C214     1.0000 0.34479  0.16730  0.48280  Biso   1.000  C
  C215     1.0000 0.44936  0.04892  0.44640  Biso   1.000  C
  H213     1.0000 0.43310  0.03130  0.40960  Biso   1.000  H
  H214     1.0000 0.46870  0.02610  0.47270  Biso   1.000  H
  C216     1.0000 0.38735  0.14880  0.37440  Biso   1.000  C
  H215     1.0000 0.37610  0.12430  0.34210  Biso   1.000  H
  H216     1.0000 0.37290  0.17930  0.36090  Biso   1.000  H
  C217     1.0000 0.52844  0.08810  0.43000  Biso   1.000  C
  C218     1.0000 0.46780  0.11118  0.35640  Biso   1.000  C
  H217     1.0000 0.45390  0.09010  0.32060  Biso   1.000  H
  C219     1.0000 0.51550  0.13361  0.33130  Biso   1.000  C
  H218     1.0000 0.52530  0.12060  0.28600  Biso   1.000  H
  C220     1.0000 0.45880  0.19369  0.34830  Biso   1.000  C
  C221     1.0000 0.59870  0.12834  0.38130  Biso   1.000  C
  H219     1.0000 0.60980  0.12080  0.33460  Biso   1.000  H
  H220     1.0000 0.61520  0.10690  0.41340  Biso   1.000  H
  C222     1.0000 0.53460  0.21861  0.28990  Biso   1.000  C
  H221     1.0000 0.54940  0.20260  0.25030  Biso   1.000  H
  H222     1.0000 0.51420  0.24420  0.27210  Biso   1.000  H
  C223     1.0000 0.63449  0.18801  0.45700  Biso   1.000  C
  C224     1.0000 0.61599  0.21480  0.34630  Biso   1.000  C
  H223     1.0000 0.63280  0.20380  0.30430  Biso   1.000  H
  C225     1.0000 0.64434  0.25391  0.38620  Biso   1.000  C
  H224     1.0000 0.67470  0.26160  0.36250  Biso   1.000  H
  C226     1.0000 0.57051  0.28538  0.35270  Biso   1.000  C
  C227     1.0000 0.68620  0.25170  0.49950  Biso   1.000  C
  H225     1.0000 0.71320  0.26520  0.47400  Biso   1.000  H
  H226     1.0000 0.69840  0.22490  0.52690  Biso   1.000  H
  C228     1.0000 0.62530  0.34171  0.40760  Biso   1.000  C
  H227     1.0000 0.60460  0.36530  0.38530  Biso   1.000  H
  H228     1.0000 0.65810  0.34790  0.39240  Biso   1.000  H
  C229     1.0000 0.66620  0.28100  0.61530  Biso   1.000  C
  C230     1.0000 0.66260  0.33760  0.52410  Biso   1.000  C
  H229     1.0000 0.69270  0.35050  0.50490  Biso   1.000  H
  C231     1.0000 0.64940  0.36160  0.59210  Biso   1.000  C
  H230     1.0000 0.66990  0.38960  0.60180  Biso   1.000  H
  C232     1.0000 0.58690  0.37180  0.51490  Biso   1.000  C
  C233     1.0000 0.65960  0.33370  0.71620  Biso   1.000  C
  H231     1.0000 0.67630  0.36410  0.72310  Biso   1.000  H
  H232     1.0000 0.67840  0.30840  0.73840  Biso   1.000  H
  C234     1.0000 0.57420  0.40912  0.62780  Biso   1.000  C
  H233     1.0000 0.59630  0.43440  0.64200  Biso   1.000  H
  H234     1.0000 0.54790  0.42410  0.60230  Biso   1.000  H
  C235     1.0000 0.59130  0.29890  0.79130  Biso   1.000  C
  C236     1.0000 0.57910  0.37650  0.74970  Biso   1.000  C
  H235     1.0000 0.59720  0.40510  0.76430  Biso   1.000  H
  C237     1.0000 0.54270  0.36460  0.80400  Biso   1.000  C
  H236     1.0000 0.54450  0.38580  0.84490  Biso   1.000  H
  C238     1.0000 0.50910  0.38398  0.69620  Biso   1.000  C
  C239     1.0000 0.53040  0.29030  0.87620  Biso   1.000  C
  H237     1.0000 0.55070  0.26420  0.89250  Biso   1.000  H
  H238     1.0000 0.52650  0.31290  0.91440  Biso   1.000  H
  C240     1.0000 0.44760  0.37450  0.79100  Biso   1.000  C
  H239     1.0000 0.44800  0.39360  0.83340  Biso   1.000  H
  H240     1.0000 0.42800  0.39150  0.75710  Biso   1.000  H
  C241     1.0000 0.47450  0.22200  0.84470  Biso   1.000  C
  C242     1.0000 0.43570  0.29630  0.86150  Biso   1.000  C
  H241     1.0000 0.43370  0.31380  0.90580  Biso   1.000  H
  C243     1.0000 0.39690  0.25930  0.85990  Biso   1.000  C
  H242     1.0000 0.38070  0.25520  0.90490  Biso   1.000  H
  C244     1.0000 0.38250  0.32070  0.77890  Biso   1.000  C
  C245     1.0000 0.40240  0.16910  0.84090  Biso   1.000  C
  H243     1.0000 0.42670  0.14460  0.84950  Biso   1.000  H
  H244     1.0000 0.38040  0.16860  0.88020  Biso   1.000  H
  C246     1.0000 0.31960  0.25730  0.79100  Biso   1.000  C
  H245     1.0000 0.29930  0.28180  0.76970  Biso   1.000  H
  H246     1.0000 0.30500  0.24830  0.83500  Biso   1.000  H
  C247     1.0000 0.38740  0.11610  0.73980  Biso   1.000  C
  C248     1.0000 0.32520  0.16740  0.76690  Biso   1.000  C
  H247     1.0000 0.30470  0.16000  0.80700  Biso   1.000  H
  C249     1.0000 0.31370  0.13700  0.70660  Biso   1.000  C
  H248     1.0000 0.28350  0.11930  0.71350  Biso   1.000  H
  C250     1.0000 0.30700  0.21780  0.68040  Biso   1.000  C
  C251     1.0000 0.35470  0.06227  0.65500  Biso   1.000  C
  H249     1.0000 0.32270  0.04820  0.65480  Biso   1.000  H
  H250     1.0000 0.37650  0.03910  0.67590  Biso   1.000  H
  C252     1.0000 0.29040  0.16010  0.58430  Biso   1.000  C
  H251     1.0000 0.26490  0.13630  0.58880  Biso   1.000  H
  H252     1.0000 0.27650  0.18910  0.56410  Biso   1.000  H
  N141     1.0000 0.36962  0.07115  0.58360  Biso   1.000  N
  N142     1.0000 0.41481  0.06908  0.49040  Biso   1.000  N
  N143     1.0000 0.32751  0.14171  0.53870  Biso   1.000  N
  N144     1.0000 0.37132  0.13653  0.44370  Biso   1.000  N
  N145     1.0000 0.48109  0.08470  0.41530  Biso   1.000  N
  N146     1.0000 0.54820  0.11972  0.38530  Biso   1.000  N
  N147     1.0000 0.43686  0.15263  0.36910  Biso   1.000  N
  N148     1.0000 0.50472  0.18395  0.32710  Biso   1.000  N
  N149     1.0000 0.61132  0.17738  0.39750  Biso   1.000  N
  N150     1.0000 0.65285  0.23384  0.45170  Biso   1.000  N
  N151     1.0000 0.57086  0.23900  0.33070  Biso   1.000  N
  N152     1.0000 0.61147  0.29506  0.38500  Biso   1.000  N
  N153     1.0000 0.66796  0.28778  0.54610  Biso   1.000  N
  N154     1.0000 0.65590  0.32390  0.64320  Biso   1.000  N
  N155     1.0000 0.62270  0.34814  0.48090  Biso   1.000  N
  N156     1.0000 0.59920  0.37521  0.58240  Biso   1.000  N
  N157     1.0000 0.61050  0.33610  0.74930  Biso   1.000  N
  N158     1.0000 0.55470  0.31460  0.81940  Biso   1.000  N
  N159     1.0000 0.55580  0.38631  0.68700  Biso   1.000  N
  N160     1.0000 0.49810  0.37090  0.76380  Biso   1.000  N
  N161     1.0000 0.48370  0.27110  0.85790  Biso   1.000  N
  N162     1.0000 0.42730  0.21740  0.84040  Biso   1.000  N
  N163     1.0000 0.42600  0.32980  0.80540  Biso   1.000  N
  N164     1.0000 0.36420  0.27720  0.80400  Biso   1.000  N
  N165     1.0000 0.37570  0.15491  0.77970  Biso   1.000  N
  N166     1.0000 0.35410  0.10453  0.69600  Biso   1.000  N
  N167     1.0000 0.32060  0.21550  0.74610  Biso   1.000  N
  N168     1.0000 0.30960  0.17127  0.65250  Biso   1.000  N
  O77      1.0000 0.44355  0.03548  0.59100  Biso   1.000  O
  O78      1.0000 0.54927  0.06593  0.47643  Biso   1.000  O
  O79      1.0000 0.63737  0.16235  0.50820  Biso   1.000  O
  O80      1.0000 0.67380  0.24539  0.64800  Biso   1.000  O
  O81      1.0000 0.61400  0.26123  0.80580  Biso   1.000  O
  O82      1.0000 0.50200  0.19150  0.84440  Biso   1.000  O
  O83      1.0000 0.42790  0.09732  0.74470  Biso   1.000  O
  O84      1.0000 0.33638  0.20884  0.47090  Biso   1.000  O
  O85      1.0000 0.44018  0.23441  0.34700  Biso   1.000  O
  O86      1.0000 0.53754  0.31421  0.34260  Biso   1.000  O
  O87      1.0000 0.55022  0.38627  0.48700  Biso   1.000  O
  O88      1.0000 0.47450  0.39164  0.65300  Biso   1.000  O
  O89      1.0000 0.36080  0.34468  0.73640  Biso   1.000  O
  O90      1.0000 0.29781  0.25319  0.64900  Biso   1.000  O
  O91      1.0000 0.47010  0.00930  0.74410  Biso   1.000  O
  Rb7      1.0000 0.53498  0.06171  0.63724  Biso   1.000  Rb
  C253     1.0000 0.58778  0.94281  0.55860  Biso   1.000  C
  C254     1.0000 0.66073  0.90969  0.53060  Biso   1.000  C
  H253     1.0000 0.69020  0.92900  0.52580  Biso   1.000  H
  C255     1.0000 0.63078  0.91267  0.46630  Biso   1.000  C
  H254     1.0000 0.64540  0.93370  0.43110  Biso   1.000  H
  C256     1.0000 0.65521  0.83270  0.48280  Biso   1.000  C
  C257     1.0000 0.55064  0.95108  0.44640  Biso   1.000  C
  H255     1.0000 0.56690  0.96870  0.40960  Biso   1.000  H
  H256     1.0000 0.53130  0.97390  0.47270  Biso   1.000  H
  C258     1.0000 0.61265  0.85120  0.37440  Biso   1.000  C
  H257     1.0000 0.62390  0.87570  0.34210  Biso   1.000  H
  H258     1.0000 0.62710  0.82070  0.36090  Biso   1.000  H
  C259     1.0000 0.47156  0.91190  0.43000  Biso   1.000  C
  C260     1.0000 0.53220  0.88882  0.35640  Biso   1.000  C
  H259     1.0000 0.54610  0.90990  0.32060  Biso   1.000  H
  C261     1.0000 0.48450  0.86639  0.33130  Biso   1.000  C
  H260     1.0000 0.47470  0.87940  0.28600  Biso   1.000  H
  C262     1.0000 0.54120  0.80631  0.34830  Biso   1.000  C
  C263     1.0000 0.40130  0.87166  0.38130  Biso   1.000  C
  H261     1.0000 0.39020  0.87920  0.33460  Biso   1.000  H
  H262     1.0000 0.38480  0.89310  0.41340  Biso   1.000  H
  C264     1.0000 0.46540  0.78139  0.28990  Biso   1.000  C
  H263     1.0000 0.45060  0.79740  0.25030  Biso   1.000  H
  H264     1.0000 0.48580  0.75580  0.27210  Biso   1.000  H
  C265     1.0000 0.36551  0.81199  0.45700  Biso   1.000  C
  C266     1.0000 0.38401  0.78520  0.34630  Biso   1.000  C
  H265     1.0000 0.36720  0.79620  0.30430  Biso   1.000  H
  C267     1.0000 0.35566  0.74609  0.38620  Biso   1.000  C
  H266     1.0000 0.32530  0.73840  0.36250  Biso   1.000  H
  C268     1.0000 0.42949  0.71462  0.35270  Biso   1.000  C
  C269     1.0000 0.31380  0.74830  0.49950  Biso   1.000  C
  H267     1.0000 0.28680  0.73480  0.47400  Biso   1.000  H
  H268     1.0000 0.30160  0.77510  0.52690  Biso   1.000  H
  C270     1.0000 0.37470  0.65829  0.40760  Biso   1.000  C
  H269     1.0000 0.39540  0.63470  0.38530  Biso   1.000  H
  H270     1.0000 0.34190  0.65210  0.39240  Biso   1.000  H
  C271     1.0000 0.33380  0.71900  0.61530  Biso   1.000  C
  C272     1.0000 0.33740  0.66240  0.52410  Biso   1.000  C
  H271     1.0000 0.30730  0.64950  0.50490  Biso   1.000  H
  C273     1.0000 0.35060  0.63840  0.59210  Biso   1.000  C
  H272     1.0000 0.33010  0.61040  0.60180  Biso   1.000  H
  C274     1.0000 0.41310  0.62820  0.51490  Biso   1.000  C
  C275     1.0000 0.34040  0.66630  0.71620  Biso   1.000  C
  H273     1.0000 0.32370  0.63590  0.72310  Biso   1.000  H
  H274     1.0000 0.32160  0.69160  0.73840  Biso   1.000  H
  C276     1.0000 0.42580  0.59088  0.62780  Biso   1.000  C
  H275     1.0000 0.40370  0.56560  0.64200  Biso   1.000  H
  H276     1.0000 0.45210  0.57590  0.60230  Biso   1.000  H
  C277     1.0000 0.40870  0.70110  0.79130  Biso   1.000  C
  C278     1.0000 0.42090  0.62350  0.74970  Biso   1.000  C
  H277     1.0000 0.40280  0.59490  0.76430  Biso   1.000  H
  C279     1.0000 0.45730  0.63540  0.80400  Biso   1.000  C
  H278     1.0000 0.45550  0.61420  0.84490  Biso   1.000  H
  C280     1.0000 0.49090  0.61602  0.69620  Biso   1.000  C
  C281     1.0000 0.46960  0.70970  0.87620  Biso   1.000  C
  H279     1.0000 0.44930  0.73580  0.89250  Biso   1.000  H
  H280     1.0000 0.47350  0.68710  0.91440  Biso   1.000  H
  C282     1.0000 0.55240  0.62550  0.79100  Biso   1.000  C
  H281     1.0000 0.55200  0.60640  0.83340  Biso   1.000  H
  H282     1.0000 0.57200  0.60850  0.75710  Biso   1.000  H
  C283     1.0000 0.52550  0.77800  0.84470  Biso   1.000  C
  C284     1.0000 0.56430  0.70370  0.86150  Biso   1.000  C
  H283     1.0000 0.56630  0.68620  0.90580  Biso   1.000  H
  C285     1.0000 0.60310  0.74070  0.85990  Biso   1.000  C
  H284     1.0000 0.61930  0.74480  0.90490  Biso   1.000  H
  C286     1.0000 0.61750  0.67930  0.77890  Biso   1.000  C
  C287     1.0000 0.59760  0.83090  0.84090  Biso   1.000  C
  H285     1.0000 0.57330  0.85540  0.84950  Biso   1.000  H
  H286     1.0000 0.61960  0.83140  0.88020  Biso   1.000  H
  C288     1.0000 0.68040  0.74270  0.79100  Biso   1.000  C
  H287     1.0000 0.70070  0.71820  0.76970  Biso   1.000  H
  H288     1.0000 0.69500  0.75170  0.83500  Biso   1.000  H
  C289     1.0000 0.61260  0.88390  0.73980  Biso   1.000  C
  C290     1.0000 0.67480  0.83260  0.76690  Biso   1.000  C
  H289     1.0000 0.69530  0.84000  0.80700  Biso   1.000  H
  C291     1.0000 0.68630  0.86300  0.70660  Biso   1.000  C
  H290     1.0000 0.71650  0.88070  0.71350  Biso   1.000  H
  C292     1.0000 0.69300  0.78220  0.68040  Biso   1.000  C
  C293     1.0000 0.64530  0.93773  0.65500  Biso   1.000  C
  H291     1.0000 0.67730  0.95180  0.65480  Biso   1.000  H
  H292     1.0000 0.62350  0.96090  0.67590  Biso   1.000  H
  C294     1.0000 0.70960  0.83990  0.58430  Biso   1.000  C
  H293     1.0000 0.73510  0.86370  0.58880  Biso   1.000  H
  H294     1.0000 0.72350  0.81090  0.56410  Biso   1.000  H
  N169     1.0000 0.63038  0.92885  0.58360  Biso   1.000  N
  N170     1.0000 0.58519  0.93092  0.49040  Biso   1.000  N
  N171     1.0000 0.67249  0.85829  0.53870  Biso   1.000  N
  N172     1.0000 0.62868  0.86347  0.44370  Biso   1.000  N
  N173     1.0000 0.51891  0.91530  0.41530  Biso   1.000  N
  N174     1.0000 0.45180  0.88028  0.38530  Biso   1.000  N
  N175     1.0000 0.56314  0.84737  0.36910  Biso   1.000  N
  N176     1.0000 0.49528  0.81605  0.32710  Biso   1.000  N
  N177     1.0000 0.38868  0.82262  0.39750  Biso   1.000  N
  N178     1.0000 0.34715  0.76616  0.45170  Biso   1.000  N
  N179     1.0000 0.42914  0.76100  0.33070  Biso   1.000  N
  N180     1.0000 0.38853  0.70494  0.38500  Biso   1.000  N
  N181     1.0000 0.33204  0.71222  0.54610  Biso   1.000  N
  N182     1.0000 0.34410  0.67610  0.64320  Biso   1.000  N
  N183     1.0000 0.37730  0.65186  0.48090  Biso   1.000  N
  N184     1.0000 0.40080  0.62479  0.58240  Biso   1.000  N
  N185     1.0000 0.38950  0.66390  0.74930  Biso   1.000  N
  N186     1.0000 0.44530  0.68540  0.81940  Biso   1.000  N
  N187     1.0000 0.44420  0.61369  0.68700  Biso   1.000  N
  N188     1.0000 0.50190  0.62910  0.76380  Biso   1.000  N
  N189     1.0000 0.51630  0.72890  0.85790  Biso   1.000  N
  N190     1.0000 0.57270  0.78260  0.84040  Biso   1.000  N
  N191     1.0000 0.57400  0.67020  0.80540  Biso   1.000  N
  N192     1.0000 0.63580  0.72280  0.80400  Biso   1.000  N
  N193     1.0000 0.62430  0.84509  0.77970  Biso   1.000  N
  N194     1.0000 0.64590  0.89547  0.69600  Biso   1.000  N
  N195     1.0000 0.67940  0.78450  0.74610  Biso   1.000  N
  N196     1.0000 0.69040  0.82873  0.65250  Biso   1.000  N
  O92      1.0000 0.55645  0.96452  0.59100  Biso   1.000  O
  O93      1.0000 0.45073  0.93407  0.47643  Biso   1.000  O
  O94      1.0000 0.36263  0.83765  0.50820  Biso   1.000  O
  O95      1.0000 0.32620  0.75461  0.64800  Biso   1.000  O
  O96      1.0000 0.38600  0.73877  0.80580  Biso   1.000  O
  O97      1.0000 0.49800  0.80850  0.84440  Biso   1.000  O
  O98      1.0000 0.57210  0.90268  0.74470  Biso   1.000  O
  O99      1.0000 0.66362  0.79116  0.47090  Biso   1.000  O
  O100     1.0000 0.55982  0.76559  0.34700  Biso   1.000  O
  O101     1.0000 0.46246  0.68579  0.34260  Biso   1.000  O
  O102     1.0000 0.44978  0.61373  0.48700  Biso   1.000  O
  O103     1.0000 0.52550  0.60836  0.65300  Biso   1.000  O
  O104     1.0000 0.63920  0.65532  0.73640  Biso   1.000  O
  O105     1.0000 0.70219  0.74681  0.64900  Biso   1.000  O
  O106     1.0000 0.97010  0.50930  0.24410  Biso   1.000  O
  Rb8      1.0000 0.03498  0.56171  0.13724  Biso   1.000  Rb
  C295     1.0000 0.08778  0.44281  0.05860  Biso   1.000  C
  C296     1.0000 0.16073  0.40969  0.03060  Biso   1.000  C
  H295     1.0000 0.19020  0.42900  0.02580  Biso   1.000  H
  C297     1.0000 0.13078  0.41267  0.96630  Biso   1.000  C
  H296     1.0000 0.14540  0.43370  0.93110  Biso   1.000  H
  C298     1.0000 0.15521  0.33270  0.98280  Biso   1.000  C
  C299     1.0000 0.05064  0.45108  0.94640  Biso   1.000  C
  H297     1.0000 0.06690  0.46870  0.90960  Biso   1.000  H
  H298     1.0000 0.03130  0.47390  0.97270  Biso   1.000  H
  C300     1.0000 0.11265  0.35120  0.87440  Biso   1.000  C
  H299     1.0000 0.12390  0.37570  0.84210  Biso   1.000  H
  H300     1.0000 0.12710  0.32070  0.86090  Biso   1.000  H
  C301     1.0000 0.97156  0.41190  0.93000  Biso   1.000  C
  C302     1.0000 0.03220  0.38882  0.85640  Biso   1.000  C
  H301     1.0000 0.04610  0.40990  0.82060  Biso   1.000  H
  C303     1.0000 0.98450  0.36639  0.83130  Biso   1.000  C
  H302     1.0000 0.97470  0.37940  0.78600  Biso   1.000  H
  C304     1.0000 0.04120  0.30631  0.84830  Biso   1.000  C
  C305     1.0000 0.90130  0.37166  0.88130  Biso   1.000  C
  H303     1.0000 0.89020  0.37920  0.83460  Biso   1.000  H
  H304     1.0000 0.88480  0.39310  0.91340  Biso   1.000  H
  C306     1.0000 0.96540  0.28139  0.78990  Biso   1.000  C
  H305     1.0000 0.95060  0.29740  0.75030  Biso   1.000  H
  H306     1.0000 0.98580  0.25580  0.77210  Biso   1.000  H
  C307     1.0000 0.86551  0.31199  0.95700  Biso   1.000  C
  C308     1.0000 0.88401  0.28520  0.84630  Biso   1.000  C
  H307     1.0000 0.86720  0.29620  0.80430  Biso   1.000  H
  C309     1.0000 0.85566  0.24609  0.88620  Biso   1.000  C
  H308     1.0000 0.82530  0.23840  0.86250  Biso   1.000  H
  C310     1.0000 0.92949  0.21462  0.85270  Biso   1.000  C
  C311     1.0000 0.81380  0.24830  0.99950  Biso   1.000  C
  H309     1.0000 0.78680  0.23480  0.97400  Biso   1.000  H
  H310     1.0000 0.80160  0.27510  0.02690  Biso   1.000  H
  C312     1.0000 0.87470  0.15829  0.90760  Biso   1.000  C
  H311     1.0000 0.89540  0.13470  0.88530  Biso   1.000  H
  H312     1.0000 0.84190  0.15210  0.89240  Biso   1.000  H
  C313     1.0000 0.83380  0.21900  0.11530  Biso   1.000  C
  C314     1.0000 0.83740  0.16240  0.02410  Biso   1.000  C
  H313     1.0000 0.80730  0.14950  0.00490  Biso   1.000  H
  C315     1.0000 0.85060  0.13840  0.09210  Biso   1.000  C
  H314     1.0000 0.83010  0.11040  0.10180  Biso   1.000  H
  C316     1.0000 0.91310  0.12820  0.01490  Biso   1.000  C
  C317     1.0000 0.84040  0.16630  0.21620  Biso   1.000  C
  H315     1.0000 0.82370  0.13590  0.22310  Biso   1.000  H
  H316     1.0000 0.82160  0.19160  0.23840  Biso   1.000  H
  C318     1.0000 0.92580  0.09088  0.12780  Biso   1.000  C
  H317     1.0000 0.90370  0.06560  0.14200  Biso   1.000  H
  H318     1.0000 0.95210  0.07590  0.10230  Biso   1.000  H
  C319     1.0000 0.90870  0.20110  0.29130  Biso   1.000  C
  C320     1.0000 0.92090  0.12350  0.24970  Biso   1.000  C
  H319     1.0000 0.90280  0.09490  0.26430  Biso   1.000  H
  C321     1.0000 0.95730  0.13540  0.30400  Biso   1.000  C
  H320     1.0000 0.95550  0.11420  0.34490  Biso   1.000  H
  C322     1.0000 0.99090  0.11602  0.19620  Biso   1.000  C
  C323     1.0000 0.96960  0.20970  0.37620  Biso   1.000  C
  H321     1.0000 0.94930  0.23580  0.39250  Biso   1.000  H
  H322     1.0000 0.97350  0.18710  0.41440  Biso   1.000  H
  C324     1.0000 0.05240  0.12550  0.29100  Biso   1.000  C
  H323     1.0000 0.05200  0.10640  0.33340  Biso   1.000  H
  H324     1.0000 0.07200  0.10850  0.25710  Biso   1.000  H
  C325     1.0000 0.02550  0.27800  0.34470  Biso   1.000  C
  C326     1.0000 0.06430  0.20370  0.36150  Biso   1.000  C
  H325     1.0000 0.06630  0.18620  0.40580  Biso   1.000  H
  C327     1.0000 0.10310  0.24070  0.35990  Biso   1.000  C
  H326     1.0000 0.11930  0.24480  0.40490  Biso   1.000  H
  C328     1.0000 0.11750  0.17930  0.27890  Biso   1.000  C
  C329     1.0000 0.09760  0.33090  0.34090  Biso   1.000  C
  H327     1.0000 0.07330  0.35540  0.34950  Biso   1.000  H
  H328     1.0000 0.11960  0.33140  0.38020  Biso   1.000  H
  C330     1.0000 0.18040  0.24270  0.29100  Biso   1.000  C
  H329     1.0000 0.20070  0.21820  0.26970  Biso   1.000  H
  H330     1.0000 0.19500  0.25170  0.33500  Biso   1.000  H
  C331     1.0000 0.11260  0.38390  0.23980  Biso   1.000  C
  C332     1.0000 0.17480  0.33260  0.26690  Biso   1.000  C
  H331     1.0000 0.19530  0.34000  0.30700  Biso   1.000  H
  C333     1.0000 0.18630  0.36300  0.20660  Biso   1.000  C
  H332     1.0000 0.21650  0.38070  0.21350  Biso   1.000  H
  C334     1.0000 0.19300  0.28220  0.18040  Biso   1.000  C
  C335     1.0000 0.14530  0.43773  0.15500  Biso   1.000  C
  H333     1.0000 0.17730  0.45180  0.15480  Biso   1.000  H
  H334     1.0000 0.12350  0.46090  0.17590  Biso   1.000  H
  C336     1.0000 0.20960  0.33990  0.08430  Biso   1.000  C
  H335     1.0000 0.23510  0.36370  0.08880  Biso   1.000  H
  H336     1.0000 0.22350  0.31090  0.06410  Biso   1.000  H
  N197     1.0000 0.13038  0.42885  0.08360  Biso   1.000  N
  N198     1.0000 0.08519  0.43092  0.99040  Biso   1.000  N
  N199     1.0000 0.17249  0.35829  0.03870  Biso   1.000  N
  N200     1.0000 0.12868  0.36347  0.94370  Biso   1.000  N
  N201     1.0000 0.01891  0.41530  0.91530  Biso   1.000  N
  N202     1.0000 0.95180  0.38028  0.88530  Biso   1.000  N
  N203     1.0000 0.06314  0.34737  0.86910  Biso   1.000  N
  N204     1.0000 0.99528  0.31605  0.82710  Biso   1.000  N
  N205     1.0000 0.88868  0.32262  0.89750  Biso   1.000  N
  N206     1.0000 0.84715  0.26616  0.95170  Biso   1.000  N
  N207     1.0000 0.92914  0.26100  0.83070  Biso   1.000  N
  N208     1.0000 0.88853  0.20494  0.88500  Biso   1.000  N
  N209     1.0000 0.83204  0.21222  0.04610  Biso   1.000  N
  N210     1.0000 0.84410  0.17610  0.14320  Biso   1.000  N
  N211     1.0000 0.87730  0.15186  0.98090  Biso   1.000  N
  N212     1.0000 0.90080  0.12479  0.08240  Biso   1.000  N
  N213     1.0000 0.88950  0.16390  0.24930  Biso   1.000  N
  N214     1.0000 0.94530  0.18540  0.31940  Biso   1.000  N
  N215     1.0000 0.94420  0.11369  0.18700  Biso   1.000  N
  N216     1.0000 0.00190  0.12910  0.26380  Biso   1.000  N
  N217     1.0000 0.01630  0.22890  0.35790  Biso   1.000  N
  N218     1.0000 0.07270  0.28260  0.34040  Biso   1.000  N
  N219     1.0000 0.07400  0.17020  0.30540  Biso   1.000  N
  N220     1.0000 0.13580  0.22280  0.30400  Biso   1.000  N
  N221     1.0000 0.12430  0.34509  0.27970  Biso   1.000  N
  N222     1.0000 0.14590  0.39547  0.19600  Biso   1.000  N
  N223     1.0000 0.17940  0.28450  0.24610  Biso   1.000  N
  N224     1.0000 0.19040  0.32873  0.15250  Biso   1.000  N
  O107     1.0000 0.05645  0.46452  0.09100  Biso   1.000  O
  O108     1.0000 0.95073  0.43407  0.97643  Biso   1.000  O
  O109     1.0000 0.86263  0.33765  0.00820  Biso   1.000  O
  O110     1.0000 0.82620  0.25461  0.14800  Biso   1.000  O
  O111     1.0000 0.88600  0.23877  0.30580  Biso   1.000  O
  O112     1.0000 0.99800  0.30850  0.34440  Biso   1.000  O
  O113     1.0000 0.07210  0.40268  0.24470  Biso   1.000  O
  O114     1.0000 0.16362  0.29116  0.97090  Biso   1.000  O
  O115     1.0000 0.05982  0.26559  0.84700  Biso   1.000  O
  O116     1.0000 0.96246  0.18579  0.84260  Biso   1.000  O
  O117     1.0000 0.94978  0.11373  0.98700  Biso   1.000  O
  O118     1.0000 0.02550  0.10836  0.15300  Biso   1.000  O
  O119     1.0000 0.13920  0.15532  0.23640  Biso   1.000  O
  O120     1.0000 0.20219  0.24681  0.14900  Biso   1.000  O
